@<TRIPOS>MOLECULE
ZINC03871832
 72 73 0 0 0
SMALL
GASTEIGER

@<TRIPOS>ATOM
      1 C           1.5149   -0.4640   -2.7963 C.3     1  UNL1       -0.0609
      2 C           0.7949    0.3986   -1.7460 C.3     1  UNL1       -0.0242
      3 C          -0.7167    0.2868   -1.9883 C.3     1  UNL1       -0.0609
      4 C           1.2904    0.1578   -0.2494 C.3     1  UNL1        0.0847
      5 C           0.5140    1.1488    0.7134 C.3     1  UNL1       -0.0254
      6 C           1.0859    1.4341    2.1288 C.3     1  UNL1       -0.0108
      7 C           0.9903    0.2863    3.1331 C.3     1  UNL1       -0.0321
      8 N           1.5048    0.6613    4.5199 N.4     1  UNL1        0.2333
      9 C           2.9742    1.0266    4.5121 C.3     1  UNL1       -0.0431
     10 C           0.7067    1.6898    5.3058 C.3     1  UNL1       -0.0281
     11 C          -0.7248    1.2337    5.6338 C.3     1  UNL1        0.0128
     12 C          -1.4367    2.2685    6.4703 C.ar    1  UNL1       -0.0387
     13 C          -1.8923    1.9957    7.7606 C.ar    1  UNL1       -0.0547
     14 C          -2.4439    3.0189    8.5478 C.ar    1  UNL1       -0.0160
     15 C          -2.5442    4.3389    8.0771 C.ar    1  UNL1        0.1615
     16 C          -2.2062    4.5905    6.7414 C.ar    1  UNL1        0.1617
     17 C          -1.6499    3.5546    5.9668 C.ar    1  UNL1       -0.0129
     18 O          -2.2634    5.7443    6.0117 O.3     1  UNL1       -0.4914
     19 C          -2.8978    6.9164    6.4931 C.3     1  UNL1        0.0790
     20 O          -2.9408    5.3797    8.8681 O.3     1  UNL1       -0.4915
     21 C          -2.8498    5.2197   10.2822 C.3     1  UNL1        0.0790
     22 C           2.7380    0.6015   -0.1876 C.1     1  UNL1        0.0742
     23 N           3.8331    0.9609   -0.0722 N.1     1  UNL1       -0.1956
     24 C           1.1360   -1.3157    0.2089 C.ar    1  UNL1       -0.0236
     25 C           2.2464   -2.1665    0.3394 C.ar    1  UNL1       -0.0534
     26 C           2.1132   -3.4866    0.7926 C.ar    1  UNL1       -0.0160
     27 C           0.8647   -4.0226    1.1221 C.ar    1  UNL1        0.1615
     28 C          -0.2616   -3.1968    1.0150 C.ar    1  UNL1        0.1618
     29 C          -0.1132   -1.8733    0.5399 C.ar    1  UNL1       -0.0116
     30 O          -1.5651   -3.4844    1.3229 O.3     1  UNL1       -0.4914
     31 C          -1.8883   -4.7429    1.8974 C.3     1  UNL1        0.0790
     32 O           0.7279   -5.3030    1.5906 O.3     1  UNL1       -0.4915
     33 C           1.6886   -6.2613    1.1400 C.3     1  UNL1        0.0790
     34 H           1.1539   -1.4974   -2.7892 H       1  UNL1        0.0233
     35 H           2.5999   -0.4744   -2.6553 H       1  UNL1        0.0233
     36 H           1.3277   -0.0597   -3.7991 H       1  UNL1        0.0233
     37 H           1.0543    1.4402   -1.9910 H       1  UNL1        0.0314
     38 H          -1.0752   -0.7402   -1.8839 H       1  UNL1        0.0233
     39 H          -1.2907    0.9316   -1.3197 H       1  UNL1        0.0233
     40 H          -0.9556    0.6034   -3.0081 H       1  UNL1        0.0233
     41 H           0.4941    2.1309    0.2151 H       1  UNL1        0.0285
     42 H          -0.5362    0.8577    0.8222 H       1  UNL1        0.0285
     43 H           2.1205    1.7776    2.0409 H       1  UNL1        0.0317
     44 H           0.5275    2.2934    2.5236 H       1  UNL1        0.0317
     45 H          -0.0428   -0.0554    3.2551 H       1  UNL1        0.0814
     46 H           1.5952   -0.5687    2.8231 H       1  UNL1        0.0814
     47 H           3.0956    1.9965    4.0234 H       1  UNL1        0.0777
     48 H           3.3130    1.0824    5.5502 H       1  UNL1        0.0777
     49 H           3.5206    0.2410    3.9841 H       1  UNL1        0.0777
     50 H           1.2528    1.8473    6.2476 H       1  UNL1        0.0817
     51 H           0.7353    2.6259    4.7417 H       1  UNL1        0.0817
     52 H          -1.3080    1.0744    4.7207 H       1  UNL1        0.0365
     53 H          -0.6950    0.2749    6.1653 H       1  UNL1        0.0365
     54 H          -1.8148    0.9970    8.1893 H       1  UNL1        0.0621
     55 H          -2.8068    2.7544    9.5384 H       1  UNL1        0.0655
     56 H          -1.3725    3.7902    4.9417 H       1  UNL1        0.0658
     57 H          -3.6647    6.7548    7.2490 H       1  UNL1        0.0660
     58 H          -2.1349    7.6179    6.8442 H       1  UNL1        0.0660
     59 H          -3.4035    7.3817    5.6389 H       1  UNL1        0.0660
     60 H          -2.0515    4.5393   10.5959 H       1  UNL1        0.0660
     61 H          -2.6155    6.1985   10.7093 H       1  UNL1        0.0660
     62 H          -3.8144    4.8931   10.6815 H       1  UNL1        0.0660
     63 H           3.2579   -1.8379    0.0971 H       1  UNL1        0.0622
     64 H           3.0235   -4.0720    0.8908 H       1  UNL1        0.0655
     65 H          -1.0254   -1.2877    0.4329 H       1  UNL1        0.0658
     66 H          -1.7528   -5.5575    1.1785 H       1  UNL1        0.0660
     67 H          -1.3387   -4.9196    2.8277 H       1  UNL1        0.0660
     68 H          -2.9521   -4.7189    2.1623 H       1  UNL1        0.0660
     69 H           1.7504   -6.2766    0.0469 H       1  UNL1        0.0660
     70 H           2.6699   -6.0827    1.5894 H       1  UNL1        0.0660
     71 H           1.3571   -7.2493    1.4729 H       1  UNL1        0.0660
     72 H           1.4517   -0.2100    5.0666 H       1  UNL1        0.2031
@<TRIPOS>UNITY_ATOM_ATTR
8 1
charge 1
@<TRIPOS>BOND
     1     1     2    1
     2     1    34    1
     3     1    35    1
     4     1    36    1
     5     2     3    1
     6     2    37    1
     7     3    38    1
     8     3    39    1
     9     3    40    1
    10     4    22    1
    11     4    24    1
    12     5     6    1
    13     5    41    1
    14     5    42    1
    15     6     7    1
    16     6    43    1
    17     6    44    1
    18     7     8    1
    19     7    45    1
    20     7    46    1
    21     8     9    1
    22     8    10    1
    23     8    72    1
    24     9    47    1
    25     9    48    1
    26     9    49    1
    27    10    11    1
    28    10    50    1
    29    10    51    1
    30    11    12    1
    31    11    52    1
    32    11    53    1
    33    12    17   ar
    34    12    13   ar
    35    13    14   ar
    36    13    54    1
    37    14    15   ar
    38    14    55    1
    39    15    16   ar
    40    15    20    1
    41    16    17   ar
    42    16    18    1
    43    17    56    1
    44    18    19    1
    45    19    57    1
    46    19    58    1
    47    19    59    1
    48    20    21    1
    49    21    60    1
    50    21    61    1
    51    21    62    1
    52    22    23    3
    53    24    29   ar
    54    24    25   ar
    55    25    26   ar
    56    25    63    1
    57    26    27   ar
    58    26    64    1
    59    27    28   ar
    60    27    32    1
    61    28    29   ar
    62    28    30    1
    63    29    65    1
    64    30    31    1
    65    31    66    1
    66    31    67    1
    67    31    68    1
    68    32    33    1
    69    33    69    1
    70    33    70    1
    71    33    71    1
    72     4     5    1
    73     4     2    1
