@<TRIPOS>MOLECULE
ZINC00968336
 56 57 0 0 0
SMALL
GASTEIGER

@<TRIPOS>ATOM
      1 C          -5.7719   -4.2238    1.9319 C.3     1  UNL1       -0.0397
      2 C          -4.4659   -3.5053    2.1057 C.ar    1  UNL1       -0.0499
      3 C          -4.1745   -2.8356    3.2951 C.ar    1  UNL1       -0.0554
      4 C          -2.9730   -2.1387    3.4414 C.ar    1  UNL1       -0.0196
      5 C          -2.0650   -2.0949    2.3839 C.ar    1  UNL1        0.1206
      6 C          -2.3155   -2.7684    1.1844 C.ar    1  UNL1        0.0019
      7 C          -3.5254   -3.4814    1.0684 C.ar    1  UNL1       -0.0516
      8 C          -1.2858   -2.7408    0.0470 C.3     1  UNL1        0.0175
      9 H          -0.8147   -1.7474    0.0700 H       1  UNL1        0.0400
     10 C          -1.9881   -2.8152   -1.3362 C.3     1  UNL1       -0.0016
     11 C          -1.1683   -2.4594   -2.5760 C.3     1  UNL1       -0.0306
     12 N          -0.1103   -3.4778   -2.9754 N.4     1  UNL1        0.2388
     13 C          -0.6189   -4.9272   -3.0743 C.3     1  UNL1       -0.0264
     14 C          -1.6996   -5.1497   -4.1239 C.3     1  UNL1       -0.0218
     15 C           0.5361   -5.9161   -3.1885 C.3     1  UNL1       -0.0218
     16 C           0.8402   -2.9983   -4.0915 C.3     1  UNL1       -0.0264
     17 C           0.1368   -2.7214   -5.4148 C.3     1  UNL1       -0.0218
     18 C           1.6139   -1.7559   -3.6342 C.3     1  UNL1       -0.0218
     19 C          -0.1929   -3.7879    0.2686 C.ar    1  UNL1       -0.0397
     20 C          -0.4894   -5.1494    0.3890 C.ar    1  UNL1       -0.0580
     21 C           0.5234   -6.0893    0.6105 C.ar    1  UNL1       -0.0615
     22 C           1.8454   -5.6735    0.7429 C.ar    1  UNL1       -0.0617
     23 C           2.1577   -4.3203    0.6568 C.ar    1  UNL1       -0.0615
     24 C           1.1458   -3.3799    0.4260 C.ar    1  UNL1       -0.0580
     25 O          -0.9125   -1.3668    2.4990 O.3     1  UNL1       -0.5065
     26 H          -5.9182   -4.9500    2.7354 H       1  UNL1        0.0278
     27 H          -6.5983   -3.5053    1.9327 H       1  UNL1        0.0278
     28 H          -5.8065   -4.7703    0.9816 H       1  UNL1        0.0278
     29 H          -4.8835   -2.8523    4.1220 H       1  UNL1        0.0621
     30 H          -2.7594   -1.6472    4.3846 H       1  UNL1        0.0654
     31 H          -3.7669   -4.0315    0.1653 H       1  UNL1        0.0624
     32 H          -2.4892   -3.7743   -1.4869 H       1  UNL1        0.0326
     33 H          -2.8002   -2.0718   -1.3139 H       1  UNL1        0.0326
     34 H          -1.8419   -2.3505   -3.4315 H       1  UNL1        0.0815
     35 H          -0.6747   -1.5010   -2.4053 H       1  UNL1        0.0815
     36 H          -1.0835   -5.1318   -2.1121 H       1  UNL1        0.0846
     37 H          -1.3229   -5.0982   -5.1444 H       1  UNL1        0.0284
     38 H          -2.1172   -6.1573   -4.0081 H       1  UNL1        0.0284
     39 H          -2.5324   -4.4492   -4.0172 H       1  UNL1        0.0284
     40 H           1.4091   -5.5964   -2.6109 H       1  UNL1        0.0284
     41 H           0.2252   -6.8889   -2.7895 H       1  UNL1        0.0284
     42 H           0.8381   -6.0720   -4.2285 H       1  UNL1        0.0284
     43 H           1.5748   -3.7969   -4.2337 H       1  UNL1        0.0846
     44 H          -0.7172   -2.0477   -5.3102 H       1  UNL1        0.0284
     45 H           0.8334   -2.2535   -6.1205 H       1  UNL1        0.0284
     46 H          -0.1935   -3.6392   -5.8996 H       1  UNL1        0.0284
     47 H           2.1658   -1.9476   -2.7095 H       1  UNL1        0.0284
     48 H           2.3408   -1.4622   -4.4004 H       1  UNL1        0.0284
     49 H           0.9662   -0.8871   -3.4812 H       1  UNL1        0.0284
     50 H          -1.5177   -5.5056    0.3412 H       1  UNL1        0.0620
     51 H           0.2743   -7.1395    0.7255 H       1  UNL1        0.0618
     52 H           2.6253   -6.4025    0.9548 H       1  UNL1        0.0618
     53 H           3.1811   -3.9935    0.8217 H       1  UNL1        0.0618
     54 H           1.4119   -2.3243    0.4268 H       1  UNL1        0.0620
     55 H          -1.0250   -0.7391    3.2325 H       1  UNL1        0.2921
     56 H           0.5095   -3.5238   -2.1534 H       1  UNL1        0.2038
@<TRIPOS>UNITY_ATOM_ATTR
12 1
charge 1
@<TRIPOS>BOND
     1     1     2    1
     2     1    26    1
     3     1    27    1
     4     1    28    1
     5     2     7   ar
     6     2     3   ar
     7     3     4   ar
     8     3    29    1
     9     4     5   ar
    10     4    30    1
    11     5     6   ar
    12     5    25    1
    13     6     7   ar
    14     7    31    1
    15     8    10    1
    16     8    19    1
    17    10    11    1
    18    10    32    1
    19    10    33    1
    20    11    12    1
    21    11    34    1
    22    11    35    1
    23    12    13    1
    24    12    16    1
    25    12    56    1
    26    13    14    1
    27    13    15    1
    28    13    36    1
    29    14    37    1
    30    14    38    1
    31    14    39    1
    32    15    40    1
    33    15    41    1
    34    15    42    1
    35    16    17    1
    36    16    18    1
    37    16    43    1
    38    17    44    1
    39    17    45    1
    40    17    46    1
    41    18    47    1
    42    18    48    1
    43    18    49    1
    44    19    24   ar
    45    19    20   ar
    46    20    21   ar
    47    20    50    1
    48    21    22   ar
    49    21    51    1
    50    22    23   ar
    51    22    52    1
    52    23    24   ar
    53    23    53    1
    54    24    54    1
    55    25    55    1
    56     8     9    1
    57     8     6    1
