@<TRIPOS>MOLECULE
ZINC03833821
 54 57 0 0 0
SMALL
GASTEIGER

@<TRIPOS>ATOM
      1 C           6.1068   -9.7802    3.3623 C.3     1  UNL1       -0.0562
      2 C           7.0517   -8.8024    2.5197 C.3     1  UNL1        0.0091
      3 C           6.5436   -7.4060    2.8684 C.3     1  UNL1       -0.0178
      4 C           5.1239   -7.1313    2.4376 C.3     1  UNL1        0.0600
      5 H           5.0189   -6.0444    2.5794 H       1  UNL1        0.0596
      6 C           4.9994   -7.4502    0.9212 C.3     1  UNL1        0.0007
      7 H           5.7626   -6.7596    0.5122 H       1  UNL1        0.0340
      8 C           5.5460   -8.8881    0.4310 C.3     1  UNL1       -0.0311
      9 H           4.7966   -9.6700    0.5667 H       1  UNL1        0.0308
     10 C           6.9141   -9.3158    1.0928 C.3     1  UNL1       -0.0292
     11 H           7.6078   -8.8024    0.4141 H       1  UNL1        0.0310
     12 C           7.6670  -10.7547    1.3697 C.3     1  UNL1       -0.0463
     13 C           8.6674  -10.4816    2.6803 C.3     1  UNL1       -0.0162
     14 C           8.6512   -8.9732    2.6437 C.3     1  UNL1        0.1315
     15 C           9.4781   -7.7359    3.0508 C.2     1  UNL1        0.1902
     16 O           9.1495   -6.5746    2.7291 O.2     1  UNL1       -0.2919
     17 C          10.8991   -7.8509    3.5566 C.3     1  UNL1        0.1052
     18 O          11.3988   -6.5404    3.8165 O.3     1  UNL1       -0.3874
     19 O           9.4216   -8.8369    1.3229 O.3     1  UNL1       -0.3804
     20 C           5.7872   -8.6176   -1.0914 C.3     1  UNL1       -0.0458
     21 C           4.5235   -8.2325   -1.8602 C.3     1  UNL1       -0.0302
     22 C           3.5907   -7.2478   -1.2058 C.2     1  UNL1       -0.0559
     23 C           2.8559   -6.4573   -2.0155 C.2     1  UNL1       -0.0149
     24 C           3.0971   -4.9822   -1.7771 C.2     1  UNL1        0.1787
     25 O           2.7194   -4.1284   -2.5712 O.2     1  UNL1       -0.2879
     26 C           3.7236   -4.5990   -0.4993 C.2     1  UNL1       -0.0180
     27 C           3.5521   -5.4743    0.5232 C.2     1  UNL1       -0.0701
     28 C           3.6503   -6.9925    0.2941 C.3     1  UNL1        0.0131
     29 C           2.4216   -7.6605    0.9473 C.3     1  UNL1       -0.0520
     30 O           4.1722   -7.6708    3.3292 O.3     1  UNL1       -0.3914
     31 H           6.2265  -10.8609    3.2260 H       1  UNL1        0.0236
     32 H           6.1629   -9.5897    4.4347 H       1  UNL1        0.0236
     33 H           5.0560   -9.6947    3.0424 H       1  UNL1        0.0236
     34 H           6.6163   -7.2990    3.9520 H       1  UNL1        0.0297
     35 H           7.1181   -6.6341    2.4180 H       1  UNL1        0.0297
     36 H           7.0045  -11.6055    1.5790 H       1  UNL1        0.0269
     37 H           8.3101  -11.0536    0.5338 H       1  UNL1        0.0269
     38 H           9.6462  -10.9591    2.5892 H       1  UNL1        0.0297
     39 H           8.2503  -10.8477    3.6308 H       1  UNL1        0.0297
     40 H          10.9257   -8.4389    4.4694 H       1  UNL1        0.0637
     41 H          11.5308   -8.2879    2.7743 H       1  UNL1        0.0637
     42 H          10.8872   -5.9455    3.1858 H       1  UNL1        0.2100
     43 H          10.1865   -9.4471    1.3223 H       1  UNL1        0.2108
     44 H           6.2619   -9.4813   -1.5745 H       1  UNL1        0.0271
     45 H           6.5044   -7.7940   -1.2002 H       1  UNL1        0.0271
     46 H           3.9581   -9.1431   -2.0745 H       1  UNL1        0.0310
     47 H           4.8460   -7.8236   -2.8310 H       1  UNL1        0.0310
     48 H           1.7737   -6.4432   -1.7946 H       1  UNL1        0.0655
     49 H           4.7571   -4.3015   -0.6980 H       1  UNL1        0.0653
     50 H           3.5557   -5.0883    1.5293 H       1  UNL1        0.0582
     51 H           2.2430   -7.2869    1.9536 H       1  UNL1        0.0241
     52 H           1.5065   -7.4459    0.3894 H       1  UNL1        0.0241
     53 H           2.5451   -8.7465    0.9843 H       1  UNL1        0.0241
     54 H           3.6770   -8.3955    2.9122 H       1  UNL1        0.2098
@<TRIPOS>BOND
     1     1    31    1
     2     1    32    1
     3     1    33    1
     4     2     1    1
     5     2    10    1
     6     2    14    1
     7     2     3    1
     8     3     4    1
     9     3    34    1
    10     3    35    1
    11     4     6    1
    12     6     7    1
    13     6    28    1
    14     6     8    1
    15     8     9    1
    16     8    10    1
    17     8    20    1
    18    10    11    1
    19    10    12    1
    20    12    13    1
    21    12    36    1
    22    12    37    1
    23    13    14    1
    24    13    38    1
    25    13    39    1
    26    15    16    2
    27    15    17    1
    28    17    18    1
    29    17    40    1
    30    17    41    1
    31    18    42    1
    32    19    43    1
    33    20    21    1
    34    20    44    1
    35    20    45    1
    36    21    22    1
    37    21    46    1
    38    21    47    1
    39    22    28    1
    40    22    23    2
    41    23    24    1
    42    23    48    1
    43    24    25    2
    44    24    26    1
    45    26    27    2
    46    26    49    1
    47    27    28    1
    48    27    50    1
    49    28    29    1
    50    29    51    1
    51    29    52    1
    52    29    53    1
    53    30    54    1
    54     4    30    1
    55     4     5    1
    56    14    19    1
    57    14    15    1
