@<TRIPOS>MOLECULE
ZINC00896487
 32 34 0 0 0
SMALL
GASTEIGER

@<TRIPOS>ATOM
      1 C           1.2289   -0.4539   -0.1423 C.ar    1  UNL1       -0.0617
      2 C           0.8339    0.5545    0.7359 C.ar    1  UNL1       -0.0611
      3 C          -0.5267    0.7989    0.9707 C.ar    1  UNL1       -0.0526
      4 C          -1.5073    0.0311    0.3259 C.ar    1  UNL1        0.0006
      5 C          -1.0909   -0.9642   -0.5689 C.ar    1  UNL1       -0.0526
      6 C           0.2631   -1.2129   -0.7969 C.ar    1  UNL1       -0.0611
      7 C          -2.9887    0.3334    0.3372 C.2     1  UNL1        0.0760
      8 N          -3.8012   -0.6332    0.0776 N.2     1  UNL1       -0.2585
      9 CA         -5.1571   -0.2781   -0.4482 C.3     1  UNL1        0.2274
     10 HA         -5.6723    0.3904    0.2520 H       1  UNL1        0.0761
     11 C          -5.0457    0.4016   -1.8283 C.2     1  UNL1        0.2530
     12 O          -5.7931    0.1839   -2.7893 O.2     1  UNL1       -0.2725
     13 N          -4.1293    1.4345   -2.0420 N.am    1  UNL1       -0.2827
     14 C          -3.4030    2.1521   -1.0797 C.ar    1  UNL1        0.0428
     15 C          -3.4099    1.7537    0.2534 C.ar    1  UNL1        0.0231
     16 C          -3.1073    2.6460    1.2748 C.ar    1  UNL1       -0.0324
     17 C          -2.3887    3.7848    0.9356 C.ar    1  UNL1        0.0417
     18 C          -2.0459    4.0224   -0.3996 C.ar    1  UNL1       -0.0416
     19 C          -2.6256    3.2506   -1.4189 C.ar    1  UNL1       -0.0385
     20 CL         -1.7892    4.8146    2.1756 Cl      1  UNL1       -0.0835
     21 C          -6.0004   -1.5702   -0.5894 C.2     1  UNL1        0.3890
     22 O          -5.4462   -2.5817   -1.1426 O.co2   1  UNL1       -0.2434
     23 H           2.2826   -0.6460   -0.3219 H       1  UNL1        0.0618
     24 H           1.5888    1.1571    1.2338 H       1  UNL1        0.0618
     25 H          -0.7803    1.5961    1.6592 H       1  UNL1        0.0624
     26 H          -1.8357   -1.5359   -1.1241 H       1  UNL1        0.0624
     27 H           0.5532   -1.9911   -1.4974 H       1  UNL1        0.0618
     28 H          -4.1757    1.7882   -2.9865 H       1  UNL1        0.1549
     29 H          -3.3219    2.3881    2.3075 H       1  UNL1        0.0639
     30 H          -1.3360    4.8049   -0.6512 H       1  UNL1        0.0633
     31 H          -2.4125    3.4797   -2.4587 H       1  UNL1        0.0637
     32 OXT        -7.1650   -1.5067   -0.0781 O.co2   1  UNL1       -0.2434
@<TRIPOS>BOND
     1     1     6   ar
     2     1     2   ar
     3     1    23    1
     4     2     3   ar
     5     2    24    1
     6     3     4   ar
     7     3    25    1
     8     4     5   ar
     9     4     7    1
    10     5     6   ar
    11     5    26    1
    12     6    27    1
    13     7    15    1
    14     7     8    2
    15     8     9    1
    16     9    10    1
    17     9    11    1
    18     9    21    1
    19    11    12    2
    20    11    13   am
    21    13    14    1
    22    13    28    1
    23    14    19   ar
    24    14    15   ar
    25    15    16   ar
    26    16    17   ar
    27    16    29    1
    28    17    18   ar
    29    17    20    1
    30    18    19   ar
    31    18    30    1
    32    19    31    1
    33    21    22   ar
    34    21    32   ar
