@<TRIPOS>MOLECULE
ZINC00020250
 41 43 0 0 0
SMALL
GASTEIGER

@<TRIPOS>ATOM
      1 C          -1.5732    0.2407    1.6832 C.3     1  UNL1       -0.0201
      2 C          -1.8081   -1.0551    0.9029 C.3     1  UNL1       -0.0078
      3 H          -2.8814   -1.1193    0.6927 H       1  UNL1        0.0864
      4 C          -0.9960   -1.0723   -0.4355 C.3     1  UNL1        0.0599
      5 N          -1.5508   -0.1076   -1.4180 N.pl3   1  UNL1       -0.2929
      6 C          -0.8053    1.0497   -1.7593 C.ar    1  UNL1        0.0480
      7 C           0.5810    0.9958   -1.9805 C.ar    1  UNL1       -0.0393
      8 C           1.2840    2.1024   -2.4805 C.ar    1  UNL1       -0.0599
      9 C           0.6193    3.2899   -2.7679 C.ar    1  UNL1       -0.0606
     10 C          -0.7468    3.3829   -2.5296 C.ar    1  UNL1       -0.0462
     11 C          -1.4525    2.2794   -2.0276 C.ar    1  UNL1        0.0341
     12 S          -3.1952    2.5030   -1.7154 S.3     1  UNL1       -0.0857
     13 C          -3.7621    0.8353   -1.9755 C.ar    1  UNL1        0.0341
     14 C          -2.9104   -0.2761   -1.7986 C.ar    1  UNL1        0.0480
     15 C          -3.4422   -1.5496   -2.0630 C.ar    1  UNL1       -0.0393
     16 C          -4.7780   -1.7187   -2.4482 C.ar    1  UNL1       -0.0599
     17 C          -5.6085   -0.6112   -2.5791 C.ar    1  UNL1       -0.0606
     18 C          -5.1025    0.6623   -2.3477 C.ar    1  UNL1       -0.0462
     19 N          -1.5727   -2.2738    1.8243 N.4     1  UNL1        0.2340
     20 C          -1.7643   -3.6069    1.1483 C.3     1  UNL1       -0.0430
     21 C          -0.3298   -2.2632    2.6704 C.3     1  UNL1       -0.0430
     22 H          -2.1070    1.0699    1.2093 H       1  UNL1        0.0285
     23 H          -0.5113    0.5047    1.7095 H       1  UNL1        0.0285
     24 H          -1.9374    0.1706    2.7119 H       1  UNL1        0.0285
     25 H           0.0549   -0.8682   -0.1993 H       1  UNL1        0.0524
     26 H          -0.9949   -2.0714   -0.8834 H       1  UNL1        0.0524
     27 H           1.1373    0.0722   -1.8468 H       1  UNL1        0.0636
     28 H           2.3497    2.0251   -2.6825 H       1  UNL1        0.0618
     29 H           1.1557    4.1345   -3.1920 H       1  UNL1        0.0618
     30 H          -1.2630    4.3133   -2.7577 H       1  UNL1        0.0629
     31 H          -2.8129   -2.4337   -2.0431 H       1  UNL1        0.0636
     32 H          -5.1633   -2.7063   -2.6733 H       1  UNL1        0.0618
     33 H          -6.6453   -0.7325   -2.8879 H       1  UNL1        0.0618
     34 H          -5.7537    1.5251   -2.4735 H       1  UNL1        0.0629
     35 H          -0.8286   -3.8886    0.6575 H       1  UNL1        0.0777
     36 H          -2.0253   -4.3358    1.9217 H       1  UNL1        0.0777
     37 H          -2.5809   -3.5238    0.4290 H       1  UNL1        0.0777
     38 H          -0.4002   -1.4357    3.3820 H       1  UNL1        0.0777
     39 H          -0.3030   -3.2030    3.2376 H       1  UNL1        0.0777
     40 H           0.5395   -2.1721    2.0247 H       1  UNL1        0.0777
     41 H          -2.3506   -2.2161    2.4974 H       1  UNL1        0.2031
@<TRIPOS>UNITY_ATOM_ATTR
19 1
charge 1
@<TRIPOS>BOND
     1     1     2    1
     2     1    22    1
     3     1    23    1
     4     1    24    1
     5     2     3    1
     6     2     4    1
     7     2    19    1
     8     4     5    1
     9     4    25    1
    10     4    26    1
    11     5    14    1
    12     5     6    1
    13     6    11   ar
    14     6     7   ar
    15     7     8   ar
    16     7    27    1
    17     8     9   ar
    18     8    28    1
    19     9    10   ar
    20     9    29    1
    21    10    11   ar
    22    10    30    1
    23    11    12    1
    24    12    13    1
    25    13    18   ar
    26    13    14   ar
    27    14    15   ar
    28    15    16   ar
    29    15    31    1
    30    16    17   ar
    31    16    32    1
    32    17    18   ar
    33    17    33    1
    34    18    34    1
    35    19    20    1
    36    19    21    1
    37    19    41    1
    38    20    35    1
    39    20    36    1
    40    20    37    1
    41    21    38    1
    42    21    39    1
    43    21    40    1
