@<TRIPOS>MOLECULE
ZINC00000257
 47 47 0 0 0
SMALL
GASTEIGER

@<TRIPOS>ATOM
      1 C          -0.3513    1.8234   -5.0902 C.3     1  UNL1       -0.0219
      2 C           1.1160    1.4193   -5.0153 C.3     1  UNL1       -0.0283
      3 C           1.8190    1.7191   -6.3371 C.3     1  UNL1       -0.0219
      4 C           0.6189   -0.5956   -3.4771 C.3     1  UNL1       -0.0035
      5 C           0.9534   -2.0931   -3.4240 C.3     1  UNL1        0.1285
      6 H           0.4992   -2.5833   -4.2937 H       1  UNL1        0.0681
      7 C           0.4598   -2.7898   -2.1526 C.3     1  UNL1        0.1204
      8 O          -0.9434   -2.5942   -1.9675 O.3     1  UNL1       -0.4892
      9 C          -1.4454   -3.1679   -0.8218 C.ar    1  UNL1        0.1206
     10 C          -2.6123   -2.6038   -0.3004 C.ar    1  UNL1       -0.0197
     11 C          -3.1481   -3.0657    0.9130 C.ar    1  UNL1       -0.0551
     12 C          -2.5345   -4.1143    1.6092 C.ar    1  UNL1       -0.0466
     13 C          -1.4070   -4.7181    1.0429 C.ar    1  UNL1       -0.0551
     14 C          -0.8720   -4.2554   -0.1613 C.ar    1  UNL1       -0.0197
     15 C          -2.9812   -4.5411    2.9884 C.3     1  UNL1       -0.0176
     16 C          -4.4364   -4.9862    3.1012 C.3     1  UNL1        0.0489
     17 C          -4.7304   -5.4146    4.5202 C.2     1  UNL1        0.3071
     18 O          -3.8856   -5.7549    5.3386 O.2     1  UNL1       -0.2509
     19 O          -6.0715   -5.3807    4.7485 O.3     1  UNL1       -0.4679
     20 C          -6.4708   -5.7688    6.0667 C.3     1  UNL1        0.0817
     21 O           2.3811   -2.2037   -3.5695 O.3     1  UNL1       -0.3831
     22 H          -0.4501    2.8675   -5.4058 H       1  UNL1        0.0284
     23 H          -0.8380    1.7361   -4.1140 H       1  UNL1        0.0284
     24 H          -0.9029    1.2019   -5.8044 H       1  UNL1        0.0284
     25 H           1.6237    1.9349   -4.1932 H       1  UNL1        0.0845
     26 H           1.7677    2.7892   -6.5674 H       1  UNL1        0.0284
     27 H           2.8761    1.4367   -6.2994 H       1  UNL1        0.0284
     28 H           1.3541    1.1787   -7.1701 H       1  UNL1        0.0284
     29 H           1.0955   -0.0479   -2.6576 H       1  UNL1        0.0841
     30 H          -0.4563   -0.4123   -3.5056 H       1  UNL1        0.0841
     31 H           0.6821   -3.8555   -2.2814 H       1  UNL1        0.0725
     32 H           1.0181   -2.4187   -1.2840 H       1  UNL1        0.0725
     33 H          -3.1004   -1.7792   -0.8128 H       1  UNL1        0.0654
     34 H          -4.0298   -2.5752    1.3215 H       1  UNL1        0.0621
     35 H          -0.9150   -5.5462    1.5506 H       1  UNL1        0.0621
     36 H           0.0009   -4.7738   -0.5399 H       1  UNL1        0.0654
     37 H          -2.3358   -5.3603    3.3336 H       1  UNL1        0.0318
     38 H          -2.7900   -3.7081    3.6777 H       1  UNL1        0.0318
     39 H          -5.1042   -4.1586    2.8381 H       1  UNL1        0.0381
     40 H          -4.6422   -5.8299    2.4337 H       1  UNL1        0.0381
     41 H          -5.8644   -6.5915    6.4586 H       1  UNL1        0.0661
     42 H          -6.4163   -4.9031    6.7331 H       1  UNL1        0.0661
     43 H          -7.5092   -6.1078    6.0175 H       1  UNL1        0.0661
     44 H           2.6656   -3.0667   -3.2070 H       1  UNL1        0.2102
     45 N           1.2314   -0.0514   -4.7543 N.4     1  UNL1        0.2307
     46 H           0.8622   -0.5790   -5.5558 H       1  UNL1        0.2017
     47 H           2.2293   -0.3274   -4.7049 H       1  UNL1        0.2017
@<TRIPOS>UNITY_ATOM_ATTR
45 1
charge 1
@<TRIPOS>BOND
     1     1     2    1
     2     1    22    1
     3     1    23    1
     4     1    24    1
     5     2     3    1
     6     2    25    1
     7     2    45    1
     8     3    26    1
     9     3    27    1
    10     3    28    1
    11     4    29    1
    12     4    30    1
    13     4    45    1
    14     5     7    1
    15     5    21    1
    16     7     8    1
    17     7    31    1
    18     7    32    1
    19     8     9    1
    20     9    14   ar
    21     9    10   ar
    22    10    11   ar
    23    10    33    1
    24    11    12   ar
    25    11    34    1
    26    12    13   ar
    27    12    15    1
    28    13    14   ar
    29    13    35    1
    30    14    36    1
    31    15    16    1
    32    15    37    1
    33    15    38    1
    34    16    17    1
    35    16    39    1
    36    16    40    1
    37    17    18    2
    38    17    19    1
    39    19    20    1
    40    20    41    1
    41    20    42    1
    42    20    43    1
    43    21    44    1
    44    45    46    1
    45    45    47    1
    46     5     6    1
    47     5     4    1
