@<TRIPOS>MOLECULE
ZINC00403533
 45 49 0 0 0
SMALL
GASTEIGER

@<TRIPOS>ATOM
      1 C           3.4820   -4.5415   -1.3523 C.3     1  UNL1       -0.0427
      2 C           1.0658   -4.2975   -1.9134 C.3     1  UNL1       -0.0307
      3 C          -0.2103   -3.4919   -1.6738 C.3     1  UNL1        0.0039
      4 C          -0.4612   -3.2161   -0.1668 C.3     1  UNL1        0.0820
      5 C          -0.6575   -4.5458    0.4838 C.ar    1  UNL1        0.0146
      6 C           0.3374   -5.3664    0.9805 C.ar    1  UNL1       -0.0343
      7 C          -0.0154   -6.6874    1.2309 C.ar    1  UNL1       -0.0544
      8 C          -1.3236   -7.1280    0.9393 C.ar    1  UNL1       -0.0160
      9 C          -2.3305   -6.2467    0.5004 C.ar    1  UNL1        0.1618
     10 C          -1.9812   -4.9243    0.3409 C.ar    1  UNL1        0.1671
     11 O          -2.7537   -3.8547   -0.0626 O.3     1  UNL1       -0.4764
     12 C          -1.8827   -2.6992    0.0815 C.3     1  UNL1        0.1704
     13 H          -2.1771   -1.9538   -0.6696 H       1  UNL1        0.0824
     14 C          -2.0016   -2.0150    1.4538 C.2     1  UNL1        0.1745
     15 O          -2.9741   -2.1536    2.1906 O.2     1  UNL1       -0.2934
     16 C          -0.8654   -1.0850    1.8272 C.3     1  UNL1        0.0124
     17 C           0.4585   -1.8480    1.8028 C.3     1  UNL1       -0.0109
     18 C           0.7382   -2.4622    0.4228 C.3     1  UNL1        0.1225
     19 C           1.9389   -3.4783    0.4070 C.3     1  UNL1        0.0133
     20 H           2.8508   -2.9801    0.7617 H       1  UNL1        0.0883
     21 C           1.6935   -4.7758    1.2246 C.3     1  UNL1        0.0187
     22 O           1.1389   -1.3984   -0.4761 O.3     1  UNL1       -0.3819
     23 O          -3.5269   -6.8345    0.2237 O.3     1  UNL1       -0.4914
     24 C          -4.6295   -5.9619    0.0070 C.3     1  UNL1        0.0790
     25 H           4.3220   -3.9650   -0.9586 H       1  UNL1        0.0778
     26 H           3.5907   -4.6754   -2.4327 H       1  UNL1        0.0778
     27 H           3.4045   -5.5153   -0.8681 H       1  UNL1        0.0778
     28 H           0.9440   -5.3575   -1.6695 H       1  UNL1        0.0815
     29 H           1.3521   -4.2242   -2.9685 H       1  UNL1        0.0815
     30 H          -0.1585   -2.5423   -2.2214 H       1  UNL1        0.0328
     31 H          -1.0458   -4.0386   -2.1310 H       1  UNL1        0.0328
     32 H           0.7077   -7.4056    1.6122 H       1  UNL1        0.0622
     33 H          -1.5677   -8.1832    1.0665 H       1  UNL1        0.0655
     34 H          -0.8673   -0.2384    1.1314 H       1  UNL1        0.0344
     35 H          -1.0432   -0.6829    2.8307 H       1  UNL1        0.0344
     36 H           1.2651   -1.1536    2.0698 H       1  UNL1        0.0299
     37 H           0.4262   -2.6229    2.5761 H       1  UNL1        0.0299
     38 H           1.7540   -4.5244    2.2937 H       1  UNL1        0.0369
     39 H           2.4732   -5.5178    1.0416 H       1  UNL1        0.0369
     40 H           0.4798   -0.6780   -0.4719 H       1  UNL1        0.2105
     41 H          -4.5084   -5.3828   -0.9141 H       1  UNL1        0.0660
     42 H          -4.7875   -5.3140    0.8746 H       1  UNL1        0.0660
     43 H          -5.5224   -6.5819   -0.1155 H       1  UNL1        0.0660
     44 N           2.2251   -3.7646   -1.0997 N.4     1  UNL1        0.2375
     45 H           2.3836   -2.8106   -1.4704 H       1  UNL1        0.2034
@<TRIPOS>UNITY_ATOM_ATTR
44 1
charge 1
@<TRIPOS>BOND
     1     1    25    1
     2     1    26    1
     3     1    27    1
     4     1    44    1
     5     2     3    1
     6     2    28    1
     7     2    29    1
     8     2    44    1
     9     3     4    1
    10     3    30    1
    11     3    31    1
    12     4    12    1
    13     4    18    1
    14     4     5    1
    15     5    10   ar
    16     5     6   ar
    17     6    21    1
    18     6     7   ar
    19     7     8   ar
    20     7    32    1
    21     8     9   ar
    22     8    33    1
    23     9    10   ar
    24     9    23    1
    25    10    11    1
    26    11    12    1
    27    12    13    1
    28    12    14    1
    29    14    15    2
    30    14    16    1
    31    16    17    1
    32    16    34    1
    33    16    35    1
    34    17    18    1
    35    17    36    1
    36    17    37    1
    37    18    19    1
    38    18    22    1
    39    19    20    1
    40    19    21    1
    41    19    44    1
    42    21    38    1
    43    21    39    1
    44    22    40    1
    45    23    24    1
    46    24    41    1
    47    24    42    1
    48    24    43    1
    49    44    45    1
