@<TRIPOS>MOLECULE
ZINC03814395
 51 54 0 0 0
SMALL
GASTEIGER

@<TRIPOS>ATOM
      1 C          -3.2330    0.7970    1.8373 C.3     1  UNL1       -0.0646
      2 C          -2.2199    0.3181    0.8759 C.3     1  UNL1       -0.0464
      3 C          -2.7055   -1.1902   -0.1108 C.3     1  UNL1        0.0136
      4 C          -3.3740   -2.3806    0.5105 C.3     1  UNL1       -0.0433
      5 C          -2.7769   -2.7596    1.8493 C.3     1  UNL1       -0.0488
      6 C          -1.3281   -3.0348    1.6114 C.3     1  UNL1       -0.0314
      7 H          -1.3258   -3.9446    0.9723 H       1  UNL1        0.0309
      8 C          -0.6260   -1.8686    0.6600 C.3     1  UNL1       -0.0339
      9 H          -0.2393   -1.1178    1.3401 H       1  UNL1        0.0307
     10 C          -1.4252   -0.8166   -0.5857 C.3     1  UNL1       -0.0286
     11 H          -0.9388   -1.3323   -1.4238 H       1  UNL1        0.0310
     12 C          -3.2421    0.1295   -1.0519 C.3     1  UNL1       -0.0458
     13 C          -4.1906   -0.6277   -1.9567 C.3     1  UNL1       -0.0118
     14 C          -2.8908   -1.1955   -1.9790 C.3     1  UNL1        0.1319
     15 C          -1.9875   -0.2693   -2.7769 C.1     1  UNL1       -0.0704
     16 C          -1.2127    0.5252   -3.4614 C.1     1  UNL1       -0.1163
     17 O          -2.8907   -2.4931   -2.5483 O.3     1  UNL1       -0.3760
     18 C           0.7821   -2.5440    0.2481 C.3     1  UNL1       -0.0460
     19 C           1.4871   -3.1724    1.4857 C.3     1  UNL1       -0.0308
     20 C           0.5609   -4.2177    2.1338 C.2     1  UNL1       -0.0629
     21 C           0.7250   -5.5465    2.6044 C.2     1  UNL1       -0.0197
     22 C           1.7451   -5.5804    3.7307 C.2     1  UNL1        0.1561
     23 O           2.3125   -6.6584    4.2642 O.2     1  UNL1       -0.2927
     24 C           1.8585   -4.2209    4.2139 C.3     1  UNL1        0.0104
     25 C           0.1329   -3.7860    4.2451 C.3     1  UNL1       -0.0392
     26 C          -0.3626   -3.2385    2.8747 C.3     1  UNL1       -0.0160
     27 H          -0.1434   -2.1778    3.0852 H       1  UNL1        0.0349
     28 H          -2.9653    1.8110    2.1535 H       1  UNL1        0.0230
     29 H          -3.2622    0.1068    2.6637 H       1  UNL1        0.0230
     30 H          -4.2186    0.8843    1.3761 H       1  UNL1        0.0230
     31 H          -2.0123    1.2159    0.2158 H       1  UNL1        0.0269
     32 H          -1.2453    0.3154    1.3496 H       1  UNL1        0.0269
     33 H          -4.4381   -2.1451    0.6534 H       1  UNL1        0.0272
     34 H          -3.3692   -3.2401   -0.1770 H       1  UNL1        0.0272
     35 H          -2.9007   -1.9672    2.5783 H       1  UNL1        0.0268
     36 H          -3.2871   -3.6515    2.2273 H       1  UNL1        0.0268
     37 H          -3.1015    1.1763   -1.4103 H       1  UNL1        0.0269
     38 H          -4.0086    0.2615   -0.2869 H       1  UNL1        0.0269
     39 H          -4.5131   -0.2245   -2.9145 H       1  UNL1        0.0303
     40 H          -4.9235   -1.3296   -1.5462 H       1  UNL1        0.0303
     41 H          -0.5764    1.1721   -4.0201 H       1  UNL1        0.1229
     42 H          -3.1105   -2.3737   -3.4909 H       1  UNL1        0.2114
     43 H           1.4696   -1.8099   -0.1725 H       1  UNL1        0.0271
     44 H           0.6537   -3.3743   -0.4516 H       1  UNL1        0.0271
     45 H           1.6361   -2.3343    2.2025 H       1  UNL1        0.0310
     46 H           2.4984   -3.5286    1.3050 H       1  UNL1        0.0310
     47 H          -0.0858   -6.0863    3.1553 H       1  UNL1        0.0652
     48 H           2.5996   -3.4153    4.4376 H       1  UNL1        0.0345
     49 H           2.4371   -4.1317    3.2614 H       1  UNL1        0.0345
     50 H          -0.0571   -3.3570    5.2423 H       1  UNL1        0.0275
     51 H          -0.5468   -4.6404    4.3619 H       1  UNL1        0.0275
@<TRIPOS>BOND
     1     1     2    1
     2     1    28    1
     3     1    29    1
     4     1    30    1
     5     2    31    1
     6     2    32    1
     7     3     2    1
     8     3    10    1
     9     3    14    1
    10     3     4    1
    11     4     5    1
    12     4    33    1
    13     4    34    1
    14     5     6    1
    15     5    35    1
    16     5    36    1
    17     6     7    1
    18     6    26    1
    19     6     8    1
    20     8     9    1
    21     8    10    1
    22     8    18    1
    23    10    11    1
    24    10    12    1
    25    12    13    1
    26    12    37    1
    27    12    38    1
    28    13    14    1
    29    13    39    1
    30    13    40    1
    31    14    15    1
    32    14    17    1
    33    15    16    3
    34    16    41    1
    35    17    42    1
    36    18    19    1
    37    18    43    1
    38    18    44    1
    39    19    20    1
    40    19    45    1
    41    19    46    1
    42    20    26    1
    43    20    21    2
    44    21    22    1
    45    21    47    1
    46    22    23    2
    47    22    24    1
    48    24    25    1
    49    24    48    1
    50    24    49    1
    51    25    26    1
    52    25    50    1
    53    25    51    1
    54    26    27    1
