@<TRIPOS>MOLECULE
ZINC00002232
 38 39 0 0 0
SMALL
GASTEIGER

@<TRIPOS>ATOM
      1 C           2.5563   -0.0729   -0.1805 C.3     1  UNL1       -0.0396
      2 C           1.0561   -0.0273   -0.1548 C.ar    1  UNL1       -0.0470
      3 C           0.3318   -1.2175   -0.0924 C.ar    1  UNL1       -0.0583
      4 C          -1.0616   -1.1921   -0.0490 C.ar    1  UNL1       -0.0546
      5 C          -1.7687    0.0238   -0.0501 C.ar    1  UNL1       -0.0031
      6 C          -1.0351    1.2246   -0.0897 C.ar    1  UNL1        0.1250
      7 C           0.3651    1.1908   -0.1696 C.ar    1  UNL1       -0.0167
      8 O          -1.7406    2.3897    0.0780 O.3     1  UNL1       -0.4797
      9 C          -1.2778    3.5489   -0.6221 C.3     1  UNL1        0.1871
     10 C          -0.3996    4.3837    0.2390 C.2     1  UNL1        0.2767
     11 C           0.9439    6.1096    0.9106 C.3     1  UNL1        0.1198
     12 C           0.8347    5.0684    2.0428 C.3     1  UNL1        0.1150
     13 N          -0.0122    4.0271    1.4491 N.pl3   1  UNL1       -0.2341
     14 C          -3.2935    0.0092   -0.0372 C.3     1  UNL1       -0.0181
     15 C          -3.8580   -0.7447   -1.2488 C.3     1  UNL1       -0.0585
     16 C          -3.8403   -0.5751    1.2672 C.3     1  UNL1       -0.0585
     17 H           2.9303   -0.6107    0.6972 H       1  UNL1        0.0278
     18 H           2.9052   -0.5752   -1.0878 H       1  UNL1        0.0278
     19 H           2.9889    0.9329   -0.1608 H       1  UNL1        0.0278
     20 H           0.8465   -2.1766   -0.0748 H       1  UNL1        0.0620
     21 H          -1.5937   -2.1412   -0.0073 H       1  UNL1        0.0622
     22 H           0.9531    2.0997   -0.2126 H       1  UNL1        0.0657
     23 H          -0.7939    3.2928   -1.5715 H       1  UNL1        0.0823
     24 H          -2.1698    4.1381   -0.8657 H       1  UNL1        0.0823
     25 H           0.5803    7.0935    1.2177 H       1  UNL1        0.0782
     26 H           1.9654    6.1866    0.5301 H       1  UNL1        0.0782
     27 H           1.8085    4.6512    2.3139 H       1  UNL1        0.0764
     28 H           0.3394    5.4787    2.9264 H       1  UNL1        0.0764
     29 H          -0.3306    3.1410    1.8379 H       1  UNL1        0.2911
     30 H          -3.6711    1.0355   -0.1118 H       1  UNL1        0.0345
     31 H          -3.5961   -1.8086   -1.2331 H       1  UNL1        0.0235
     32 H          -4.9511   -0.6767   -1.2703 H       1  UNL1        0.0235
     33 H          -3.4772   -0.3216   -2.1848 H       1  UNL1        0.0235
     34 H          -3.4638   -0.0187    2.1322 H       1  UNL1        0.0235
     35 H          -4.9345   -0.5211    1.2835 H       1  UNL1        0.0235
     36 H          -3.5586   -1.6255    1.3973 H       1  UNL1        0.0235
     37 N           0.0773    5.5555   -0.1396 N.2     1  UNL1       -0.2729
     38 H          -0.1528    5.9600   -1.0428 H       1  UNL1        0.3037
@<TRIPOS>BOND
     1     1     2    1
     2     1    17    1
     3     1    18    1
     4     1    19    1
     5     2     7   ar
     6     2     3   ar
     7     3     4   ar
     8     3    20    1
     9     4     5   ar
    10     4    21    1
    11     5     6   ar
    12     5    14    1
    13     6     7   ar
    14     6     8    1
    15     7    22    1
    16     8     9    1
    17     9    10    1
    18     9    23    1
    19     9    24    1
    20    10    13    1
    21    10    37    2
    22    11    12    1
    23    11    25    1
    24    11    26    1
    25    11    37    1
    26    12    13    1
    27    12    27    1
    28    12    28    1
    29    13    29    1
    30    14    15    1
    31    14    16    1
    32    14    30    1
    33    15    31    1
    34    15    32    1
    35    15    33    1
    36    16    34    1
    37    16    35    1
    38    16    36    1
    39    37    38    1
