@<TRIPOS>MOLECULE
ZINC01530567
 52 53 0 0 0
SMALL
GASTEIGER

@<TRIPOS>ATOM
      1 C           2.4197   -1.3738   -0.2847 C.3     1  UNL1       -0.0219
      2 C           3.3770   -1.0830   -1.4392 C.3     1  UNL1       -0.0283
      3 C           4.6269   -1.9433   -1.3173 C.3     1  UNL1       -0.0219
      4 N           2.7008   -1.3597   -2.7585 N.4     1  UNL1        0.2307
      5 C           1.5278   -0.4543   -3.0228 C.3     1  UNL1       -0.0035
      6 C           0.8557   -0.7496   -4.3721 C.3     1  UNL1        0.1285
      7 H           0.5264   -1.7936   -4.4028 H       1  UNL1        0.0681
      8 C          -0.3530    0.1925   -4.5095 C.3     1  UNL1        0.1204
      9 O          -1.2708   -0.0720   -3.4307 O.3     1  UNL1       -0.4892
     10 C          -1.6860    1.0698   -2.7963 C.ar    1  UNL1        0.1206
     11 C          -2.1094    2.1904   -3.4961 C.ar    1  UNL1       -0.0197
     12 C          -2.3426    3.3925   -2.8151 C.ar    1  UNL1       -0.0550
     13 C          -2.1599    3.4746   -1.4306 C.ar    1  UNL1       -0.0450
     14 C          -1.8814    2.2898   -0.7258 C.ar    1  UNL1       -0.0550
     15 C          -1.6537    1.0896   -1.4065 C.ar    1  UNL1       -0.0197
     16 C          -2.2261    4.7794   -0.6593 C.3     1  UNL1       -0.0041
     17 C          -2.2853    6.0828   -1.4676 C.3     1  UNL1        0.0516
     18 O          -3.5733    6.2548   -2.0626 O.3     1  UNL1       -0.3792
     19 C          -3.6180    7.4397   -2.8607 C.3     1  UNL1        0.0505
     20 C          -4.9620    7.5457   -3.5112 C.3     1  UNL1       -0.0175
     21 C          -5.0651    7.8790   -4.9813 C.3     1  UNL1       -0.0478
     22 C          -5.4388    6.5059   -4.4963 C.3     1  UNL1       -0.0478
     23 O           1.8179   -0.5540   -5.4100 O.3     1  UNL1       -0.3831
     24 H           2.0433   -2.4036   -0.3251 H       1  UNL1        0.0284
     25 H           1.5592   -0.6981   -0.2813 H       1  UNL1        0.0284
     26 H           2.9231   -1.2351    0.6776 H       1  UNL1        0.0284
     27 H           3.6608   -0.0249   -1.4477 H       1  UNL1        0.0845
     28 H           4.3816   -3.0096   -1.2650 H       1  UNL1        0.0284
     29 H           5.3081   -1.7847   -2.1588 H       1  UNL1        0.0284
     30 H           5.1679   -1.6832   -0.3995 H       1  UNL1        0.0284
     31 H           3.3602   -1.2210   -3.5434 H       1  UNL1        0.2017
     32 H           0.8198   -0.5977   -2.2083 H       1  UNL1        0.0841
     33 H           1.9314    0.5657   -3.0090 H       1  UNL1        0.0841
     34 H           0.0242    1.2257   -4.5116 H       1  UNL1        0.0725
     35 H          -0.8692    0.0308   -5.4588 H       1  UNL1        0.0725
     36 H          -2.2555    2.1658   -4.5709 H       1  UNL1        0.0654
     37 H          -2.6496    4.2614   -3.3929 H       1  UNL1        0.0621
     38 H          -1.8198    2.3081    0.3617 H       1  UNL1        0.0621
     39 H          -1.4254    0.1896   -0.8397 H       1  UNL1        0.0654
     40 H          -3.0740    4.7341    0.0329 H       1  UNL1        0.0335
     41 H          -1.3034    4.8289   -0.0637 H       1  UNL1        0.0335
     42 H          -2.1059    6.9252   -0.7894 H       1  UNL1        0.0563
     43 H          -1.5072    6.0937   -2.2408 H       1  UNL1        0.0563
     44 H          -3.4507    8.3157   -2.2235 H       1  UNL1        0.0562
     45 H          -2.8234    7.3991   -3.6144 H       1  UNL1        0.0562
     46 H          -5.7037    7.9542   -2.8349 H       1  UNL1        0.0323
     47 H          -5.8625    8.5431   -5.2979 H       1  UNL1        0.0269
     48 H          -4.1556    7.9736   -5.5638 H       1  UNL1        0.0269
     49 H          -4.7787    5.6805   -4.7244 H       1  UNL1        0.0269
     50 H          -6.4909    6.2425   -4.4797 H       1  UNL1        0.0269
     51 H           1.3457   -0.5525   -6.2682 H       1  UNL1        0.2102
     52 H           2.4110   -2.3441   -2.8195 H       1  UNL1        0.2017
@<TRIPOS>UNITY_ATOM_ATTR
4 1
charge 1
@<TRIPOS>BOND
     1     1     2    1
     2     1    24    1
     3     1    25    1
     4     1    26    1
     5     2     3    1
     6     2     4    1
     7     2    27    1
     8     3    28    1
     9     3    29    1
    10     3    30    1
    11     4     5    1
    12     4    31    1
    13     4    52    1
    14     5     6    1
    15     5    32    1
    16     5    33    1
    17     6     7    1
    18     6     8    1
    19     6    23    1
    20     8     9    1
    21     8    34    1
    22     8    35    1
    23     9    10    1
    24    10    15   ar
    25    10    11   ar
    26    11    12   ar
    27    11    36    1
    28    12    13   ar
    29    12    37    1
    30    13    14   ar
    31    13    16    1
    32    14    15   ar
    33    14    38    1
    34    15    39    1
    35    16    17    1
    36    16    40    1
    37    16    41    1
    38    17    18    1
    39    17    42    1
    40    17    43    1
    41    18    19    1
    42    19    20    1
    43    19    44    1
    44    19    45    1
    45    20    22    1
    46    20    21    1
    47    20    46    1
    48    21    22    1
    49    21    47    1
    50    21    48    1
    51    22    49    1
    52    22    50    1
    53    23    51    1
