@<TRIPOS>MOLECULE
ZINC00056652
 33 33 0 0 0
SMALL
GASTEIGER

@<TRIPOS>ATOM
      1 C          -3.0372   -1.4897    0.9316 C.3     1  UNL1       -0.0219
      2 C          -1.5196   -1.4810    0.7756 C.3     1  UNL1       -0.0283
      3 C          -0.9089   -2.7068    1.4491 C.3     1  UNL1       -0.0219
      4 N          -1.1402   -1.4989   -0.6830 N.4     1  UNL1        0.2308
      5 C          -1.5965   -0.3105   -1.5066 C.3     1  UNL1       -0.0026
      6 C          -1.0952   -0.4389   -2.9641 C.3     1  UNL1        0.1198
      7 H          -1.4966   -1.3666   -3.3894 H       1  UNL1        0.0698
      8 C          -1.4878    0.7338   -3.8352 C.ar    1  UNL1       -0.0104
      9 C          -2.2173    0.5128   -5.0193 C.ar    1  UNL1       -0.0523
     10 C          -2.5523    1.5759   -5.8627 C.ar    1  UNL1       -0.0162
     11 C          -2.1610    2.8608   -5.5257 C.ar    1  UNL1        0.1582
     12 C          -1.4474    3.1012   -4.3572 C.ar    1  UNL1        0.1586
     13 C          -1.1041    2.0495   -3.5105 C.ar    1  UNL1       -0.0107
     14 O          -1.0924    4.3932   -4.0912 O.3     1  UNL1       -0.5033
     15 O          -2.4699    3.8888   -6.3668 O.3     1  UNL1       -0.5033
     16 O           0.3274   -0.5842   -2.9539 O.3     1  UNL1       -0.3819
     17 H          -3.4861   -2.3637    0.4474 H       1  UNL1        0.0284
     18 H          -3.4942   -0.5911    0.5068 H       1  UNL1        0.0284
     19 H          -3.3152   -1.5123    1.9910 H       1  UNL1        0.0284
     20 H          -1.0918   -0.5689    1.2057 H       1  UNL1        0.0845
     21 H          -1.2946   -3.6374    1.0176 H       1  UNL1        0.0284
     22 H           0.1811   -2.7125    1.3511 H       1  UNL1        0.0284
     23 H          -1.1460   -2.7155    2.5195 H       1  UNL1        0.0284
     24 H          -0.1094   -1.5233   -0.7761 H       1  UNL1        0.2017
     25 H          -2.6870   -0.2816   -1.4830 H       1  UNL1        0.0843
     26 H          -1.1786    0.5705   -1.0078 H       1  UNL1        0.0843
     27 H          -2.5239   -0.4895   -5.3161 H       1  UNL1        0.0622
     28 H          -3.0999    1.4032   -6.7866 H       1  UNL1        0.0655
     29 H          -0.5225    2.2513   -2.6158 H       1  UNL1        0.0659
     30 H          -0.5580    4.4276   -3.2805 H       1  UNL1        0.2923
     31 H          -2.0729    4.6849   -5.9600 H       1  UNL1        0.2923
     32 H           0.6505   -0.3353   -3.8432 H       1  UNL1        0.2105
     33 H          -1.4615   -2.3728   -1.1199 H       1  UNL1        0.2017
@<TRIPOS>UNITY_ATOM_ATTR
4 1
charge 1
@<TRIPOS>BOND
     1     1     2    1
     2     1    17    1
     3     1    18    1
     4     1    19    1
     5     2     3    1
     6     2     4    1
     7     2    20    1
     8     3    21    1
     9     3    22    1
    10     3    23    1
    11     4     5    1
    12     4    24    1
    13     4    33    1
    14     5     6    1
    15     5    25    1
    16     5    26    1
    17     6     7    1
    18     6     8    1
    19     6    16    1
    20     8    13   ar
    21     8     9   ar
    22     9    10   ar
    23     9    27    1
    24    10    11   ar
    25    10    28    1
    26    11    12   ar
    27    11    15    1
    28    12    13   ar
    29    12    14    1
    30    13    29    1
    31    14    30    1
    32    15    31    1
    33    16    32    1
