@<TRIPOS>MOLECULE
ZINC00586239
 60 63 0 0 0
SMALL
GASTEIGER

@<TRIPOS>ATOM
      1 C           3.1960   -1.5362    7.4110 C.3     1  UNL1       -0.0562
      2 C           2.8463   -1.8539    5.9450 C.3     1  UNL1        0.0165
      3 H           3.6979   -1.4770    5.3598 H       1  UNL1        0.0364
      4 C           1.6502   -1.0579    5.4344 C.3     1  UNL1       -0.0277
      5 N           1.3675   -1.2996    3.9718 N.4     1  UNL1        0.2376
      6 C           1.3630   -2.7862    3.5911 C.3     1  UNL1       -0.0303
      7 C           2.5459   -3.5434    4.1469 C.3     1  UNL1        0.0079
      8 C           2.6720   -3.3818    5.6824 C.3     1  UNL1        0.1089
      9 C           1.4666   -4.0610    6.3883 C.ar    1  UNL1       -0.0298
     10 C           1.1409   -5.4029    6.1051 C.ar    1  UNL1       -0.0575
     11 C          -0.0178   -5.9992    6.6282 C.ar    1  UNL1       -0.0615
     12 C          -0.8816   -5.2768    7.4399 C.ar    1  UNL1       -0.0617
     13 C          -0.5637   -3.9716    7.7741 C.ar    1  UNL1       -0.0615
     14 C           0.6090   -3.3925    7.2802 C.ar    1  UNL1       -0.0575
     15 C           4.0759   -4.0184    5.9362 C.2     1  UNL1        0.3669
     16 O           5.0392   -3.4023    5.3871 O.co2   1  UNL1       -0.2454
     17 O           4.1066   -5.0726    6.6196 O.co2   1  UNL1       -0.2454
     18 C           2.1023   -0.4602    2.9517 C.3     1  UNL1       -0.0207
     19 C           2.4880    0.9581    3.4109 C.3     1  UNL1       -0.0079
     20 C           3.1706    1.7490    2.2643 C.3     1  UNL1       -0.0253
     21 C           2.3627    1.7722    0.9258 C.3     1  UNL1        0.0825
     22 C           1.8597    0.3408    0.6067 C.3     1  UNL1       -0.0253
     23 C           1.1415   -0.3118    1.7640 C.3     1  UNL1       -0.0079
     24 C           1.1920    2.6790    1.1422 C.1     1  UNL1        0.0739
     25 N           0.2540    3.3234    1.3518 N.1     1  UNL1       -0.1956
     26 C           3.1451    2.1450   -0.3498 C.ar    1  UNL1       -0.0273
     27 C           2.4282    2.5049   -1.5172 C.ar    1  UNL1       -0.0544
     28 C           3.0568    2.5856   -2.7595 C.ar    1  UNL1       -0.0261
     29 C           4.4120    2.3168   -2.8545 C.ar    1  UNL1        0.1234
     30 C           5.1515    1.9876   -1.7274 C.ar    1  UNL1       -0.0261
     31 C           4.5254    1.9049   -0.4797 C.ar    1  UNL1       -0.0544
     32 F           5.0081    2.3463   -4.0524 F       1  UNL1       -0.2055
     33 H           4.2023   -1.1084    7.4721 H       1  UNL1        0.0235
     34 H           3.2057   -2.4311    8.0433 H       1  UNL1        0.0235
     35 H           2.5048   -0.8140    7.8554 H       1  UNL1        0.0235
     36 H           0.7109   -1.2969    5.9320 H       1  UNL1        0.0817
     37 H           1.7804    0.0143    5.5969 H       1  UNL1        0.0817
     38 H           1.3925   -2.8619    2.4990 H       1  UNL1        0.0815
     39 H           0.4034   -3.1946    3.9182 H       1  UNL1        0.0815
     40 H           3.4455   -3.1921    3.6212 H       1  UNL1        0.0331
     41 H           2.4576   -4.5990    3.8577 H       1  UNL1        0.0331
     42 H           1.8091   -6.0114    5.5087 H       1  UNL1        0.0621
     43 H          -0.2222   -7.0462    6.4181 H       1  UNL1        0.0618
     44 H          -1.7759   -5.7393    7.8482 H       1  UNL1        0.0618
     45 H          -1.2086   -3.4001    8.4376 H       1  UNL1        0.0618
     46 H           0.8191   -2.3974    7.6493 H       1  UNL1        0.0621
     47 H           3.0115   -1.0079    2.6768 H       1  UNL1        0.0851
     48 H           1.6047    1.5063    3.7634 H       1  UNL1        0.0320
     49 H           3.1956    0.9161    4.2476 H       1  UNL1        0.0320
     50 H           4.1502    1.2838    2.1258 H       1  UNL1        0.0285
     51 H           3.3670    2.7752    2.6072 H       1  UNL1        0.0285
     52 H           2.7118   -0.3022    0.3384 H       1  UNL1        0.0285
     53 H           1.1881    0.3354   -0.2607 H       1  UNL1        0.0285
     54 H           0.7454   -1.2697    1.4197 H       1  UNL1        0.0320
     55 H           0.2650    0.2831    2.0561 H       1  UNL1        0.0320
     56 H           1.3497    2.6639   -1.4916 H       1  UNL1        0.0622
     57 H           2.4881    2.8202   -3.6539 H       1  UNL1        0.0646
     58 H           6.2084    1.7599   -1.8312 H       1  UNL1        0.0646
     59 H           5.1408    1.5875    0.3573 H       1  UNL1        0.0622
     60 H           0.3806   -1.0304    3.8894 H       1  UNL1        0.2036
@<TRIPOS>UNITY_ATOM_ATTR
5 1
charge 1
@<TRIPOS>BOND
     1     1    33    1
     2     1    34    1
     3     1    35    1
     4     2     8    1
     5     2     4    1
     6     4     5    1
     7     4    36    1
     8     4    37    1
     9     5     6    1
    10     5    60    1
    11     6     7    1
    12     6    38    1
    13     6    39    1
    14     7     8    1
    15     7    40    1
    16     7    41    1
    17     9    14   ar
    18     9    10   ar
    19    10    11   ar
    20    10    42    1
    21    11    12   ar
    22    11    43    1
    23    12    13   ar
    24    12    44    1
    25    13    14   ar
    26    13    45    1
    27    14    46    1
    28    15    16   ar
    29    15    17   ar
    30    18    23    1
    31    18    19    1
    32    19    20    1
    33    19    48    1
    34    19    49    1
    35    20    21    1
    36    20    50    1
    37    20    51    1
    38    21    22    1
    39    22    23    1
    40    22    52    1
    41    22    53    1
    42    23    54    1
    43    23    55    1
    44    24    25    3
    45    26    31   ar
    46    26    27   ar
    47    27    28   ar
    48    27    56    1
    49    28    29   ar
    50    28    57    1
    51    29    30   ar
    52    29    32    1
    53    30    31   ar
    54    30    58    1
    55    31    59    1
    56     2     3    1
    57     2     1    1
    58     8    15    1
    59     8     9    1
    60    18    47    1
    61    18     5    1
    62    21    26    1
    63    21    24    1
