@<TRIPOS>MOLECULE
ZINC00119839
 27 29 0 0 0
SMALL
GASTEIGER

@<TRIPOS>ATOM
      1 C          -3.2245    4.7375   -0.5333 C.ar    1  UNL1       -0.0617
      2 C          -4.3719    3.9502   -0.4945 C.ar    1  UNL1       -0.0614
      3 C          -4.2652    2.5629   -0.3869 C.ar    1  UNL1       -0.0566
      4 C          -3.0046    1.9442   -0.3201 C.ar    1  UNL1       -0.0237
      5 C          -1.8571    2.7528   -0.3568 C.ar    1  UNL1       -0.0566
      6 C          -1.9687    4.1407   -0.4593 C.ar    1  UNL1       -0.0614
      7 C          -2.8644    0.4501   -0.1995 C.3     1  UNL1        0.0696
      8 H          -1.8128    0.1432   -0.1766 H       1  UNL1        0.0588
      9 C          -3.6316   -0.1713    1.0133 C.3     1  UNL1        0.0383
     10 N          -4.5583   -1.0727    0.3414 N.pl3   1  UNL1       -0.3085
     11 C          -5.5891   -1.9397    0.8836 C.3     1  UNL1        0.0234
     12 C          -6.2567   -2.6501   -0.3126 C.3     1  UNL1        0.0166
     13 S          -5.4553   -2.0213   -1.8465 S.3     1  UNL1       -0.0910
     14 C          -4.4208   -1.0258   -0.9540 C.2     1  UNL1        0.1310
     15 N          -3.5028   -0.1997   -1.3657 N.2     1  UNL1       -0.3594
     16 H          -3.3085    5.8187   -0.6230 H       1  UNL1        0.0618
     17 H          -5.3507    4.4224   -0.5517 H       1  UNL1        0.0618
     18 H          -5.1830    1.9794   -0.3545 H       1  UNL1        0.0621
     19 H          -0.8586    2.3207   -0.3042 H       1  UNL1        0.0621
     20 H          -1.0749    4.7616   -0.4846 H       1  UNL1        0.0618
     21 H          -4.1835    0.5593    1.6113 H       1  UNL1        0.0488
     22 H          -2.9591   -0.7489    1.6536 H       1  UNL1        0.0488
     23 H          -6.3169   -1.3374    1.4367 H       1  UNL1        0.0472
     24 H          -5.1361   -2.6630    1.5690 H       1  UNL1        0.0472
     25 H          -6.1224   -3.7337   -0.2453 H       1  UNL1        0.0396
     26 H          -7.3285   -2.4340   -0.3450 H       1  UNL1        0.0396
     27 H          -3.3352   -0.0746   -2.3568 H       1  UNL1        0.1619
@<TRIPOS>BOND
     1     1     6   ar
     2     1     2   ar
     3     1    16    1
     4     2     3   ar
     5     2    17    1
     6     3     4   ar
     7     3    18    1
     8     4     5   ar
     9     5     6   ar
    10     5    19    1
    11     6    20    1
    12     7    15    1
    13     7     9    1
    14     9    10    1
    15     9    21    1
    16     9    22    1
    17    10    14    1
    18    10    11    1
    19    11    12    1
    20    11    23    1
    21    11    24    1
    22    12    13    1
    23    12    25    1
    24    12    26    1
    25    13    14    1
    26    14    15    2
    27    15    27    1
    28     7     8    1
    29     7     4    1
