@<TRIPOS>MOLECULE
ZINC00000456
 41 42 0 0 0
SMALL
GASTEIGER

@<TRIPOS>ATOM
      1 C           1.9000    1.9126    1.6229 C.3     1  UNL1       -0.0379
      2 C           2.1581    2.4842    0.2595 C.ar    1  UNL1       -0.0290
      3 C           3.4946    2.4870   -0.1918 C.ar    1  UNL1       -0.0571
      4 C           3.8334    2.9515   -1.4582 C.ar    1  UNL1       -0.0611
      5 C           2.8500    3.4914   -2.2755 C.ar    1  UNL1       -0.0571
      6 C           1.5106    3.5083   -1.8566 C.ar    1  UNL1       -0.0290
      7 C           1.1477    2.9252   -0.6210 C.ar    1  UNL1        0.0394
      8 N          -0.2254    2.6041   -0.4269 N.am    1  UNL1       -0.2804
      9 C          -1.0072    3.0348    0.6339 C.2     1  UNL1        0.2655
     10 O          -0.6538    3.7970    1.5266 O.2     1  UNL1       -0.2693
     11 C          -2.4553    2.4778    0.6218 C.3     1  UNL1        0.0567
     12 H          -2.8614    2.5238   -0.3965 H       1  UNL1        0.0950
     13 C          -2.4178    1.0386    1.1517 C.3     1  UNL1       -0.0008
     14 C          -3.7993    0.3999    1.1681 C.3     1  UNL1       -0.0427
     15 C          -4.7658    1.2188    2.0116 C.3     1  UNL1       -0.0123
     16 C          -4.8265    2.6648    1.5524 C.3     1  UNL1       -0.0314
     17 N          -3.4454    3.2758    1.5136 N.4     1  UNL1        0.2418
     18 C          -3.5413    4.7393    1.1581 C.3     1  UNL1       -0.0424
     19 C           0.5156    4.2369   -2.7217 C.3     1  UNL1       -0.0379
     20 H           1.2507    2.5622    2.2107 H       1  UNL1        0.0278
     21 H           1.4639    0.9122    1.5498 H       1  UNL1        0.0278
     22 H           2.8313    1.8370    2.1987 H       1  UNL1        0.0278
     23 H           4.2899    2.0925    0.4404 H       1  UNL1        0.0621
     24 H           4.8670    2.9164   -1.7984 H       1  UNL1        0.0618
     25 H           3.1345    3.8996   -3.2434 H       1  UNL1        0.0621
     26 H          -0.7020    2.3554   -1.2878 H       1  UNL1        0.1550
     27 H          -1.7422    0.4228    0.5463 H       1  UNL1        0.0325
     28 H          -2.0057    1.0336    2.1706 H       1  UNL1        0.0325
     29 H          -4.1796    0.3196    0.1426 H       1  UNL1        0.0269
     30 H          -3.7352   -0.6181    1.5678 H       1  UNL1        0.0269
     31 H          -5.7674    0.7764    1.9532 H       1  UNL1        0.0317
     32 H          -4.4639    1.1777    3.0652 H       1  UNL1        0.0317
     33 H          -5.4331    3.2570    2.2463 H       1  UNL1        0.0814
     34 H          -5.2484    2.7463    0.5442 H       1  UNL1        0.0814
     35 H          -4.2618    5.2016    1.8406 H       1  UNL1        0.0778
     36 H          -2.5712    5.2159    1.2958 H       1  UNL1        0.0778
     37 H          -3.8847    4.8229    0.1241 H       1  UNL1        0.0778
     38 H           0.0248    3.5532   -3.4162 H       1  UNL1        0.0278
     39 H          -0.2365    4.7372   -2.1010 H       1  UNL1        0.0278
     40 H           1.0130    5.0317   -3.2904 H       1  UNL1        0.0278
     41 H          -3.0355    3.2567    2.4609 H       1  UNL1        0.2038
@<TRIPOS>UNITY_ATOM_ATTR
17 1
charge 1
@<TRIPOS>BOND
     1     1     2    1
     2     1    20    1
     3     1    21    1
     4     1    22    1
     5     2     7   ar
     6     2     3   ar
     7     3     4   ar
     8     3    23    1
     9     4     5   ar
    10     4    24    1
    11     5     6   ar
    12     5    25    1
    13     6     7   ar
    14     6    19    1
    15     7     8    1
    16     8     9   am
    17     8    26    1
    18     9    10    2
    19     9    11    1
    20    11    12    1
    21    11    17    1
    22    11    13    1
    23    13    14    1
    24    13    27    1
    25    13    28    1
    26    14    15    1
    27    14    29    1
    28    14    30    1
    29    15    16    1
    30    15    31    1
    31    15    32    1
    32    16    17    1
    33    16    33    1
    34    16    34    1
    35    17    18    1
    36    17    41    1
    37    18    35    1
    38    18    36    1
    39    18    37    1
    40    19    38    1
    41    19    39    1
    42    19    40    1
