@<TRIPOS>MOLECULE
ZINC03831128
 67 71 0 0 0
SMALL
GASTEIGER

@<TRIPOS>ATOM
      1 C           2.7775    5.5760   -3.2615 C.3     1  UNL1       -0.0025
      2 C           1.5352    4.7005   -3.2387 C.1     1  UNL1       -0.1027
      3 C           0.4695    3.9494   -3.2191 C.1     1  UNL1       -0.0673
      4 C          -0.3025    3.6009   -2.0129 C.3     1  UNL1        0.1320
      5 C          -1.7413    3.1559   -2.3480 C.3     1  UNL1       -0.0118
      6 C          -2.6570    4.1192   -1.5935 C.3     1  UNL1       -0.0455
      7 C          -1.8030    5.3943   -1.5523 C.3     1  UNL1       -0.0254
      8 H          -1.6017    5.6927   -2.5958 H       1  UNL1        0.0313
      9 C          -0.4827    4.8705   -0.9751 C.3     1  UNL1        0.0122
     10 C           0.4644    6.1338   -0.9346 C.3     1  UNL1       -0.0332
     11 C          -0.0707    7.4270   -0.1715 C.3     1  UNL1        0.0066
     12 H           0.6537    8.2201   -0.4180 H       1  UNL1        0.0394
     13 C          -1.4427    7.8238   -0.8129 C.2     1  UNL1       -0.0553
     14 C          -1.7755    9.0631   -1.2527 C.2     1  UNL1       -0.0436
     15 C          -1.1798   10.4075   -0.8570 C.3     1  UNL1       -0.0204
     16 C          -1.2808   11.5038   -1.9248 C.3     1  UNL1        0.0139
     17 C          -1.3651   10.8743   -3.2955 C.2     1  UNL1        0.1567
     18 O          -0.7029   11.2317   -4.2536 O.2     1  UNL1       -0.2927
     19 C          -2.4682    9.8947   -3.4214 C.2     1  UNL1       -0.0158
     20 C          -2.7444    9.1485   -2.3377 C.2     1  UNL1       -0.0409
     21 C          -3.9660    8.3095   -2.2398 C.3     1  UNL1       -0.0268
     22 C          -3.7402    6.9194   -1.6824 C.3     1  UNL1       -0.0422
     23 C          -2.4225    6.6369   -0.9199 C.3     1  UNL1       -0.0150
     24 H          -2.6982    6.3904    0.1170 H       1  UNL1        0.0349
     25 C          -0.0558    7.3589    1.3497 C.ar    1  UNL1       -0.0401
     26 C          -1.0015    8.0483    2.1040 C.ar    1  UNL1       -0.0563
     27 C          -1.1007    7.8770    3.4906 C.ar    1  UNL1       -0.0404
     28 C          -0.2678    7.0086    4.2077 C.ar    1  UNL1        0.0292
     29 C           0.7737    6.4371    3.4608 C.ar    1  UNL1       -0.0404
     30 C           0.9014    6.6334    2.0681 C.ar    1  UNL1       -0.0563
     31 N          -0.4612    6.7400    5.5525 N.pl3   1  UNL1       -0.3360
     32 C          -1.5929    7.2292    6.3217 C.3     1  UNL1        0.0004
     33 C           0.4373    5.8264    6.2647 C.3     1  UNL1        0.0004
     34 C          -0.5363    4.2783    0.4567 C.3     1  UNL1       -0.0557
     35 O           0.3797    2.5166   -1.3836 O.3     1  UNL1       -0.3760
     36 H           3.1646    5.6326   -4.2833 H       1  UNL1        0.0362
     37 H           3.5485    5.1401   -2.6198 H       1  UNL1        0.0362
     38 H           2.5629    6.5907   -2.9198 H       1  UNL1        0.0362
     39 H          -1.9430    3.2558   -3.4193 H       1  UNL1        0.0303
     40 H          -1.9546    2.1193   -2.0609 H       1  UNL1        0.0303
     41 H          -3.6091    4.2316   -2.1168 H       1  UNL1        0.0269
     42 H          -2.8831    3.7595   -0.5892 H       1  UNL1        0.0269
     43 H           1.4634    5.8546   -0.5771 H       1  UNL1        0.0281
     44 H           0.5913    6.5006   -1.9576 H       1  UNL1        0.0281
     45 H          -0.1489   10.3280   -0.5055 H       1  UNL1        0.0317
     46 H          -1.7631   10.7727    0.0056 H       1  UNL1        0.0317
     47 H          -0.4553   12.2168   -1.8655 H       1  UNL1        0.0348
     48 H          -2.2080   12.0867   -1.7941 H       1  UNL1        0.0348
     49 H          -3.0475    9.9148   -4.3322 H       1  UNL1        0.0655
     50 H          -4.4325    8.2084   -3.2294 H       1  UNL1        0.0313
     51 H          -4.6962    8.8327   -1.6131 H       1  UNL1        0.0313
     52 H          -3.8194    6.2535   -2.5486 H       1  UNL1        0.0274
     53 H          -4.5796    6.6478   -1.0366 H       1  UNL1        0.0274
     54 H          -1.7156    8.7184    1.6313 H       1  UNL1        0.0621
     55 H          -1.8871    8.4384    3.9796 H       1  UNL1        0.0636
     56 H           1.5058    5.7850    3.9284 H       1  UNL1        0.0636
     57 H           1.7347    6.1433    1.5666 H       1  UNL1        0.0621
     58 H          -2.0722    6.4096    6.8590 H       1  UNL1        0.0428
     59 H          -1.2487    7.9659    7.0554 H       1  UNL1        0.0428
     60 H          -2.3950    7.6934    5.7333 H       1  UNL1        0.0428
     61 H           0.3889    4.8159    5.8491 H       1  UNL1        0.0428
     62 H           1.4707    6.1881    6.2415 H       1  UNL1        0.0428
     63 H           0.1561    5.7509    7.3231 H       1  UNL1        0.0428
     64 H          -1.0737    4.9150    1.1562 H       1  UNL1        0.0236
     65 H          -1.0151    3.2972    0.5003 H       1  UNL1        0.0236
     66 H           0.4869    4.1207    0.8317 H       1  UNL1        0.0236
     67 H           0.5359    1.8473   -2.0739 H       1  UNL1        0.2114
@<TRIPOS>BOND
     1     1     2    1
     2     1    36    1
     3     1    37    1
     4     1    38    1
     5     2     3    3
     6     4     9    1
     7     4     5    1
     8     5     6    1
     9     5    39    1
    10     5    40    1
    11     6     7    1
    12     6    41    1
    13     6    42    1
    14     7     8    1
    15     7    23    1
    16     7     9    1
    17     9    10    1
    18     9    34    1
    19    10    11    1
    20    10    43    1
    21    10    44    1
    22    11    13    1
    23    13    23    1
    24    13    14    2
    25    14    20    1
    26    14    15    1
    27    15    16    1
    28    15    45    1
    29    15    46    1
    30    16    17    1
    31    16    47    1
    32    16    48    1
    33    17    18    2
    34    17    19    1
    35    19    20    2
    36    19    49    1
    37    20    21    1
    38    21    22    1
    39    21    50    1
    40    21    51    1
    41    22    23    1
    42    22    52    1
    43    22    53    1
    44    23    24    1
    45    25    30   ar
    46    25    26   ar
    47    26    27   ar
    48    26    54    1
    49    27    28   ar
    50    27    55    1
    51    28    29   ar
    52    28    31    1
    53    29    30   ar
    54    29    56    1
    55    30    57    1
    56    31    32    1
    57    31    33    1
    58    32    58    1
    59    32    59    1
    60    32    60    1
    61    33    61    1
    62    33    62    1
    63    33    63    1
    64    34    64    1
    65    34    65    1
    66    34    66    1
    67    35    67    1
    68     4    35    1
    69     4     3    1
    70    11    25    1
    71    11    12    1
