@<TRIPOS>MOLECULE
ZINC01530775
 51 52 0 0 0
SMALL
GASTEIGER

@<TRIPOS>ATOM
      1 C          -0.3899    7.1265    0.5628 C.ar    1  UNL1       -0.0436
      2 C          -1.4175    6.2737    0.9909 C.ar    1  UNL1       -0.0191
      3 C          -1.2067    4.8983    1.1100 C.ar    1  UNL1        0.1205
      4 C           0.0714    4.3969    0.8926 C.ar    1  UNL1       -0.0191
      5 C           1.1022    5.2461    0.4691 C.ar    1  UNL1       -0.0436
      6 C           0.8820    6.6183    0.2606 C.ar    1  UNL1        0.0610
      7 C           1.9533    7.4767   -0.2862 C.2     1  UNL1        0.2662
      8 N           2.0828    8.7224    0.1159 N.2     1  UNL1       -0.2884
      9 N           2.7769    6.9872   -1.1908 N.pl3   1  UNL1       -0.2497
     10 O          -2.2998    4.1633    1.4700 O.3     1  UNL1       -0.4920
     11 C          -2.3527    2.7806    1.0876 C.3     1  UNL1        0.0896
     12 C          -2.9056    2.6318   -0.3316 C.3     1  UNL1       -0.0185
     13 C          -2.9366    1.1865   -0.8494 C.3     1  UNL1       -0.0469
     14 C          -3.7341    0.1744   -0.0125 C.3     1  UNL1       -0.0185
     15 C          -5.2071    0.5545    0.1106 C.3     1  UNL1        0.0896
     16 O          -5.9361   -0.4204    0.8679 O.3     1  UNL1       -0.4920
     17 C          -7.2974   -0.2320    0.8917 C.ar    1  UNL1        0.1205
     18 C          -7.9526    0.8814    0.3696 C.ar    1  UNL1       -0.0191
     19 C          -9.3469    0.9481    0.3525 C.ar    1  UNL1       -0.0436
     20 C         -10.1329   -0.1013    0.8543 C.ar    1  UNL1        0.0610
     21 C          -9.4664   -1.1857    1.4484 C.ar    1  UNL1       -0.0436
     22 C          -8.0616   -1.2455    1.4704 C.ar    1  UNL1       -0.0191
     23 C         -11.5997   -0.0603    0.6911 C.2     1  UNL1        0.2662
     24 N         -12.1191    0.5093   -0.3755 N.2     1  UNL1       -0.2884
     25 N         -12.3907   -0.5997    1.5976 N.pl3   1  UNL1       -0.2497
     26 H          -0.6219    8.1830    0.4425 H       1  UNL1        0.0627
     27 H          -2.4021    6.6846    1.2109 H       1  UNL1        0.0654
     28 H           0.3119    3.3515    1.0615 H       1  UNL1        0.0654
     29 H           2.0875    4.8078    0.3171 H       1  UNL1        0.0627
     30 H           2.7996    9.3374   -0.2480 H       1  UNL1        0.3009
     31 H           2.6570    6.0418   -1.5380 H       1  UNL1        0.2883
     32 H           3.5313    7.5281   -1.5923 H       1  UNL1        0.2883
     33 H          -1.3966    2.2650    1.2066 H       1  UNL1        0.0696
     34 H          -3.0405    2.3023    1.7933 H       1  UNL1        0.0696
     35 H          -3.9067    3.0782   -0.3803 H       1  UNL1        0.0298
     36 H          -2.2983    3.2312   -1.0221 H       1  UNL1        0.0298
     37 H          -3.3505    1.2015   -1.8669 H       1  UNL1        0.0267
     38 H          -1.9062    0.8242   -0.9464 H       1  UNL1        0.0267
     39 H          -3.6612   -0.8124   -0.4879 H       1  UNL1        0.0298
     40 H          -3.2890    0.0524    0.9815 H       1  UNL1        0.0298
     41 H          -5.2851    1.5187    0.6219 H       1  UNL1        0.0696
     42 H          -5.6220    0.6250   -0.9031 H       1  UNL1        0.0696
     43 H          -7.4110    1.7206   -0.0511 H       1  UNL1        0.0654
     44 H          -9.8011    1.8425   -0.0678 H       1  UNL1        0.0627
     45 H         -10.0169   -2.0232    1.8729 H       1  UNL1        0.0627
     46 H          -7.5659   -2.1045    1.9189 H       1  UNL1        0.0654
     47 H         -13.1143    0.5686   -0.5379 H       1  UNL1        0.3009
     48 H         -12.0081   -1.0230    2.4346 H       1  UNL1        0.2883
     49 H         -13.3960   -0.6070    1.4987 H       1  UNL1        0.2883
     50 H           1.4708    9.1029    0.8298 H       1  UNL1        0.3009
     51 H         -11.5191    0.8872   -1.1021 H       1  UNL1        0.3009
@<TRIPOS>BOND
     1     1     6   ar
     2     1     2   ar
     3     1    26    1
     4     2     3   ar
     5     2    27    1
     6     3     4   ar
     7     3    10    1
     8     4     5   ar
     9     4    28    1
    10     5     6   ar
    11     5    29    1
    12     6     7    1
    13     7     8    2
    14     7     9    1
    15     8    30    1
    16     8    50    1
    17     9    31    1
    18     9    32    1
    19    10    11    1
    20    11    12    1
    21    11    33    1
    22    11    34    1
    23    12    13    1
    24    12    35    1
    25    12    36    1
    26    13    14    1
    27    13    37    1
    28    13    38    1
    29    14    15    1
    30    14    39    1
    31    14    40    1
    32    15    16    1
    33    15    41    1
    34    15    42    1
    35    16    17    1
    36    17    22   ar
    37    17    18   ar
    38    18    19   ar
    39    18    43    1
    40    19    20   ar
    41    19    44    1
    42    20    21   ar
    43    20    23    1
    44    21    22   ar
    45    21    45    1
    46    22    46    1
    47    23    24    2
    48    23    25    1
    49    24    47    1
    50    24    51    1
    51    25    48    1
    52    25    49    1
