@<TRIPOS>MOLECULE
ZINC03830683
 42 44 0 0 0
SMALL
GASTEIGER

@<TRIPOS>ATOM
      1 C           1.2872   -0.8703   -0.4716 C.3     1  UNL1       -0.0504
      2 C           2.7509   -0.4516    0.0087 C.3     1  UNL1        0.0362
      3 C           2.8912   -0.9699    1.4518 C.3     1  UNL1       -0.0384
      4 C           2.6022    0.0918    2.5504 C.3     1  UNL1       -0.0521
      5 C           1.4670    1.1850    2.4534 C.3     1  UNL1       -0.0530
      6 C           0.8067    1.8894    1.1856 C.3     1  UNL1       -0.0526
      7 C           1.5578    2.6521   -0.0697 C.3     1  UNL1       -0.0448
      8 C           2.4126    1.6891   -0.9472 C.3     1  UNL1        0.0067
      9 H           1.5315    1.1515   -1.2907 H       1  UNL1        0.0359
     10 C           3.2537    1.0069    0.0700 C.3     1  UNL1       -0.0116
     11 H           3.1573    1.5498    0.9974 H       1  UNL1        0.0861
     12 C           3.1706    1.4763   -2.2829 C.3     1  UNL1       -0.0194
     13 C           3.5999   -0.0733   -2.3574 C.ar    1  UNL1       -0.0428
     14 C           3.4948   -0.9633   -1.2009 C.ar    1  UNL1       -0.0295
     15 C           3.7865   -2.3224   -1.2635 C.ar    1  UNL1       -0.0160
     16 C           4.1253   -2.8583   -2.4865 C.ar    1  UNL1        0.1172
     17 C           4.2848   -2.0362   -3.6062 C.ar    1  UNL1       -0.0199
     18 C           4.0495   -0.6448   -3.5437 C.ar    1  UNL1       -0.0548
     19 O           4.2324   -4.2123   -2.6301 O.3     1  UNL1       -0.5068
     20 H           0.9784   -1.8284   -0.0309 H       1  UNL1        0.0240
     21 H           0.4858   -0.1756   -0.2830 H       1  UNL1        0.0240
     22 H           1.2196   -1.0298   -1.5627 H       1  UNL1        0.0240
     23 H           2.2417   -1.8353    1.6269 H       1  UNL1        0.0276
     24 H           3.9133   -1.3437    1.6024 H       1  UNL1        0.0276
     25 H           2.4612   -0.4557    3.4922 H       1  UNL1        0.0266
     26 H           3.5493    0.6256    2.7343 H       1  UNL1        0.0266
     27 H           0.6243    0.7439    3.0078 H       1  UNL1        0.0265
     28 H           1.8081    2.0082    3.0986 H       1  UNL1        0.0265
     29 H           0.1444    2.6527    1.6179 H       1  UNL1        0.0265
     30 H           0.0741    1.1843    0.7936 H       1  UNL1        0.0265
     31 H           2.1332    3.4897    0.3337 H       1  UNL1        0.0270
     32 H           0.7498    3.0735   -0.6838 H       1  UNL1        0.0270
     33 H           5.0147    2.1495   -0.3375 H       1  UNL1        0.1997
     34 H           5.2192    1.0149    0.8428 H       1  UNL1        0.1997
     35 H           2.5220    1.6910   -3.1386 H       1  UNL1        0.0318
     36 H           4.0652    2.1048   -2.3614 H       1  UNL1        0.0318
     37 H           3.6125   -2.9719   -0.4065 H       1  UNL1        0.0657
     38 H           4.5445   -2.4971   -4.5543 H       1  UNL1        0.0654
     39 H           4.1523   -0.0578   -4.4531 H       1  UNL1        0.0622
     40 H           3.8021   -4.6561   -1.8727 H       1  UNL1        0.2921
     41 N           4.7511    1.1910   -0.0609 N.4     1  UNL1        0.2216
     42 H           5.2112    0.5495   -0.7196 H       1  UNL1        0.1997
@<TRIPOS>UNITY_ATOM_ATTR
41 1
charge 1
@<TRIPOS>BOND
     1     1    20    1
     2     1    21    1
     3     1    22    1
     4     2     1    1
     5     2    10    1
     6     2    14    1
     7     2     3    1
     8     3     4    1
     9     3    23    1
    10     3    24    1
    11     4     5    1
    12     4    25    1
    13     4    26    1
    14     5     6    1
    15     5    27    1
    16     5    28    1
    17     6     7    1
    18     6    29    1
    19     6    30    1
    20     7     8    1
    21     7    31    1
    22     7    32    1
    23     8     9    1
    24     8    10    1
    25     8    12    1
    26    12    13    1
    27    12    35    1
    28    12    36    1
    29    13    18   ar
    30    13    14   ar
    31    14    15   ar
    32    15    16   ar
    33    15    37    1
    34    16    17   ar
    35    16    19    1
    36    17    18   ar
    37    17    38    1
    38    18    39    1
    39    19    40    1
    40    33    41    1
    41    34    41    1
    42    41    42    1
    43    10    41    1
    44    10    11    1
