@<TRIPOS>MOLECULE
ZINC01542907
 26 26 0 0 0
SMALL
GASTEIGER

@<TRIPOS>ATOM
      1 C          -1.4233    0.3324   -0.2269 C.3     1  UNL1       -0.0446
      2 C          -0.4213    1.4295    0.1402 C.3     1  UNL1       -0.0395
      3 C           0.9975    1.0964   -0.3319 C.3     1  UNL1        0.0607
      4 C           1.4384   -0.2942    0.1484 C.3     1  UNL1       -0.0395
      5 C           0.4180   -1.3783   -0.2074 C.3     1  UNL1       -0.0446
      6 C          -0.9935   -1.0442    0.3023 C.3     1  UNL1       -0.0009
      7 C          -1.0371   -1.1427    1.8295 C.3     1  UNL1       -0.0325
      8 N          -2.4130   -0.8907    2.3252 N.4     1  UNL1        0.2187
      9 C           1.1823    1.2156   -1.8654 C.2     1  UNL1        0.3590
     10 O           0.1649    1.5778   -2.5137 O.co2   1  UNL1       -0.2461
     11 O           2.3375    0.9196   -2.2788 O.co2   1  UNL1       -0.2461
     12 H          -1.5243    0.2642   -1.3159 H       1  UNL1        0.0270
     13 H          -2.4196    0.6099    0.1311 H       1  UNL1        0.0270
     14 H          -0.7544    2.3843   -0.2831 H       1  UNL1        0.0273
     15 H          -0.4144    1.5718    1.2274 H       1  UNL1        0.0273
     16 H           1.6809    1.8400    0.1007 H       1  UNL1        0.0415
     17 H           1.5801   -0.2676    1.2357 H       1  UNL1        0.0273
     18 H           2.4136   -0.5720   -0.2680 H       1  UNL1        0.0273
     19 H           0.7482   -2.3413    0.2003 H       1  UNL1        0.0270
     20 H           0.3870   -1.5000   -1.2978 H       1  UNL1        0.0270
     21 H          -1.6851   -1.7932   -0.1068 H       1  UNL1        0.0352
     22 H          -0.7682   -2.1482    2.1683 H       1  UNL1        0.0816
     23 H          -0.3944   -0.4193    2.3361 H       1  UNL1        0.0816
     24 H          -3.0858   -1.5343    1.8932 H       1  UNL1        0.1994
     25 H          -2.4627   -0.9985    3.3436 H       1  UNL1        0.1994
     26 H          -2.7096    0.0679    2.1029 H       1  UNL1        0.1994
@<TRIPOS>UNITY_ATOM_ATTR
8 1
charge 1
@<TRIPOS>BOND
     1     1     6    1
     2     1     2    1
     3     1    12    1
     4     1    13    1
     5     2     3    1
     6     2    14    1
     7     2    15    1
     8     3     4    1
     9     4     5    1
    10     4    17    1
    11     4    18    1
    12     5     6    1
    13     5    19    1
    14     5    20    1
    15     6     7    1
    16     6    21    1
    17     7     8    1
    18     7    22    1
    19     7    23    1
    20     8    24    1
    21     8    25    1
    22     8    26    1
    23     9    10   ar
    24     9    11   ar
    25     3    16    1
    26     3     9    1
