@<TRIPOS>MOLECULE
ZINC00538275
 62 66 0 0 0
SMALL
GASTEIGER

@<TRIPOS>ATOM
      1 C          -2.1100    1.7858    2.5271 C.ar    1  UNL1       -0.0501
      2 C          -1.6566    2.9274    3.2034 C.ar    1  UNL1       -0.0196
      3 C          -2.4034    4.0976    3.1524 C.ar    1  UNL1        0.1169
      4 C          -3.5680    4.1541    2.3993 C.ar    1  UNL1       -0.0196
      5 C          -4.0205    3.0083    1.7243 C.ar    1  UNL1       -0.0501
      6 C          -3.3290    1.7837    1.8181 C.ar    1  UNL1       -0.0104
      7 C          -3.9705    0.5039    1.3175 C.ar    1  UNL1        0.0313
      8 C          -5.3420    0.1603    1.1890 C.ar    1  UNL1        0.0447
      9 C          -5.7629    0.3122    2.5469 C.ar    1  UNL1        0.0008
     10 C          -6.6495    1.1800    3.2118 C.ar    1  UNL1       -0.0494
     11 C          -6.6893    1.1450    4.6133 C.ar    1  UNL1       -0.0195
     12 C          -5.9577    0.1921    5.3213 C.ar    1  UNL1        0.1180
     13 C          -5.0618   -0.6712    4.6899 C.ar    1  UNL1       -0.0058
     14 C          -4.8836   -0.4783    3.3203 C.ar    1  UNL1        0.0241
     15 S          -3.5797   -1.0171    2.2546 S.2     1  UNL1       -0.0874
     16 O          -6.0204    0.1054    6.6737 O.3     1  UNL1       -0.5067
     17 C          -5.8988   -0.6193    0.0613 C.2     1  UNL1        0.1948
     18 O          -5.4609   -0.4086   -1.0707 O.2     1  UNL1       -0.2866
     19 C          -6.8930   -1.7621    0.2023 C.ar    1  UNL1        0.0225
     20 C          -7.2106   -2.4708    1.3704 C.ar    1  UNL1       -0.0475
     21 C          -7.9625   -3.6834    1.3271 C.ar    1  UNL1       -0.0193
     22 C          -8.3961   -4.2158    0.1113 C.ar    1  UNL1        0.1208
     23 C          -8.1830   -3.4541   -1.0372 C.ar    1  UNL1       -0.0193
     24 C          -7.4426   -2.2572   -0.9939 C.ar    1  UNL1       -0.0475
     25 O          -8.9648   -5.4444   -0.1259 O.3     1  UNL1       -0.4867
     26 C          -9.2874   -6.3048    0.9710 C.3     1  UNL1        0.1291
     27 C          -9.6866   -7.7157    0.4692 C.3     1  UNL1        0.0031
     28 N          -8.5475   -8.6185   -0.0470 N.4     1  UNL1        0.2376
     29 C          -9.1156  -10.0234   -0.2697 C.3     1  UNL1       -0.0318
     30 C          -8.1369  -10.9590   -0.9628 C.3     1  UNL1       -0.0123
     31 C          -7.6324  -10.3472   -2.2560 C.3     1  UNL1       -0.0434
     32 C          -6.9160   -9.0467   -1.9283 C.3     1  UNL1       -0.0123
     33 C          -7.8515   -8.0392   -1.2642 C.3     1  UNL1       -0.0318
     34 O          -2.0253    5.2137    3.8403 O.3     1  UNL1       -0.5068
     35 H          -1.5169    0.8809    2.6103 H       1  UNL1        0.0625
     36 H          -0.7421    2.8715    3.7842 H       1  UNL1        0.0654
     37 H          -4.1362    5.0808    2.3586 H       1  UNL1        0.0654
     38 H          -4.9527    3.0790    1.1674 H       1  UNL1        0.0625
     39 H          -7.1819    1.9558    2.6642 H       1  UNL1        0.0625
     40 H          -7.2773    1.8984    5.1331 H       1  UNL1        0.0654
     41 H          -4.4249   -1.3398    5.2543 H       1  UNL1        0.0665
     42 H          -6.5328    0.8729    7.0068 H       1  UNL1        0.2921
     43 H          -6.8527   -2.1463    2.3418 H       1  UNL1        0.0626
     44 H          -8.1497   -4.1932    2.2681 H       1  UNL1        0.0654
     45 H          -8.5576   -3.8040   -1.9971 H       1  UNL1        0.0654
     46 H          -7.2607   -1.7370   -1.9340 H       1  UNL1        0.0626
     47 H          -8.4618   -6.3893    1.6848 H       1  UNL1        0.0751
     48 H         -10.1627   -5.8787    1.4709 H       1  UNL1        0.0751
     49 H         -10.1482   -8.2640    1.2933 H       1  UNL1        0.0848
     50 H         -10.4110   -7.6404   -0.3613 H       1  UNL1        0.0848
     51 H         -10.0241   -9.9143   -0.8699 H       1  UNL1        0.0814
     52 H          -9.3787  -10.4201    0.7170 H       1  UNL1        0.0814
     53 H          -8.6377  -11.9136   -1.1757 H       1  UNL1        0.0317
     54 H          -7.2908  -11.1865   -0.3022 H       1  UNL1        0.0317
     55 H          -6.9534  -11.0415   -2.7662 H       1  UNL1        0.0269
     56 H          -8.4718  -10.1601   -2.9395 H       1  UNL1        0.0269
     57 H          -6.0616   -9.2562   -1.2773 H       1  UNL1        0.0317
     58 H          -6.5134   -8.6135   -2.8519 H       1  UNL1        0.0317
     59 H          -7.2692   -7.1812   -0.9164 H       1  UNL1        0.0814
     60 H          -8.6272   -7.7110   -1.9617 H       1  UNL1        0.0814
     61 H          -1.2095    5.0185    4.3326 H       1  UNL1        0.2921
     62 H          -7.8387   -8.6986    0.6951 H       1  UNL1        0.2034
@<TRIPOS>UNITY_ATOM_ATTR
28 1
charge 1
@<TRIPOS>BOND
     1     1     6   ar
     2     1     2   ar
     3     1    35    1
     4     2     3   ar
     5     2    36    1
     6     3     4   ar
     7     3    34    1
     8     4     5   ar
     9     4    37    1
    10     5     6   ar
    11     5    38    1
    12     6     7    1
    13     7    15   ar
    14     7     8   ar
    15     8     9   ar
    16     8    17    1
    17     9    14   ar
    18     9    10   ar
    19    10    11   ar
    20    10    39    1
    21    11    12   ar
    22    11    40    1
    23    12    13   ar
    24    12    16    1
    25    13    14   ar
    26    13    41    1
    27    14    15   ar
    28    16    42    1
    29    17    18    2
    30    17    19    1
    31    19    24   ar
    32    19    20   ar
    33    20    21   ar
    34    20    43    1
    35    21    22   ar
    36    21    44    1
    37    22    23   ar
    38    22    25    1
    39    23    24   ar
    40    23    45    1
    41    24    46    1
    42    25    26    1
    43    26    27    1
    44    26    47    1
    45    26    48    1
    46    27    28    1
    47    27    49    1
    48    27    50    1
    49    28    33    1
    50    28    29    1
    51    28    62    1
    52    29    30    1
    53    29    51    1
    54    29    52    1
    55    30    31    1
    56    30    53    1
    57    30    54    1
    58    31    32    1
    59    31    55    1
    60    31    56    1
    61    32    33    1
    62    32    57    1
    63    32    58    1
    64    33    59    1
    65    33    60    1
    66    34    61    1
