@<TRIPOS>MOLECULE
ZINC00000941
 41 42 0 0 0
SMALL
GASTEIGER

@<TRIPOS>ATOM
      1 C          -0.4950   -1.4235    0.3122 C.3     1  UNL1       -0.0428
      2 C          -0.5320   -0.0225   -0.3397 C.3     1  UNL1        0.0766
      3 C           0.7985    0.6807   -0.0088 C.3     1  UNL1       -0.0428
      4 C          -1.6429    0.7292    0.3109 C.1     1  UNL1        0.0734
      5 N          -2.5042    1.3334    0.8024 N.1     1  UNL1       -0.1957
      6 C          -0.7637   -0.0581   -1.8667 C.ar    1  UNL1       -0.0274
      7 C          -0.9771    1.1371   -2.5784 C.ar    1  UNL1       -0.0521
      8 C          -1.3822    1.1228   -3.9216 C.ar    1  UNL1       -0.0255
      9 C          -1.4842   -0.1050   -4.5935 C.ar    1  UNL1       -0.0521
     10 C          -1.2514   -1.3254   -3.9342 C.ar    1  UNL1       -0.0274
     11 C          -0.8830   -1.2692   -2.5758 C.ar    1  UNL1       -0.0524
     12 C          -1.5113   -2.6703   -4.6507 C.3     1  UNL1        0.0766
     13 C          -3.0085   -2.7413   -5.0237 C.3     1  UNL1       -0.0428
     14 C          -0.6530   -2.7917   -5.9245 C.3     1  UNL1       -0.0428
     15 C          -1.2111   -3.8616   -3.8113 C.1     1  UNL1        0.0734
     16 N          -0.9762   -4.7895   -3.1482 N.1     1  UNL1       -0.1957
     17 C          -1.7982    2.4022   -4.6087 C.3     1  UNL1        0.0682
     18 N          -0.6930    3.0557   -5.2749 N.ar    1  UNL1       -0.2477
     19 C           0.1323    4.0090   -4.7644 C.ar    1  UNL1        0.1146
     20 N           0.9543    4.4237   -5.7000 N.ar    1  UNL1       -0.2228
     21 C           0.5727    3.6925   -6.7893 C.ar    1  UNL1        0.1380
     22 N          -0.4428    2.8488   -6.5838 N.ar    1  UNL1       -0.1581
     23 H           0.3223   -2.0348   -0.0886 H       1  UNL1        0.0248
     24 H          -0.3468   -1.3566    1.3966 H       1  UNL1        0.0248
     25 H          -1.4366   -1.9656    0.1555 H       1  UNL1        0.0248
     26 H           1.6450    0.1854   -0.4976 H       1  UNL1        0.0248
     27 H           0.8008    1.7320   -0.3186 H       1  UNL1        0.0248
     28 H           0.9870    0.6718    1.0729 H       1  UNL1        0.0248
     29 H          -0.8945    2.0947   -2.0642 H       1  UNL1        0.0624
     30 H          -1.7967   -0.0995   -5.6383 H       1  UNL1        0.0624
     31 H          -0.7237   -2.2031   -2.0425 H       1  UNL1        0.0624
     32 H          -3.6410   -2.6270   -4.1342 H       1  UNL1        0.0248
     33 H          -3.2951   -1.9546   -5.7311 H       1  UNL1        0.0248
     34 H          -3.2632   -3.7035   -5.4844 H       1  UNL1        0.0248
     35 H          -0.8893   -2.0180   -6.6627 H       1  UNL1        0.0248
     36 H           0.4159   -2.7135   -5.6908 H       1  UNL1        0.0248
     37 H          -0.8071   -3.7630   -6.4124 H       1  UNL1        0.0248
     38 H          -2.5810    2.2090   -5.3524 H       1  UNL1        0.0559
     39 H          -2.2231    3.1073   -3.8842 H       1  UNL1        0.0559
     40 H           0.0899    4.3571   -3.7418 H       1  UNL1        0.1044
     41 H           1.0445    3.7824   -7.7593 H       1  UNL1        0.1065
@<TRIPOS>BOND
     1     1     2    1
     2     1    23    1
     3     1    24    1
     4     1    25    1
     5     2     3    1
     6     2     4    1
     7     2     6    1
     8     3    26    1
     9     3    27    1
    10     3    28    1
    11     4     5    3
    12     6    11   ar
    13     6     7   ar
    14     7     8   ar
    15     7    29    1
    16     8     9   ar
    17     8    17    1
    18     9    10   ar
    19     9    30    1
    20    10    11   ar
    21    10    12    1
    22    11    31    1
    23    12    13    1
    24    12    14    1
    25    12    15    1
    26    13    32    1
    27    13    33    1
    28    13    34    1
    29    14    35    1
    30    14    36    1
    31    14    37    1
    32    15    16    3
    33    17    18    1
    34    17    38    1
    35    17    39    1
    36    18    22   ar
    37    18    19   ar
    38    19    20   ar
    39    19    40    1
    40    20    21   ar
    41    21    22   ar
    42    21    41    1
