@<TRIPOS>MOLECULE
ZINC01812123
 59 60 0 0 0
SMALL
GASTEIGER

@<TRIPOS>ATOM
      1 C           2.2787   -1.4536   -0.8197 C.3     1  UNL1       -0.0244
      2 C           3.6935   -1.4864   -0.2602 C.3     1  UNL1       -0.0331
      3 N           4.2463   -2.9149   -0.0483 N.4     1  UNL1        0.2432
      4 C           4.2198   -3.6790   -1.3794 C.3     1  UNL1       -0.0412
      5 C           5.6977   -2.8425    0.4943 C.3     1  UNL1       -0.0331
      6 C           6.7183   -2.3346   -0.5133 C.3     1  UNL1       -0.0244
      7 C           3.3845   -3.7569    0.9524 C.3     1  UNL1        0.0047
      8 C           3.2551   -3.1855    2.3726 C.3     1  UNL1        0.1322
      9 O           2.6141   -1.9083    2.4672 O.3     1  UNL1       -0.4570
     10 C           1.2502   -1.9177    2.3912 C.2     1  UNL1        0.3442
     11 O           0.6161   -2.8449    1.9005 O.2     1  UNL1       -0.2472
     12 C           0.6206   -0.7385    3.1863 C.3     1  UNL1        0.1901
     13 C           1.0753    0.6151    2.6123 C.ar    1  UNL1       -0.0051
     14 C           0.2736    1.3020    1.6781 C.ar    1  UNL1       -0.0553
     15 C           0.6350    2.5646    1.1961 C.ar    1  UNL1       -0.0614
     16 C           1.8113    3.1671    1.6282 C.ar    1  UNL1       -0.0617
     17 C           2.6348    2.4985    2.5277 C.ar    1  UNL1       -0.0614
     18 C           2.2782    1.2318    3.0040 C.ar    1  UNL1       -0.0553
     19 C           0.9968   -0.9900    4.6911 C.3     1  UNL1        0.0026
     20 C           0.4575    0.0939    5.6454 C.3     1  UNL1       -0.0467
     21 C           0.8651   -0.1911    7.0910 C.3     1  UNL1       -0.0527
     22 C           0.3901   -1.5654    7.5430 C.3     1  UNL1       -0.0530
     23 C           0.9183   -2.6548    6.6220 C.3     1  UNL1       -0.0527
     24 C           0.5201   -2.3844    5.1770 C.3     1  UNL1       -0.0467
     25 O          -0.8086   -0.7983    3.0761 O.3     1  UNL1       -0.3730
     26 H           2.2737   -1.6984   -1.8859 H       1  UNL1        0.0281
     27 H           1.8647   -0.4458   -0.7161 H       1  UNL1        0.0281
     28 H           1.5912   -2.1371   -0.3234 H       1  UNL1        0.0281
     29 H           4.3586   -0.9816   -0.9667 H       1  UNL1        0.0812
     30 H           3.7709   -0.9540    0.6904 H       1  UNL1        0.0812
     31 H           4.7035   -3.0701   -2.1466 H       1  UNL1        0.0778
     32 H           4.7430   -4.6294   -1.2395 H       1  UNL1        0.0778
     33 H           3.1786   -3.8655   -1.6573 H       1  UNL1        0.0778
     34 H           5.6849   -2.1874    1.3716 H       1  UNL1        0.0812
     35 H           5.9725   -3.8545    0.8141 H       1  UNL1        0.0812
     36 H           6.4977   -1.3223   -0.8589 H       1  UNL1        0.0281
     37 H           7.7094   -2.3114   -0.0472 H       1  UNL1        0.0281
     38 H           6.8009   -2.9933   -1.3834 H       1  UNL1        0.0281
     39 H           2.4081   -3.9116    0.4889 H       1  UNL1        0.0849
     40 H           3.8745   -4.7372    1.0169 H       1  UNL1        0.0849
     41 H           2.7053   -3.9034    2.9944 H       1  UNL1        0.0752
     42 H           4.2377   -3.0853    2.8447 H       1  UNL1        0.0752
     43 H          -0.6756    0.8811    1.3469 H       1  UNL1        0.0621
     44 H          -0.0223    3.0914    0.5077 H       1  UNL1        0.0618
     45 H           2.0713    4.1657    1.2835 H       1  UNL1        0.0618
     46 H           3.5421    2.9801    2.8856 H       1  UNL1        0.0618
     47 H           2.9410    0.7620    3.7256 H       1  UNL1        0.0621
     48 H           2.0917   -0.9887    4.7851 H       1  UNL1        0.0337
     49 H           0.8457    1.0804    5.3728 H       1  UNL1        0.0269
     50 H          -0.6350    0.1519    5.5767 H       1  UNL1        0.0269
     51 H           0.4519    0.5790    7.7502 H       1  UNL1        0.0265
     52 H           1.9579   -0.1365    7.1786 H       1  UNL1        0.0265
     53 H          -0.7068   -1.5916    7.5443 H       1  UNL1        0.0265
     54 H           0.7197   -1.7574    8.5692 H       1  UNL1        0.0265
     55 H           0.5287   -3.6310    6.9322 H       1  UNL1        0.0265
     56 H           2.0116   -2.7091    6.6956 H       1  UNL1        0.0265
     57 H          -0.5690   -2.4686    5.0829 H       1  UNL1        0.0269
     58 H           0.9523   -3.1809    4.5633 H       1  UNL1        0.0269
     59 H          -1.0685   -1.7370    3.0442 H       1  UNL1        0.2113
@<TRIPOS>UNITY_ATOM_ATTR
3 1
charge 1
@<TRIPOS>BOND
     1     1     2    1
     2     1    26    1
     3     1    27    1
     4     1    28    1
     5     2     3    1
     6     2    29    1
     7     2    30    1
     8     3     4    1
     9     3     5    1
    10     3     7    1
    11     4    31    1
    12     4    32    1
    13     4    33    1
    14     5     6    1
    15     5    34    1
    16     5    35    1
    17     6    36    1
    18     6    37    1
    19     6    38    1
    20     7     8    1
    21     7    39    1
    22     7    40    1
    23     8     9    1
    24     8    41    1
    25     8    42    1
    26     9    10    1
    27    10    11    2
    28    12    19    1
    29    12    25    1
    30    13    18   ar
    31    13    14   ar
    32    14    15   ar
    33    14    43    1
    34    15    16   ar
    35    15    44    1
    36    16    17   ar
    37    16    45    1
    38    17    18   ar
    39    17    46    1
    40    18    47    1
    41    19    24    1
    42    19    20    1
    43    19    48    1
    44    20    21    1
    45    20    49    1
    46    20    50    1
    47    21    22    1
    48    21    51    1
    49    21    52    1
    50    22    23    1
    51    22    53    1
    52    22    54    1
    53    23    24    1
    54    23    55    1
    55    23    56    1
    56    24    57    1
    57    24    58    1
    58    25    59    1
    59    12    13    1
    60    12    10    1
