@<TRIPOS>MOLECULE
ZINC02020233
 30 32 0 0 0
SMALL
GASTEIGER

@<TRIPOS>ATOM
      1 C           2.4655   -0.7614   -0.0833 C.ar    1  UNL1       -0.0416
      2 C           1.2242   -1.3991   -0.0971 C.ar    1  UNL1       -0.0386
      3 C           0.0551   -0.6417    0.0090 C.ar    1  UNL1        0.0448
      4 C           0.0987    0.7440    0.1020 C.ar    1  UNL1        0.0397
      5 C           1.3571    1.3728    0.1559 C.ar    1  UNL1       -0.0334
      6 C           2.5275    0.6220    0.0536 C.ar    1  UNL1        0.0415
      7 CL          4.0522    1.4141    0.0982 Cl      1  UNL1       -0.0835
      8 C          -1.2052    1.5198    0.2020 C.3     1  UNL1        0.2958
      9 O          -2.3772    0.6910   -0.0281 O.3     1  UNL1       -0.4168
     10 C          -2.3720   -0.6401    0.1851 C.2     1  UNL1        0.4065
     11 O          -3.4063   -1.2681    0.3822 O.2     1  UNL1       -0.2261
     12 N          -1.1721   -1.2770    0.0911 N.am    1  UNL1       -0.2507
     13 C          -1.3593    2.0244    1.5891 C.1     1  UNL1       -0.0407
     14 C          -1.5421    2.3853    2.7245 C.1     1  UNL1       -0.0943
     15 C          -1.7973    2.7718    4.0760 C.3     1  UNL1        0.0209
     16 C          -0.6338    2.8564    5.0278 C.3     1  UNL1       -0.0382
     17 C          -1.3102    4.1122    4.5595 C.3     1  UNL1       -0.0382
     18 C          -1.2605    2.7025   -0.8330 C.3     1  UNL1        0.4460
     19 F          -0.1644    2.7606   -1.6343 F       1  UNL1       -0.1654
     20 F          -2.3229    2.6052   -1.6721 F       1  UNL1       -0.1654
     21 F          -1.3489    3.9187   -0.2363 F       1  UNL1       -0.1654
     22 H           3.3767   -1.3474   -0.1626 H       1  UNL1        0.0633
     23 H           1.1847   -2.4823   -0.1832 H       1  UNL1        0.0637
     24 H           1.4309    2.4529    0.2727 H       1  UNL1        0.0637
     25 H          -1.2269   -2.2863    0.1431 H       1  UNL1        0.1582
     26 H          -2.7403    2.4237    4.4902 H       1  UNL1        0.0433
     27 H          -0.7968    2.5377    6.0505 H       1  UNL1        0.0277
     28 H           0.3630    2.6491    4.6545 H       1  UNL1        0.0277
     29 H          -0.7728    4.7537    3.8696 H       1  UNL1        0.0277
     30 H          -1.9301    4.6495    5.2681 H       1  UNL1        0.0277
@<TRIPOS>BOND
     1     1     6   ar
     2     1     2   ar
     3     1    22    1
     4     2     3   ar
     5     2    23    1
     6     3    12    1
     7     3     4   ar
     8     4     5   ar
     9     4     8    1
    10     5     6   ar
    11     5    24    1
    12     6     7    1
    13     8     9    1
    14     9    10    1
    15    10    11    2
    16    10    12   am
    17    12    25    1
    18    13    14    3
    19    14    15    1
    20    15    17    1
    21    15    16    1
    22    15    26    1
    23    16    17    1
    24    16    27    1
    25    16    28    1
    26    17    29    1
    27    17    30    1
    28    18    19    1
    29    18    20    1
    30    18    21    1
    31     8    18    1
    32     8    13    1
