@<TRIPOS>MOLECULE
ZINC00538509
 57 58 0 0 0
SMALL
GASTEIGER

@<TRIPOS>ATOM
      1 C          -4.3667    2.7882    3.9431 C.3     1  UNL1       -0.0432
      2 N          -4.0691    1.4755    3.2745 N.4     1  UNL1        0.2333
      3 C          -5.3497    0.7733    2.9029 C.3     1  UNL1       -0.0432
      4 C          -3.1341    1.5742    2.0777 C.3     1  UNL1        0.0026
      5 C          -1.7117    2.0043    2.4575 C.3     1  UNL1        0.1291
      6 O          -1.1578    1.0579    3.3777 O.3     1  UNL1       -0.4867
      7 C           0.2144    1.0824    3.4704 C.ar    1  UNL1        0.1208
      8 C           1.0238    2.1661    3.1193 C.ar    1  UNL1       -0.0196
      9 C           2.4134    2.0805    3.2414 C.ar    1  UNL1       -0.0536
     10 C           3.0236    0.9204    3.7295 C.ar    1  UNL1       -0.0301
     11 C           2.2102   -0.1581    4.1003 C.ar    1  UNL1       -0.0536
     12 C           0.8165   -0.0743    3.9705 C.ar    1  UNL1       -0.0196
     13 C           4.5250    0.8748    3.8902 C.3     1  UNL1        0.0371
     14 N           4.9276    1.3185    5.2038 N.am    1  UNL1       -0.3072
     15 C           5.2061    2.6358    5.4965 C.2     1  UNL1        0.2446
     16 O           5.1755    3.5476    4.6761 O.2     1  UNL1       -0.2702
     17 C           5.5936    2.9070    6.9088 C.ar    1  UNL1        0.0438
     18 C           5.0199    2.1602    7.9376 C.ar    1  UNL1       -0.0040
     19 C           5.4517    2.3267    9.2523 C.ar    1  UNL1        0.1659
     20 C           6.4302    3.2995    9.5589 C.ar    1  UNL1        0.2035
     21 C           6.9560    4.1083    8.5248 C.ar    1  UNL1        0.1659
     22 C           6.5291    3.9007    7.2043 C.ar    1  UNL1       -0.0040
     23 O           7.8521    5.0840    8.8737 O.3     1  UNL1       -0.4913
     24 C           8.4218    5.8821    7.8442 C.3     1  UNL1        0.0790
     25 O           6.7359    3.4207   10.8966 O.3     1  UNL1       -0.4885
     26 C           8.0863    3.7073   11.2342 C.3     1  UNL1        0.0791
     27 O           4.9483    1.5726   10.2870 O.3     1  UNL1       -0.4913
     28 C           4.3827    0.3163    9.9204 C.3     1  UNL1        0.0790
     29 H          -4.8716    3.4396    3.2239 H       1  UNL1        0.0777
     30 H          -3.4302    3.2313    4.2860 H       1  UNL1        0.0777
     31 H          -5.0107    2.5889    4.8041 H       1  UNL1        0.0777
     32 H          -5.9042    1.4093    2.2070 H       1  UNL1        0.0777
     33 H          -5.0975   -0.1830    2.4360 H       1  UNL1        0.0777
     34 H          -5.9222    0.6008    3.8173 H       1  UNL1        0.0777
     35 H          -3.0949    0.5677    1.6462 H       1  UNL1        0.0848
     36 H          -3.5852    2.2650    1.3603 H       1  UNL1        0.0848
     37 H          -1.1255    2.0239    1.5295 H       1  UNL1        0.0751
     38 H          -1.7123    3.0039    2.9037 H       1  UNL1        0.0751
     39 H           0.6149    3.1042    2.7576 H       1  UNL1        0.0654
     40 H           3.0299    2.9374    2.9637 H       1  UNL1        0.0622
     41 H           2.6537   -1.0723    4.4887 H       1  UNL1        0.0622
     42 H           0.2056   -0.9282    4.2570 H       1  UNL1        0.0654
     43 H           4.8861   -0.1507    3.7632 H       1  UNL1        0.0512
     44 H           5.0158    1.4883    3.1223 H       1  UNL1        0.0512
     45 H           5.0939    0.6022    5.8986 H       1  UNL1        0.1493
     46 H           4.2186    1.4733    7.6986 H       1  UNL1        0.0663
     47 H           6.9063    4.5016    6.3812 H       1  UNL1        0.0663
     48 H           8.9503    5.2661    7.1086 H       1  UNL1        0.0660
     49 H           7.6599    6.5071    7.3688 H       1  UNL1        0.0660
     50 H           9.1591    6.5462    8.3055 H       1  UNL1        0.0660
     51 H           8.7900    3.0659   10.6915 H       1  UNL1        0.0660
     52 H           8.3227    4.7662   11.1018 H       1  UNL1        0.0660
     53 H           8.2107    3.5015   12.3047 H       1  UNL1        0.0660
     54 H           3.4003    0.4528    9.4544 H       1  UNL1        0.0660
     55 H           5.0511   -0.2454    9.2564 H       1  UNL1        0.0660
     56 H           4.2383   -0.2772   10.8269 H       1  UNL1        0.0660
     57 H          -3.5773    0.8863    3.9644 H       1  UNL1        0.2029
@<TRIPOS>UNITY_ATOM_ATTR
2 1
charge 1
@<TRIPOS>BOND
     1     1     2    1
     2     1    29    1
     3     1    30    1
     4     1    31    1
     5     2     3    1
     6     2     4    1
     7     2    57    1
     8     3    32    1
     9     3    33    1
    10     3    34    1
    11     4     5    1
    12     4    35    1
    13     4    36    1
    14     5     6    1
    15     5    37    1
    16     5    38    1
    17     6     7    1
    18     7    12   ar
    19     7     8   ar
    20     8     9   ar
    21     8    39    1
    22     9    10   ar
    23     9    40    1
    24    10    11   ar
    25    10    13    1
    26    11    12   ar
    27    11    41    1
    28    12    42    1
    29    13    14    1
    30    13    43    1
    31    13    44    1
    32    14    15   am
    33    14    45    1
    34    15    16    2
    35    15    17    1
    36    17    22   ar
    37    17    18   ar
    38    18    19   ar
    39    18    46    1
    40    19    20   ar
    41    19    27    1
    42    20    21   ar
    43    20    25    1
    44    21    22   ar
    45    21    23    1
    46    22    47    1
    47    23    24    1
    48    24    48    1
    49    24    49    1
    50    24    50    1
    51    25    26    1
    52    26    51    1
    53    26    52    1
    54    26    53    1
    55    27    28    1
    56    28    54    1
    57    28    55    1
    58    28    56    1
