@<TRIPOS>MOLECULE
ZINC03831138
 65 65 0 0 0
SMALL
GASTEIGER

@<TRIPOS>ATOM
      1 C          -8.6118   -3.6914    3.0391 C.3     1  UNL1       -0.0653
      2 C          -8.8023   -3.8116    1.5329 C.3     1  UNL1       -0.0558
      3 C          -7.6498   -4.5177    0.8071 C.3     1  UNL1       -0.0507
      4 C          -6.3083   -3.7831    0.9286 C.3     1  UNL1       -0.0240
      5 C          -5.1300   -4.4531    0.1688 C.3     1  UNL1        0.0667
      6 C          -4.9426   -5.9202    0.5797 C.3     1  UNL1       -0.0358
      7 C          -3.8104   -3.6464    0.3339 C.3     1  UNL1       -0.0060
      8 C          -3.2970   -3.5476    1.7386 C.2     1  UNL1       -0.0849
      9 C          -2.0049   -3.4565    2.0919 C.2     1  UNL1       -0.0816
     10 C          -1.5693   -3.3816    3.5382 C.3     1  UNL1        0.0130
     11 H          -0.4749   -3.2846    3.5501 H       1  UNL1        0.0375
     12 C          -2.1828   -2.1728    4.2728 C.3     1  UNL1        0.0688
     13 H          -3.2001   -1.9431    3.9426 H       1  UNL1        0.0603
     14 C          -2.1985   -2.5529    5.7400 C.3     1  UNL1        0.0327
     15 C          -2.3862   -4.0387    5.6746 C.2     1  UNL1        0.1395
     16 O          -2.8236   -4.6978    6.6104 O.2     1  UNL1       -0.2970
     17 C          -2.0130   -4.6298    4.3327 C.3     1  UNL1        0.0262
     18 H          -2.9247   -5.0611    3.9084 H       1  UNL1        0.0384
     19 C          -0.8917   -5.6732    4.3885 C.3     1  UNL1       -0.0429
     20 C          -1.2458   -6.9874    5.0936 C.3     1  UNL1       -0.0524
     21 C          -2.4125   -7.7260    4.4400 C.3     1  UNL1       -0.0530
     22 C          -2.7117   -9.0488    5.1473 C.3     1  UNL1       -0.0526
     23 C          -3.9132   -9.7821    4.5471 C.3     1  UNL1       -0.0430
     24 C          -3.7256  -10.1557    3.0761 C.3     1  UNL1        0.0449
     25 C          -4.9203  -10.9069    2.5465 C.2     1  UNL1        0.3068
     26 O          -5.6896  -11.5728    3.2307 O.2     1  UNL1       -0.2509
     27 O          -5.0069  -10.7562    1.1974 O.3     1  UNL1       -0.4679
     28 C          -6.1246  -11.4210    0.6072 C.3     1  UNL1        0.0817
     29 O          -1.3828   -1.0121    4.0740 O.3     1  UNL1       -0.3908
     30 O          -5.4382   -4.4525   -1.2330 O.3     1  UNL1       -0.3885
     31 H          -8.3153   -4.6471    3.4828 H       1  UNL1        0.0230
     32 H          -9.5485   -3.3764    3.5117 H       1  UNL1        0.0230
     33 H          -7.8529   -2.9428    3.2868 H       1  UNL1        0.0230
     34 H          -9.7205   -4.3817    1.3470 H       1  UNL1        0.0263
     35 H          -8.9579   -2.8134    1.1080 H       1  UNL1        0.0263
     36 H          -7.5587   -5.5336    1.2078 H       1  UNL1        0.0266
     37 H          -7.9174   -4.6132   -0.2512 H       1  UNL1        0.0266
     38 H          -6.4416   -2.7631    0.5454 H       1  UNL1        0.0293
     39 H          -6.0657   -3.6971    1.9914 H       1  UNL1        0.0293
     40 H          -5.6715   -6.5664    0.0765 H       1  UNL1        0.0257
     41 H          -3.9554   -6.2915    0.2815 H       1  UNL1        0.0257
     42 H          -5.0403   -6.0601    1.6614 H       1  UNL1        0.0257
     43 H          -3.0405   -4.0766   -0.3164 H       1  UNL1        0.0335
     44 H          -3.9750   -2.6261   -0.0336 H       1  UNL1        0.0335
     45 H          -4.0459   -3.5535    2.5272 H       1  UNL1        0.0570
     46 H          -1.2249   -3.4474    1.3307 H       1  UNL1        0.0573
     47 H          -3.0334   -2.0757    6.2602 H       1  UNL1        0.0367
     48 H          -1.2573   -2.3180    6.2481 H       1  UNL1        0.0367
     49 H          -0.5755   -5.9087    3.3635 H       1  UNL1        0.0272
     50 H          -0.0166   -5.2452    4.8939 H       1  UNL1        0.0272
     51 H          -0.3593   -7.6341    5.0660 H       1  UNL1        0.0265
     52 H          -1.4592   -6.8037    6.1513 H       1  UNL1        0.0265
     53 H          -3.3179   -7.1108    4.4609 H       1  UNL1        0.0265
     54 H          -2.1613   -7.9061    3.3893 H       1  UNL1        0.0265
     55 H          -1.8299   -9.6996    5.1169 H       1  UNL1        0.0265
     56 H          -2.9234   -8.8509    6.2058 H       1  UNL1        0.0265
     57 H          -4.0949  -10.6892    5.1368 H       1  UNL1        0.0270
     58 H          -4.8129   -9.1620    4.6547 H       1  UNL1        0.0270
     59 H          -3.6140   -9.2481    2.4744 H       1  UNL1        0.0377
     60 H          -2.8360  -10.7802    2.9433 H       1  UNL1        0.0377
     61 H          -6.2053  -12.4555    0.9565 H       1  UNL1        0.0661
     62 H          -7.0425  -10.8672    0.8254 H       1  UNL1        0.0661
     63 H          -5.9745  -11.4380   -0.4755 H       1  UNL1        0.0661
     64 H          -1.3532   -0.8429    3.1140 H       1  UNL1        0.2098
     65 H          -5.4803   -3.5267   -1.5294 H       1  UNL1        0.2102
@<TRIPOS>BOND
     1     1     2    1
     2     1    31    1
     3     1    32    1
     4     1    33    1
     5     2     3    1
     6     2    34    1
     7     2    35    1
     8     3     4    1
     9     3    36    1
    10     3    37    1
    11     4    38    1
    12     4    39    1
    13     5     7    1
    14     5    30    1
    15     6    40    1
    16     6    41    1
    17     6    42    1
    18     7     8    1
    19     7    43    1
    20     7    44    1
    21     8     9    2
    22     8    45    1
    23     9    10    1
    24     9    46    1
    25    10    11    1
    26    10    17    1
    27    10    12    1
    28    12    14    1
    29    14    15    1
    30    14    47    1
    31    14    48    1
    32    15    16    2
    33    15    17    1
    34    17    18    1
    35    17    19    1
    36    19    20    1
    37    19    49    1
    38    19    50    1
    39    20    21    1
    40    20    51    1
    41    20    52    1
    42    21    22    1
    43    21    53    1
    44    21    54    1
    45    22    23    1
    46    22    55    1
    47    22    56    1
    48    23    24    1
    49    23    57    1
    50    23    58    1
    51    24    25    1
    52    24    59    1
    53    24    60    1
    54    25    26    2
    55    25    27    1
    56    27    28    1
    57    28    61    1
    58    28    62    1
    59    28    63    1
    60    29    64    1
    61    30    65    1
    62     5     6    1
    63     5     4    1
    64    12    29    1
    65    12    13    1
