@<TRIPOS>MOLECULE
ZINC03871960
 58 61 0 0 0
SMALL
GASTEIGER

@<TRIPOS>ATOM
      1 C           6.2693   10.4415    4.4402 C.3     1  UNL1       -0.0118
      2 C           7.3164    9.3346    4.5525 C.3     1  UNL1        0.2324
      3 C           8.1811    9.3153    3.2890 C.3     1  UNL1       -0.0118
      4 C           8.2423    9.5718    5.8140 C.2     1  UNL1        0.4009
      5 O           7.7292   10.2063    6.7897 O.co2   1  UNL1       -0.2418
      6 O           6.5909    8.0660    4.5849 O.2     1  UNL1       -0.3754
      7 N           6.2585    7.7615    5.8965 N.2     1  UNL1       -0.0766
      8 C           5.1988    7.0345    6.0885 C.2     1  UNL1        0.1898
      9 C           4.9634    6.7669    7.5160 C.ar    1  UNL1        0.1067
     10 C           5.8609    7.1778    8.4965 C.ar    1  UNL1        0.0067
     11 S           5.3611    6.6511   10.0354 S.2     1  UNL1       -0.0604
     12 C           3.9488    5.9894    9.3259 C.ar    1  UNL1        0.1562
     13 N           3.8371    6.1097    8.0234 N.ar    1  UNL1       -0.2233
     14 N           3.0165    5.4251   10.1137 N.pl3   1  UNL1       -0.3375
     15 C           4.3007    6.4873    4.9720 C.2     1  UNL1        0.2684
     16 O           4.7904    5.9468    3.9913 O.2     1  UNL1       -0.2683
     17 N           2.9220    6.5568    5.1834 N.am    1  UNL1       -0.2963
     18 CA          1.9954    6.0814    4.1094 C.3     1  UNL1        0.1286
     19 HA          2.2188    5.0327    3.8608 H       1  UNL1        0.0622
     20 C           0.4506    6.3490    4.1995 C.3     1  UNL1        0.1042
     21 H          -0.1436    5.4607    4.4397 H       1  UNL1        0.0644
     22 N           0.5241    6.6033    2.7605 N.am    1  UNL1       -0.2488
     23 C           1.8543    6.9681    2.8280 C.2     1  UNL1        0.2440
     24 O           2.5299    7.7899    2.2459 O.2     1  UNL1       -0.2731
     25 CA         -0.4308    7.2772    2.0287 C.2     1  UNL1        0.1278
     26 C          -1.3495    8.0766    2.6271 C.2     1  UNL1       -0.0141
     27 C          -1.5289    8.1491    4.1247 C.3     1  UNL1        0.0203
     28 S          -0.0488    7.8392    5.1187 S.3     1  UNL1       -0.1311
     29 C          -2.3445    8.9485    1.8624 C.3     1  UNL1        0.0364
     30 N          -1.7748   10.2884    1.5782 N.pl3   1  UNL1       -0.3231
     31 C          -1.8379   11.3281    2.5016 C.3     1  UNL1        0.0640
     32 C          -1.3732   12.6498    2.1475 C.2     1  UNL1       -0.0618
     33 C          -0.7817   12.8563    0.9570 C.2     1  UNL1       -0.0627
     34 C          -0.6222   11.7450    0.0348 C.2     1  UNL1       -0.0483
     35 C          -1.1284   10.5453    0.3639 C.2     1  UNL1       -0.0071
     36 C          -0.4177    6.9811    0.4522 C.2     1  UNL1        0.4006
     37 O           0.6703    6.5539   -0.0207 O.co2   1  UNL1       -0.2392
     38 H           6.7339   11.4311    4.3842 H       1  UNL1        0.0274
     39 H           5.5880   10.4312    5.2986 H       1  UNL1        0.0274
     40 H           5.6435   10.2958    3.5525 H       1  UNL1        0.0274
     41 H           8.7270   10.2572    3.1620 H       1  UNL1        0.0274
     42 H           8.9133    8.4995    3.3157 H       1  UNL1        0.0274
     43 H           7.5705    9.1452    2.3955 H       1  UNL1        0.0274
     44 H           6.7789    7.7400    8.3585 H       1  UNL1        0.0716
     45 H           3.0894    5.6446   11.1000 H       1  UNL1        0.1442
     46 H           2.0722    5.4789    9.7514 H       1  UNL1        0.1442
     47 H           2.5865    6.8449    6.0944 H       1  UNL1        0.1499
     48 H          -2.3057    7.4281    4.4154 H       1  UNL1        0.0424
     49 H          -1.8965    9.1300    4.4336 H       1  UNL1        0.0424
     50 H          -2.7322    8.5103    0.9491 H       1  UNL1        0.0511
     51 H          -3.2524    9.0731    2.4691 H       1  UNL1        0.0511
     52 H          -2.0923   11.0797    3.5195 H       1  UNL1        0.0565
     53 H          -1.4972   13.4496    2.8668 H       1  UNL1        0.0591
     54 H          -0.4077   13.8290    0.6664 H       1  UNL1        0.0615
     55 H          -0.0852   11.8980   -0.8931 H       1  UNL1        0.0630
     56 H          -1.0324    9.6877   -0.3004 H       1  UNL1        0.0780
     57 O           9.4474    9.1740    5.7193 O.co2   1  UNL1       -0.2418
     58 OXT        -1.5510    7.0323   -0.1168 O.co2   1  UNL1       -0.2392
@<TRIPOS>BOND
     1     1     2    1
     2     1    38    1
     3     1    39    1
     4     1    40    1
     5     2     3    1
     6     2     4    1
     7     2     6    1
     8     3    41    1
     9     3    42    1
    10     3    43    1
    11     4     5   ar
    12     4    57   ar
    13     6     7    1
    14     7     8    2
    15     8     9    1
    16     8    15    1
    17     9    13   ar
    18     9    10   ar
    19    10    11   ar
    20    10    44    1
    21    11    12   ar
    22    12    13   ar
    23    12    14    1
    24    14    45    1
    25    14    46    1
    26    15    16    2
    27    15    17   am
    28    17    47    1
    29    18    23    1
    30    18    20    1
    31    20    21    1
    32    20    28    1
    33    20    22    1
    34    22    23   am
    35    22    25    1
    36    23    24    2
    37    25    26    2
    38    25    36    1
    39    26    27    1
    40    26    29    1
    41    27    28    1
    42    27    48    1
    43    27    49    1
    44    29    30    1
    45    29    50    1
    46    29    51    1
    47    30    35    1
    48    30    31    1
    49    31    32    1
    50    31    52    1
    51    32    33    2
    52    32    53    1
    53    33    34    1
    54    33    54    1
    55    34    35    2
    56    34    55    1
    57    35    56    1
    58    36    37   ar
    59    36    58   ar
    60    18    19    1
    61    18    17    1
