@<TRIPOS>MOLECULE
ZINC00897225
 28 29 0 0 0
SMALL
GASTEIGER

@<TRIPOS>ATOM
      1 C          -2.4069    0.9865   -0.0671 C.ar    1  UNL1       -0.0254
      2 C          -3.2596   -0.1406   -0.0389 C.ar    1  UNL1        0.0829
      3 C          -2.6711   -1.4138    0.0708 C.ar    1  UNL1        0.1186
      4 C          -1.2779   -1.5576    0.0448 C.ar    1  UNL1       -0.0066
      5 C          -0.4780   -0.4117   -0.0182 C.ar    1  UNL1        0.1279
      6 C          -1.0103    0.8770   -0.0368 C.ar    1  UNL1        0.0554
      7 N          -0.2590    2.0296    0.1499 N.pl3   1  UNL1       -0.3284
      8 C           1.1834    2.0246    0.1308 C.3     1  UNL1        0.0798
      9 N           1.7036    0.8483    0.7820 N.3     1  UNL1       -0.1728
     10 S           1.2697   -0.5550   -0.0136 S.O2    1  UNL1        0.0616
     11 O           1.6528   -1.6546    0.8473 O.2     1  UNL1       -0.1529
     12 O           1.7412   -0.4584   -1.3756 O.2     1  UNL1       -0.1529
     13 S          -3.6673   -2.8703    0.3007 S.O2    1  UNL1        0.0566
     14 O          -4.7316   -2.8660   -0.6680 O.2     1  UNL1       -0.1532
     15 O          -2.8005   -4.0085    0.4943 O.2     1  UNL1       -0.1532
     16 N          -4.3576   -2.5772    1.7993 N.3     1  UNL1       -0.2035
     17 C          -4.7527    0.0887   -0.1331 C.3     1  UNL1        0.4193
     18 F          -5.0778    1.4168   -0.1320 F       1  UNL1       -0.1658
     19 F          -5.2943   -0.3980   -1.2783 F       1  UNL1       -0.1658
     20 F          -5.4621   -0.4438    0.8978 F       1  UNL1       -0.1658
     21 H          -2.8504    1.9841   -0.0843 H       1  UNL1        0.0643
     22 H          -0.8115   -2.5403    0.0979 H       1  UNL1        0.0657
     23 H          -0.6750    2.8828   -0.2111 H       1  UNL1        0.1474
     24 H           1.5304    2.8991    0.6927 H       1  UNL1        0.0644
     25 H           1.5731    2.1372   -0.8859 H       1  UNL1        0.0644
     26 H           2.7000    0.8603    0.9816 H       1  UNL1        0.1498
     27 H          -5.3310   -2.2763    1.7047 H       1  UNL1        0.1442
     28 H          -4.2333   -3.3830    2.4139 H       1  UNL1        0.1442
@<TRIPOS>BOND
     1     1     6   ar
     2     1     2   ar
     3     1    21    1
     4     2     3   ar
     5     2    17    1
     6     3     4   ar
     7     3    13    1
     8     4     5   ar
     9     4    22    1
    10     5    10    1
    11     5     6   ar
    12     6     7    1
    13     7     8    1
    14     7    23    1
    15     8     9    1
    16     8    24    1
    17     8    25    1
    18     9    10    1
    19     9    26    1
    20    10    11    2
    21    10    12    2
    22    13    14    2
    23    13    15    2
    24    13    16    1
    25    16    27    1
    26    16    28    1
    27    17    18    1
    28    17    19    1
    29    17    20    1
