@<TRIPOS>MOLECULE
ZINC03830276
 95 95 0 0 0
SMALL
GASTEIGER

@<TRIPOS>ATOM
      1 C           0.7217   17.9261    3.1366 C.3     1  UNL1       -0.0652
      2 C           0.3474   16.8284    2.1518 C.3     1  UNL1       -0.0545
      3 C           0.1607   17.4036    0.7509 C.3     1  UNL1       -0.0377
      4 C          -0.1219   16.3466   -0.3138 C.3     1  UNL1        0.0091
      5 N          -1.4181   15.6876   -0.1105 N.pl3   1  UNL1       -0.3438
      6 C          -2.0902   15.3260   -1.2916 C.ar    1  UNL1        0.0272
      7 C          -3.4877   15.3537   -1.3377 C.ar    1  UNL1       -0.0401
      8 C          -4.1644   15.1237   -2.5396 C.ar    1  UNL1       -0.0460
      9 C          -3.4607   14.8050   -3.7008 C.ar    1  UNL1        0.0591
     10 C          -2.0685   14.6372   -3.6271 C.ar    1  UNL1       -0.0460
     11 C          -1.4022   14.8701   -2.4271 C.ar    1  UNL1       -0.0401
     12 C          -4.1942   14.6977   -4.9851 C.2     1  UNL1        0.3393
     13 O          -5.3776   14.9670   -5.1150 O.2     1  UNL1       -0.2450
     14 O          -3.3601   14.2922   -5.9753 O.3     1  UNL1       -0.4588
     15 C          -3.9407   14.1906   -7.2866 C.3     1  UNL1        0.1160
     16 C          -4.7796   12.9202   -7.4416 C.3     1  UNL1        0.0819
     17 O          -3.9746   11.7381   -7.2922 O.3     1  UNL1       -0.3742
     18 C          -4.7676   10.5599   -7.4882 C.3     1  UNL1        0.0711
     19 C          -3.9360    9.2892   -7.2995 C.3     1  UNL1        0.0711
     20 O          -4.6285    8.1171   -7.7410 O.3     1  UNL1       -0.3752
     21 C          -5.3578    7.3879   -6.7491 C.3     1  UNL1        0.0711
     22 C          -6.8200    7.8373   -6.6569 C.3     1  UNL1        0.0711
     23 O          -7.7222    6.9185   -6.0397 O.3     1  UNL1       -0.3752
     24 C          -7.4656    6.5016   -4.7028 C.3     1  UNL1        0.0711
     25 C          -7.4348    7.6184   -3.6549 C.3     1  UNL1        0.0711
     26 O          -7.3322    7.1614   -2.3027 O.3     1  UNL1       -0.3752
     27 C          -6.2368    6.2994   -1.9803 C.3     1  UNL1        0.0711
     28 C          -4.8576    6.9197   -2.2281 C.3     1  UNL1        0.0711
     29 O          -3.7476    6.0963   -1.8710 O.3     1  UNL1       -0.3752
     30 C          -3.6361    4.8289   -2.5181 C.3     1  UNL1        0.0711
     31 C          -3.4370    4.9005   -4.0357 C.3     1  UNL1        0.0711
     32 O          -3.1165    3.6599   -4.6675 O.3     1  UNL1       -0.3752
     33 C          -4.0107    2.5636   -4.4775 C.3     1  UNL1        0.0711
     34 C          -5.4270    2.7820   -5.0189 C.3     1  UNL1        0.0711
     35 O          -6.2778    1.6373   -4.9253 O.3     1  UNL1       -0.3752
     36 C          -6.5256    1.1074   -3.6204 C.3     1  UNL1        0.0711
     37 C          -7.1572    2.1016   -2.6399 C.3     1  UNL1        0.0711
     38 O          -7.5250    1.5460   -1.3796 O.3     1  UNL1       -0.3752
     39 C          -6.4798    1.0092   -0.5672 C.3     1  UNL1        0.0711
     40 C          -5.3295    1.9666   -0.2265 C.3     1  UNL1        0.0706
     41 O          -5.7298    3.1853    0.3977 O.3     1  UNL1       -0.3807
     42 C          -6.2696    3.0067    1.7019 C.3     1  UNL1        0.0365
     43 H           1.6663   18.4016    2.8517 H       1  UNL1        0.0230
     44 H           0.8386   17.5124    4.1423 H       1  UNL1        0.0230
     45 H          -0.0520   18.7001    3.1733 H       1  UNL1        0.0230
     46 H           1.1357   16.0671    2.1425 H       1  UNL1        0.0263
     47 H          -0.5745   16.3422    2.4889 H       1  UNL1        0.0263
     48 H          -0.6471   18.1460    0.7589 H       1  UNL1        0.0280
     49 H           1.0759   17.9354    0.4603 H       1  UNL1        0.0280
     50 H          -0.1008   16.8727   -1.2773 H       1  UNL1        0.0461
     51 H           0.6742   15.5934   -0.3242 H       1  UNL1        0.0461
     52 H          -2.0334   16.2071    0.5105 H       1  UNL1        0.1461
     53 H          -4.0591   15.6067   -0.4487 H       1  UNL1        0.0636
     54 H          -5.2503   15.2146   -2.5647 H       1  UNL1        0.0626
     55 H          -1.4903   14.3533   -4.5032 H       1  UNL1        0.0626
     56 H          -0.3237   14.7250   -2.4014 H       1  UNL1        0.0636
     57 H          -4.5428   15.0837   -7.4986 H       1  UNL1        0.0721
     58 H          -3.1067   14.1856   -7.9966 H       1  UNL1        0.0721
     59 H          -5.5721   12.8939   -6.6873 H       1  UNL1        0.0594
     60 H          -5.2324   12.9187   -8.4393 H       1  UNL1        0.0594
     61 H          -5.5956   10.5644   -6.7732 H       1  UNL1        0.0583
     62 H          -5.1924   10.5727   -8.4986 H       1  UNL1        0.0583
     63 H          -3.0356    9.3720   -7.9207 H       1  UNL1        0.0583
     64 H          -3.5796    9.1868   -6.2682 H       1  UNL1        0.0583
     65 H          -5.3339    6.3354   -7.0560 H       1  UNL1        0.0583
     66 H          -4.8570    7.4335   -5.7768 H       1  UNL1        0.0583
     67 H          -6.9026    8.8120   -6.1698 H       1  UNL1        0.0583
     68 H          -7.1941    7.9821   -7.6774 H       1  UNL1        0.0583
     69 H          -8.2685    5.8041   -4.4325 H       1  UNL1        0.0583
     70 H          -6.5476    5.9119   -4.6857 H       1  UNL1        0.0583
     71 H          -6.6341    8.3363   -3.8561 H       1  UNL1        0.0583
     72 H          -8.3672    8.1910   -3.7228 H       1  UNL1        0.0583
     73 H          -6.3260    6.0490   -0.9159 H       1  UNL1        0.0583
     74 H          -6.3617    5.3525   -2.5106 H       1  UNL1        0.0583
     75 H          -4.7412    7.2463   -3.2647 H       1  UNL1        0.0583
     76 H          -4.7816    7.8321   -1.6244 H       1  UNL1        0.0583
     77 H          -2.7721    4.3209   -2.0749 H       1  UNL1        0.0583
     78 H          -4.5007    4.2147   -2.2630 H       1  UNL1        0.0583
     79 H          -4.3061    5.3385   -4.5314 H       1  UNL1        0.0583
     80 H          -2.6049    5.5832   -4.2450 H       1  UNL1        0.0583
     81 H          -3.5733    1.7054   -5.0015 H       1  UNL1        0.0583
     82 H          -4.0196    2.2830   -3.4215 H       1  UNL1        0.0583
     83 H          -5.9148    3.6364   -4.5438 H       1  UNL1        0.0583
     84 H          -5.3592    3.0400   -6.0827 H       1  UNL1        0.0583
     85 H          -7.2114    0.2609   -3.7481 H       1  UNL1        0.0583
     86 H          -5.6025    0.6745   -3.2237 H       1  UNL1        0.0583
     87 H          -6.5156    2.9698   -2.4792 H       1  UNL1        0.0583
     88 H          -8.0746    2.4962   -3.0922 H       1  UNL1        0.0583
     89 H          -6.9606    0.6840    0.3613 H       1  UNL1        0.0583
     90 H          -6.0817    0.1075   -1.0436 H       1  UNL1        0.0583
     91 H          -4.5925    1.4617    0.4092 H       1  UNL1        0.0582
     92 H          -4.8042    2.2473   -1.1416 H       1  UNL1        0.0582
     93 H          -7.3554    2.8986    1.6375 H       1  UNL1        0.0524
     94 H          -5.8366    2.1410    2.2142 H       1  UNL1        0.0524
     95 H          -6.0458    3.9004    2.2921 H       1  UNL1        0.0524
@<TRIPOS>BOND
     1     1     2    1
     2     1    43    1
     3     1    44    1
     4     1    45    1
     5     2     3    1
     6     2    46    1
     7     2    47    1
     8     3     4    1
     9     3    48    1
    10     3    49    1
    11     4     5    1
    12     4    50    1
    13     4    51    1
    14     5     6    1
    15     5    52    1
    16     6    11   ar
    17     6     7   ar
    18     7     8   ar
    19     7    53    1
    20     8     9   ar
    21     8    54    1
    22     9    10   ar
    23     9    12    1
    24    10    11   ar
    25    10    55    1
    26    11    56    1
    27    12    13    2
    28    12    14    1
    29    14    15    1
    30    15    16    1
    31    15    57    1
    32    15    58    1
    33    16    17    1
    34    16    59    1
    35    16    60    1
    36    17    18    1
    37    18    19    1
    38    18    61    1
    39    18    62    1
    40    19    20    1
    41    19    63    1
    42    19    64    1
    43    20    21    1
    44    21    22    1
    45    21    65    1
    46    21    66    1
    47    22    23    1
    48    22    67    1
    49    22    68    1
    50    23    24    1
    51    24    25    1
    52    24    69    1
    53    24    70    1
    54    25    26    1
    55    25    71    1
    56    25    72    1
    57    26    27    1
    58    27    28    1
    59    27    73    1
    60    27    74    1
    61    28    29    1
    62    28    75    1
    63    28    76    1
    64    29    30    1
    65    30    31    1
    66    30    77    1
    67    30    78    1
    68    31    32    1
    69    31    79    1
    70    31    80    1
    71    32    33    1
    72    33    34    1
    73    33    81    1
    74    33    82    1
    75    34    35    1
    76    34    83    1
    77    34    84    1
    78    35    36    1
    79    36    37    1
    80    36    85    1
    81    36    86    1
    82    37    38    1
    83    37    87    1
    84    37    88    1
    85    38    39    1
    86    39    40    1
    87    39    89    1
    88    39    90    1
    89    40    41    1
    90    40    91    1
    91    40    92    1
    92    41    42    1
    93    42    93    1
    94    42    94    1
    95    42    95    1
