@<TRIPOS>MOLECULE
ZINC03589203
 18 17 0 0 0
SMALL
GASTEIGER

@<TRIPOS>ATOM
      1 C           0.4219   -4.2987   -1.5596 C.3     0  UNK0        0.0122
      2 C           0.3616   -3.0746   -0.6916 C.2     0  UNK0        0.2106
      3 O          -0.1404   -3.1173    0.4306 O.2     0  UNK0       -0.2761
      4 N           0.8557   -1.9135   -1.1938 N.am    1  CYS1       -0.3018
      5 CA          1.6123   -1.6459   -2.4441 C.3     1  CYS1        0.1334
      6 HA          2.3829   -2.4257   -2.5111 H       1  CYS1        0.0624
      7 CB          0.7620   -1.6910   -3.7181 C.3     1  CYS1        0.0197
      8 SG         -0.8326   -0.7996   -3.6160 S.3     1  CYS1       -0.1759
      9 C           2.3857   -0.2901   -2.4086 C.2     1  CYS1        0.3766
     10 O           3.0892   -0.0321   -3.4257 O.co2   1  CYS1       -0.2442
     11 OXT         2.2510    0.3584   -1.3270 O.co2   1  CYS1       -0.2442
     12 H           0.0103   -5.1505   -1.0084 H       0  UNK0        0.0322
     13 H           1.4567   -4.5304   -1.8235 H       0  UNK0        0.0322
     14 H          -0.1844   -4.1613   -2.4561 H       0  UNK0        0.0322
     15 H           0.9015   -1.1211   -0.5499 H       1  CYS1        0.1495
     16 HB1         1.3028   -1.3188   -4.5938 H       1  CYS1        0.0397
     17 HB2         0.5083   -2.7301   -3.9451 H       1  CYS1        0.0397
     18 HG         -1.0989   -1.1555   -2.3493 H       1  CYS1        0.1017
@<TRIPOS>BOND
     1     1     2    1
     2     1    12    1
     3     1    13    1
     4     1    14    1
     5     2     3    2
     6     2     4   am
     7     4     5    1
     8     4    15    1
     9     5     6    1
    10     5     7    1
    11     5     9    1
    12     7     8    1
    13     7    16    1
    14     7    17    1
    15     8    18    1
    16     9    10   ar
    17     9    11   ar
