@<TRIPOS>MOLECULE
ZINC00000368
 45 47 0 0 0
SMALL
GASTEIGER

@<TRIPOS>ATOM
      1 C           1.0539    0.3320    0.4923 C.3     1  UNL1       -0.0410
      2 N           0.2003    1.4813   -0.0467 N.4     1  UNL1        0.2435
      3 C           0.4229    1.9439   -1.4953 C.3     1  UNL1       -0.0157
      4 H           1.3820    2.4686   -1.5596 H       1  UNL1        0.0853
      5 C          -0.7696    2.8864   -1.7409 C.3     1  UNL1       -0.0044
      6 C          -1.8925    2.3465   -0.8614 C.3     1  UNL1       -0.0044
      7 C          -1.2902    1.1446   -0.1253 C.3     1  UNL1       -0.0157
      8 H          -1.6878    1.0472    0.8921 H       1  UNL1        0.0853
      9 C          -1.4883   -0.1561   -0.9201 C.3     1  UNL1        0.0278
     10 C          -0.5789   -0.3727   -2.1496 C.3     1  UNL1        0.1134
     11 C           0.3599    0.7897   -2.4977 C.3     1  UNL1        0.0278
     12 O           0.3026   -1.5327   -2.0974 O.3     1  UNL1       -0.4589
     13 C          -0.2463   -2.7757   -1.9496 C.2     1  UNL1        0.3409
     14 O          -1.1993   -3.0075   -1.2281 O.2     1  UNL1       -0.2475
     15 C           0.4746   -3.7935   -2.8471 C.3     1  UNL1        0.1767
     16 H           0.6587   -3.2789   -3.7992 H       1  UNL1        0.0762
     17 C           1.7824   -4.2686   -2.2503 C.ar    1  UNL1       -0.0084
     18 C           2.9855   -4.0630   -2.9430 C.ar    1  UNL1       -0.0556
     19 C           4.1989   -4.4842   -2.3988 C.ar    1  UNL1       -0.0614
     20 C           4.2280   -5.1289   -1.1648 C.ar    1  UNL1       -0.0617
     21 C           3.0404   -5.3621   -0.4749 C.ar    1  UNL1       -0.0614
     22 C           1.8251   -4.9341   -1.0109 C.ar    1  UNL1       -0.0556
     23 O          -0.3604   -4.8944   -3.1725 O.3     1  UNL1       -0.3762
     24 C           0.4995    2.6464    0.9225 C.3     1  UNL1       -0.0410
     25 H           0.8538   -0.6004   -0.0229 H       1  UNL1        0.0778
     26 H           0.7942    0.1923    1.5480 H       1  UNL1        0.0778
     27 H           2.1076    0.6029    0.3888 H       1  UNL1        0.0778
     28 H          -1.0720    2.9417   -2.7914 H       1  UNL1        0.0322
     29 H          -0.5174    3.9122   -1.4469 H       1  UNL1        0.0322
     30 H          -2.7819    2.0874   -1.4446 H       1  UNL1        0.0322
     31 H          -2.2035    3.1149   -0.1424 H       1  UNL1        0.0322
     32 H          -2.5299   -0.1862   -1.2716 H       1  UNL1        0.0356
     33 H          -1.4070   -0.9814   -0.2079 H       1  UNL1        0.0356
     34 H          -1.2171   -0.5684   -3.0211 H       1  UNL1        0.0738
     35 H           1.3798    0.4273   -2.6777 H       1  UNL1        0.0356
     36 H           0.0423    1.1893   -3.4724 H       1  UNL1        0.0356
     37 H           2.9838   -3.5826   -3.9170 H       1  UNL1        0.0621
     38 H           5.1222   -4.3196   -2.9480 H       1  UNL1        0.0618
     39 H           5.1761   -5.4613   -0.7496 H       1  UNL1        0.0618
     40 H           3.0652   -5.8887    0.4762 H       1  UNL1        0.0618
     41 H           0.9101   -5.1363   -0.4527 H       1  UNL1        0.0621
     42 H          -0.2587   -5.5696   -2.4810 H       1  UNL1        0.2110
     43 H           0.2147    2.3362    1.9311 H       1  UNL1        0.0778
     44 H           1.5738    2.8501    0.8678 H       1  UNL1        0.0778
     45 H          -0.0555    3.5405    0.6413 H       1  UNL1        0.0778
@<TRIPOS>UNITY_ATOM_ATTR
2 1
charge 1
@<TRIPOS>BOND
     1     1     2    1
     2     1    25    1
     3     1    26    1
     4     1    27    1
     5     2     7    1
     6     2     3    1
     7     2    24    1
     8     3     4    1
     9     3    11    1
    10     3     5    1
    11     5     6    1
    12     5    28    1
    13     5    29    1
    14     6     7    1
    15     6    30    1
    16     6    31    1
    17     7     8    1
    18     7     9    1
    19     9    10    1
    20     9    32    1
    21     9    33    1
    22    10    11    1
    23    10    12    1
    24    10    34    1
    25    11    35    1
    26    11    36    1
    27    12    13    1
    28    13    14    2
    29    13    15    1
    30    15    16    1
    31    15    17    1
    32    15    23    1
    33    17    22   ar
    34    17    18   ar
    35    18    19   ar
    36    18    37    1
    37    19    20   ar
    38    19    38    1
    39    20    21   ar
    40    20    39    1
    41    21    22   ar
    42    21    40    1
    43    22    41    1
    44    23    42    1
    45    24    43    1
    46    24    44    1
    47    24    45    1
