@<TRIPOS>MOLECULE
ZINC00020259
 28 28 0 0 0
SMALL
GASTEIGER

@<TRIPOS>ATOM
      1 C          -0.5522   -0.3848   -2.8033 C.3     1  UNL1       -0.0189
      2 C          -1.4602   -0.2638   -1.5902 C.3     1  UNL1        0.0050
      3 H          -2.5147   -0.2434   -1.8888 H       1  UNL1        0.0877
      4 C          -1.2229   -1.3689   -0.5229 C.3     1  UNL1        0.1222
      5 H          -0.1667   -1.3642   -0.2300 H       1  UNL1        0.0701
      6 C          -1.6275   -2.7619   -0.9375 C.ar    1  UNL1       -0.0138
      7 C          -0.6560   -3.7706   -1.0392 C.ar    1  UNL1       -0.0559
      8 C          -1.0147   -5.0729   -1.3962 C.ar    1  UNL1       -0.0614
      9 C          -2.3459   -5.3818   -1.6569 C.ar    1  UNL1       -0.0617
     10 C          -3.3210   -4.3918   -1.5612 C.ar    1  UNL1       -0.0614
     11 C          -2.9664   -3.0879   -1.2041 C.ar    1  UNL1       -0.0559
     12 O          -1.9540   -0.9641    0.6517 O.3     1  UNL1       -0.3816
     13 N          -1.2146    1.0667   -0.8896 N.4     1  UNL1        0.2289
     14 C          -1.6475    2.2929   -1.5987 C.3     1  UNL1       -0.0445
     15 H          -0.6941   -1.3484   -3.3024 H       1  UNL1        0.0285
     16 H           0.5029   -0.2955   -2.5258 H       1  UNL1        0.0285
     17 H          -0.7751    0.3922   -3.5418 H       1  UNL1        0.0285
     18 H           0.3934   -3.5661   -0.8315 H       1  UNL1        0.0621
     19 H          -0.2557   -5.8493   -1.4643 H       1  UNL1        0.0618
     20 H          -2.6255   -6.3986   -1.9273 H       1  UNL1        0.0618
     21 H          -4.3616   -4.6421   -1.7583 H       1  UNL1        0.0618
     22 H          -3.7551   -2.3443   -1.1186 H       1  UNL1        0.0621
     23 H          -2.2204   -1.7823    1.1215 H       1  UNL1        0.2105
     24 H          -1.7306    0.9811    0.0074 H       1  UNL1        0.2014
     25 H          -2.6973    2.1839   -1.8779 H       1  UNL1        0.0777
     26 H          -1.5175    3.1315   -0.9107 H       1  UNL1        0.0777
     27 H          -1.0116    2.4298   -2.4759 H       1  UNL1        0.0777
     28 H          -0.2287    1.1448   -0.6090 H       1  UNL1        0.2014
@<TRIPOS>UNITY_ATOM_ATTR
13 1
charge 1
@<TRIPOS>BOND
     1     1     2    1
     2     1    15    1
     3     1    16    1
     4     1    17    1
     5     2     3    1
     6     2    13    1
     7     4     6    1
     8     4    12    1
     9     6    11   ar
    10     6     7   ar
    11     7     8   ar
    12     7    18    1
    13     8     9   ar
    14     8    19    1
    15     9    10   ar
    16     9    20    1
    17    10    11   ar
    18    10    21    1
    19    11    22    1
    20    12    23    1
    21    13    14    1
    22    13    24    1
    23    13    28    1
    24    14    25    1
    25    14    26    1
    26    14    27    1
    27     4     5    1
    28     4     2    1
