@<TRIPOS>MOLECULE
ZINC01554588
 21 20 0 0 0
SMALL
GASTEIGER

@<TRIPOS>ATOM
      1 C          -0.7108   -0.9255    4.2045 C.3     1  UNL1        0.0121
      2 C          -0.2861    0.1141    3.2060 C.2     1  UNL1        0.2099
      3 O          -0.8839    1.1831    3.0919 O.2     1  UNL1       -0.2761
      4 N           0.7918   -0.1553    2.4187 N.am    1  UNL1       -0.3155
      5 C           1.6460   -1.3369    2.4086 C.3     1  UNL1        0.0131
      6 C           2.8298   -1.1688    3.3569 C.3     1  UNL1       -0.0155
      7 C           3.7168   -2.4052    3.4665 C.3     1  UNL1        0.0968
      8 S           4.5336   -2.8673    1.9562 S.3     1  UNL1        0.1101
      9 O           5.1614   -1.6260    1.5154 O.2     1  UNL1       -0.1450
     10 O           5.4593   -3.9091    2.3949 O.2     1  UNL1       -0.1450
     11 O           3.4394   -3.3445    1.1136 O.3     1  UNL1       -0.0476
     12 H          -1.5997   -0.5700    4.7368 H       1  UNL1        0.0322
     13 H           0.0832   -1.0932    4.9356 H       1  UNL1        0.0322
     14 H          -0.9682   -1.8582    3.6983 H       1  UNL1        0.0322
     15 H           1.0405    0.5898    1.7796 H       1  UNL1        0.1487
     16 H           1.0553   -2.2179    2.6763 H       1  UNL1        0.0462
     17 H           1.9755   -1.4398    1.3722 H       1  UNL1        0.0462
     18 H           3.4252   -0.3025    3.0437 H       1  UNL1        0.0297
     19 H           2.4574   -0.9307    4.3610 H       1  UNL1        0.0297
     20 H           4.5097   -2.2099    4.1980 H       1  UNL1        0.0527
     21 H           3.1465   -3.2733    3.8127 H       1  UNL1        0.0527
@<TRIPOS>BOND
     1     1     2    1
     2     1    12    1
     3     1    13    1
     4     1    14    1
     5     2     3    2
     6     2     4   am
     7     4     5    1
     8     4    15    1
     9     5     6    1
    10     5    16    1
    11     5    17    1
    12     6     7    1
    13     6    18    1
    14     6    19    1
    15     7     8    1
    16     7    20    1
    17     7    21    1
    18     8     9    2
    19     8    10    2
    20     8    11    1
