@<TRIPOS>MOLECULE
ZINC00114124
 20 19 0 0 0
SMALL
GASTEIGER

@<TRIPOS>ATOM
      1 C           1.0802   -0.0220    0.1038 C.3     1  UNL1       -0.0452
      2 C           0.5273    0.9171   -0.9829 C.3     1  UNL1        0.0611
      3 C           1.0991    0.5034   -2.3461 C.3     1  UNL1       -0.0452
      4 CA         -1.0189    0.9980   -1.0051 C.3     1  UNL1        0.0926
      5 HA         -1.3748    1.7100   -1.7586 H       1  UNL1        0.0983
      6 C          -1.6585   -0.3909   -1.2724 C.2     1  UNL1        0.4039
      7 O          -1.9943   -0.9397   -0.1730 O.co2   1  UNL1       -0.2399
      8 OXT        -1.8688   -0.6903   -2.4627 O.co2   1  UNL1       -0.2399
      9 N          -1.5441    1.5304    0.3285 N.4     1  UNL1        0.2299
     10 S           1.1826    2.6155   -0.5777 S.3     1  UNL1       -0.1658
     11 H           0.7750   -1.0583   -0.0783 H       1  UNL1        0.0245
     12 H           0.7362    0.2501    1.1074 H       1  UNL1        0.0245
     13 H           2.1773   -0.0178    0.1231 H       1  UNL1        0.0245
     14 H           0.8013   -0.5219   -2.6037 H       1  UNL1        0.0245
     15 H           0.7493    1.1570   -3.1522 H       1  UNL1        0.0245
     16 H           2.1957    0.5138   -2.3505 H       1  UNL1        0.0245
     17 H1         -1.3756    0.7611    1.0001 H       1  UNL1        0.2003
     18 H2         -1.1320    2.4144    0.6283 H       1  UNL1        0.2003
     19 H           0.6135    3.2673   -1.6045 H       1  UNL1        0.1024
     20 H3         -2.5686    1.5527    0.2745 H       1  UNL1        0.2003
@<TRIPOS>UNITY_ATOM_ATTR
9 1
charge 1
@<TRIPOS>BOND
     1     1     2    1
     2     1    11    1
     3     1    12    1
     4     1    13    1
     5     2     3    1
     6     2     4    1
     7     2    10    1
     8     3    14    1
     9     3    15    1
    10     3    16    1
    11     4     5    1
    12     4     6    1
    13     4     9    1
    14     6     7   ar
    15     6     8   ar
    16     9    17    1
    17     9    18    1
    18     9    20    1
    19    10    19    1
