@<TRIPOS>MOLECULE
ZINC00156792
 53 53 0 0 0
SMALL
GASTEIGER

@<TRIPOS>ATOM
      1 C           8.2439   -5.5841   -0.1584 C.3     1  UNL1       -0.0648
      2 C           8.6029   -5.1598    1.2566 C.3     1  UNL1       -0.0476
      3 C           8.9512   -3.6736    1.3626 C.3     1  UNL1        0.0240
      4 C           7.9038   -2.7195    0.8143 C.2     1  UNL1        0.2172
      5 O           8.2078   -1.9502   -0.0942 O.2     1  UNL1       -0.2755
      6 N           6.6638   -2.7821    1.4370 N.am    1  UNL1       -0.2855
      7 C           5.5497   -1.9354    1.2019 C.ar    1  UNL1        0.0343
      8 C           4.3927   -2.1256    1.9456 C.ar    1  UNL1       -0.0370
      9 C           3.3053   -1.2471    1.7949 C.ar    1  UNL1       -0.0175
     10 C           3.3332   -0.1392    0.9155 C.ar    1  UNL1        0.1312
     11 C           4.4841    0.0285    0.1126 C.ar    1  UNL1        0.0605
     12 C           5.5597   -0.8827    0.2806 C.ar    1  UNL1       -0.0265
     13 C           4.7482    1.1310   -0.8870 C.2     1  UNL1        0.1637
     14 O           4.3249    2.2717   -0.7155 O.2     1  UNL1       -0.2922
     15 C           5.5580    0.8486   -2.1397 C.3     1  UNL1       -0.0013
     16 O           2.1535    0.5701    1.0143 O.3     1  UNL1       -0.4885
     17 C           2.0542    1.8709    0.4459 C.3     1  UNL1        0.1204
     18 C           0.7096    2.5597    0.7592 C.3     1  UNL1        0.1285
     19 H          -0.1195    1.8714    0.5601 H       1  UNL1        0.0681
     20 C           0.5606    3.8405   -0.0871 C.3     1  UNL1       -0.0035
     21 N          -0.7656    4.4838    0.2572 N.4     1  UNL1        0.2307
     22 C          -1.0475    5.8428   -0.3183 C.3     1  UNL1       -0.0283
     23 C          -1.0733    5.7806   -1.8411 C.3     1  UNL1       -0.0219
     24 C          -2.3988    6.3100    0.2163 C.3     1  UNL1       -0.0219
     25 O           0.5727    2.9811    2.1284 O.3     1  UNL1       -0.3831
     26 H           7.3205   -5.1001   -0.4915 H       1  UNL1        0.0230
     27 H           8.0850   -6.6661   -0.1968 H       1  UNL1        0.0230
     28 H           9.0402   -5.3324   -0.8670 H       1  UNL1        0.0230
     29 H           7.7915   -5.4140    1.9373 H       1  UNL1        0.0267
     30 H           9.4846   -5.7380    1.5786 H       1  UNL1        0.0267
     31 H           9.1508   -3.4091    2.4085 H       1  UNL1        0.0358
     32 H           9.8808   -3.4880    0.8137 H       1  UNL1        0.0358
     33 H           6.5578   -3.4798    2.1660 H       1  UNL1        0.1548
     34 H           4.3127   -2.9401    2.6630 H       1  UNL1        0.0637
     35 H           2.4171   -1.4238    2.4028 H       1  UNL1        0.0655
     36 H           6.4590   -0.7354   -0.2987 H       1  UNL1        0.0644
     37 H           6.4813    0.3010   -1.9564 H       1  UNL1        0.0309
     38 H           4.9435    0.3276   -2.8768 H       1  UNL1        0.0309
     39 H           5.8696    1.8113   -2.5629 H       1  UNL1        0.0309
     40 H           2.8385    2.4974    0.8772 H       1  UNL1        0.0725
     41 H           2.1066    1.7651   -0.6415 H       1  UNL1        0.0725
     42 H           1.3288    4.5761    0.1768 H       1  UNL1        0.0841
     43 H           0.5704    3.6290   -1.1580 H       1  UNL1        0.0841
     44 H          -1.5279    3.8345    0.0240 H       1  UNL1        0.2017
     45 H          -0.2533    6.5117    0.0306 H       1  UNL1        0.0845
     46 H          -1.8290    5.0740   -2.2013 H       1  UNL1        0.0284
     47 H          -1.3096    6.7652   -2.2601 H       1  UNL1        0.0284
     48 H          -0.1036    5.4838   -2.2514 H       1  UNL1        0.0284
     49 H          -2.3916    6.3792    1.3088 H       1  UNL1        0.0284
     50 H          -2.6501    7.3007   -0.1790 H       1  UNL1        0.0284
     51 H          -3.2030    5.6240   -0.0741 H       1  UNL1        0.0284
     52 H           1.4635    3.0505    2.5266 H       1  UNL1        0.2102
     53 H          -0.7784    4.5325    1.2926 H       1  UNL1        0.2017
@<TRIPOS>UNITY_ATOM_ATTR
21 1
charge 1
@<TRIPOS>BOND
     1     1     2    1
     2     1    26    1
     3     1    27    1
     4     1    28    1
     5     2     3    1
     6     2    29    1
     7     2    30    1
     8     3     4    1
     9     3    31    1
    10     3    32    1
    11     4     5    2
    12     4     6   am
    13     6     7    1
    14     6    33    1
    15     7    12   ar
    16     7     8   ar
    17     8     9   ar
    18     8    34    1
    19     9    10   ar
    20     9    35    1
    21    10    11   ar
    22    10    16    1
    23    11    12   ar
    24    11    13    1
    25    12    36    1
    26    13    14    2
    27    13    15    1
    28    15    37    1
    29    15    38    1
    30    15    39    1
    31    16    17    1
    32    17    40    1
    33    17    41    1
    34    18    20    1
    35    18    25    1
    36    20    21    1
    37    20    42    1
    38    20    43    1
    39    21    22    1
    40    21    44    1
    41    21    53    1
    42    22    23    1
    43    22    24    1
    44    22    45    1
    45    23    46    1
    46    23    47    1
    47    23    48    1
    48    24    49    1
    49    24    50    1
    50    24    51    1
    51    25    52    1
    52    18    19    1
    53    18    17    1
