@<TRIPOS>MOLECULE
ZINC00001283
 38 39 0 0 0
SMALL
GASTEIGER

@<TRIPOS>ATOM
      1 C           1.0892   -0.1101   -0.0815 C.3     1  UNL1       -0.0459
      2 C           0.4451   -0.8627    1.0414 C.2     1  UNL1       -0.0788
      3 C          -0.3305   -0.3839    2.0401 C.2     1  UNL1       -0.0147
      4 C          -0.7922   -1.3121    3.0942 C.2     1  UNL1       -0.0147
      5 C           0.1258   -1.9802    3.8300 C.2     1  UNL1       -0.0788
      6 C          -0.0996   -3.0101    4.8930 C.3     1  UNL1       -0.0459
      7 C          -2.2303   -1.5380    3.3639 C.ar    1  UNL1       -0.0174
      8 C          -2.9226   -2.5585    2.6948 C.ar    1  UNL1       -0.0506
      9 C          -4.2645   -2.8188    2.9915 C.ar    1  UNL1       -0.0196
     10 C          -4.9125   -2.0518    3.9544 C.ar    1  UNL1        0.1169
     11 C          -4.2433   -1.0311    4.6211 C.ar    1  UNL1       -0.0196
     12 C          -2.9020   -0.7726    4.3264 C.ar    1  UNL1       -0.0506
     13 O          -6.2173   -2.2756    4.2821 O.3     1  UNL1       -0.5068
     14 C          -0.6652    1.0575    2.0638 C.ar    1  UNL1       -0.0174
     15 C           0.1820    1.9663    2.7151 C.ar    1  UNL1       -0.0506
     16 C          -0.0924    3.3368    2.6871 C.ar    1  UNL1       -0.0196
     17 C          -1.2186    3.7946    2.0103 C.ar    1  UNL1        0.1169
     18 C          -2.0725    2.9069    1.3657 C.ar    1  UNL1       -0.0196
     19 C          -1.7982    1.5372    1.3935 C.ar    1  UNL1       -0.0506
     20 O          -1.5194    5.1235    1.9495 O.3     1  UNL1       -0.5068
     21 H           0.9728    0.9738   -0.0130 H       1  UNL1        0.0272
     22 H           0.6739   -0.4404   -1.0380 H       1  UNL1        0.0272
     23 H           2.1635   -0.3237   -0.0865 H       1  UNL1        0.0272
     24 H           0.6674   -1.9297    1.0274 H       1  UNL1        0.0575
     25 H           1.1802   -1.7798    3.6428 H       1  UNL1        0.0575
     26 H           0.4905   -3.9022    4.6571 H       1  UNL1        0.0272
     27 H           0.2365   -2.6281    5.8613 H       1  UNL1        0.0272
     28 H          -1.1407   -3.3252    4.9899 H       1  UNL1        0.0272
     29 H          -2.4107   -3.1689    1.9548 H       1  UNL1        0.0625
     30 H          -4.7773   -3.6226    2.4730 H       1  UNL1        0.0654
     31 H          -4.7607   -0.4436    5.3737 H       1  UNL1        0.0654
     32 H          -2.3810    0.0210    4.8564 H       1  UNL1        0.0625
     33 H          -6.5563   -2.9993    3.7305 H       1  UNL1        0.2921
     34 H           1.0705    1.6085    3.2298 H       1  UNL1        0.0625
     35 H           0.5837    4.0242    3.1852 H       1  UNL1        0.0654
     36 H          -2.9449    3.2796    0.8368 H       1  UNL1        0.0654
     37 H          -2.4642    0.8484    0.8796 H       1  UNL1        0.0625
     38 H          -0.8501    5.6163    2.4518 H       1  UNL1        0.2921
@<TRIPOS>BOND
     1     1     2    1
     2     1    21    1
     3     1    22    1
     4     1    23    1
     5     2     3    2
     6     2    24    1
     7     3     4    1
     8     3    14    1
     9     4     5    2
    10     4     7    1
    11     5     6    1
    12     5    25    1
    13     6    26    1
    14     6    27    1
    15     6    28    1
    16     7    12   ar
    17     7     8   ar
    18     8     9   ar
    19     8    29    1
    20     9    10   ar
    21     9    30    1
    22    10    11   ar
    23    10    13    1
    24    11    12   ar
    25    11    31    1
    26    12    32    1
    27    13    33    1
    28    14    19   ar
    29    14    15   ar
    30    15    16   ar
    31    15    34    1
    32    16    17   ar
    33    16    35    1
    34    17    18   ar
    35    17    20    1
    36    18    19   ar
    37    18    36    1
    38    19    37    1
    39    20    38    1
