@<TRIPOS>MOLECULE
ZINC00000767
 29 30 0 0 0
SMALL
GASTEIGER

@<TRIPOS>ATOM
      1 C           1.0613    0.9617   -0.2528 C.3     1  UNL1       -0.0475
      2 C           0.5180    0.9924    1.1752 C.3     1  UNL1        0.0890
      3 H           0.8177    1.9444    1.6333 H       1  UNL1        0.0466
      4 C          -0.9944    0.8818    1.1699 C.ar    1  UNL1        0.0041
      5 C          -1.7655   -0.2632    1.1704 C.ar    1  UNL1       -0.0501
      6 C          -3.1565    0.0178    1.1484 C.ar    1  UNL1       -0.0435
      7 C          -3.4223    1.3763    1.0925 C.ar    1  UNL1        0.0597
      8 S          -1.9756    2.2900    1.1470 S.2     1  UNL1       -0.0891
      9 C          -4.7077    2.0575    0.9863 C.2     1  UNL1        0.1997
     10 O          -4.9618    3.1560    1.4875 O.2     1  UNL1       -0.2861
     11 C          -5.8008    1.3915    0.2134 C.ar    1  UNL1        0.0228
     12 C          -5.5148    0.5519   -0.8739 C.ar    1  UNL1       -0.0509
     13 C          -6.5424   -0.0834   -1.5647 C.ar    1  UNL1       -0.0611
     14 C          -7.8689    0.1365   -1.1980 C.ar    1  UNL1       -0.0617
     15 C          -8.1685    0.9992   -0.1431 C.ar    1  UNL1       -0.0611
     16 C          -7.1379    1.6286    0.5617 C.ar    1  UNL1       -0.0509
     17 C           1.1315   -0.1434    2.0369 C.2     1  UNL1        0.3635
     18 O           1.4316   -1.2130    1.4282 O.co2   1  UNL1       -0.2457
     19 O           1.2649    0.1278    3.2666 O.co2   1  UNL1       -0.2457
     20 H           0.6709    1.7997   -0.8410 H       1  UNL1        0.0241
     21 H           0.7860    0.0399   -0.7784 H       1  UNL1        0.0241
     22 H           2.1546    1.0313   -0.2535 H       1  UNL1        0.0241
     23 H          -1.3346   -1.2591    1.1977 H       1  UNL1        0.0626
     24 H          -3.9172   -0.7515    1.1521 H       1  UNL1        0.0630
     25 H          -4.4899    0.3854   -1.1967 H       1  UNL1        0.0625
     26 H          -6.3031   -0.7517   -2.3898 H       1  UNL1        0.0618
     27 H          -8.6685   -0.3608   -1.7413 H       1  UNL1        0.0618
     28 H          -9.2043    1.1792    0.1321 H       1  UNL1        0.0618
     29 H          -7.3800    2.3000    1.3840 H       1  UNL1        0.0625
@<TRIPOS>BOND
     1     1     2    1
     2     1    20    1
     3     1    21    1
     4     1    22    1
     5     2     3    1
     6     2     4    1
     7     2    17    1
     8     4     8   ar
     9     4     5   ar
    10     5     6   ar
    11     5    23    1
    12     6     7   ar
    13     6    24    1
    14     7     8   ar
    15     7     9    1
    16     9    10    2
    17     9    11    1
    18    11    16   ar
    19    11    12   ar
    20    12    13   ar
    21    12    25    1
    22    13    14   ar
    23    13    26    1
    24    14    15   ar
    25    14    27    1
    26    15    16   ar
    27    15    28    1
    28    16    29    1
    29    17    18   ar
    30    17    19   ar
