@<TRIPOS>MOLECULE
ZINC03785268
 68 69 0 0 0
SMALL
GASTEIGER

@<TRIPOS>ATOM
      1 C          -4.1315    6.5804  -10.7648 C.ar    1  UNL1       -0.0617
      2 C          -5.3566    5.9262  -10.6655 C.ar    1  UNL1       -0.0615
      3 C          -5.5853    4.9915   -9.6470 C.ar    1  UNL1       -0.0586
      4 C          -4.5757    4.6812   -8.7261 C.ar    1  UNL1       -0.0474
      5 C          -3.3589    5.3803   -8.8220 C.ar    1  UNL1       -0.0586
      6 C          -3.1335    6.3139   -9.8343 C.ar    1  UNL1       -0.0615
      7 C          -4.7610    3.7351   -7.5610 C.3     1  UNL1       -0.0276
      8 C          -5.6238    2.4774   -7.7272 C.3     1  UNL1       -0.0470
      9 C          -5.2330    1.4791   -8.8209 C.3     1  UNL1       -0.0292
     10 C          -3.8146    0.9052   -8.7915 C.3     1  UNL1        0.0477
     11 O          -3.5145    0.1366   -7.6079 O.3     1  UNL1       -0.3798
     12 C          -2.1986   -0.4301   -7.7453 C.3     1  UNL1        0.0477
     13 C          -1.7350   -1.1779   -6.4929 C.3     1  UNL1       -0.0295
     14 C          -2.5307   -2.4447   -6.1680 C.3     1  UNL1       -0.0508
     15 C          -1.9313   -3.2218   -4.9815 C.3     1  UNL1       -0.0482
     16 C          -1.9003   -2.4677   -3.6427 C.3     1  UNL1       -0.0126
     17 C          -3.2489   -1.9493   -3.1561 C.3     1  UNL1       -0.0336
     18 N          -4.1792   -3.0879   -2.9601 N.4     1  UNL1        0.2291
     19 C          -5.5763   -2.7143   -2.5361 C.3     1  UNL1       -0.0028
     20 C          -6.3255   -4.0312   -2.2741 C.3     1  UNL1        0.1197
     21 H          -6.3033   -4.6197   -3.2006 H       1  UNL1        0.0698
     22 C          -7.7484   -3.9270   -1.8003 C.ar    1  UNL1       -0.0135
     23 C          -8.1864   -2.9168   -0.9346 C.ar    1  UNL1       -0.0525
     24 C          -9.4783   -2.9554   -0.4104 C.ar    1  UNL1       -0.0195
     25 C         -10.3244   -4.0121   -0.7269 C.ar    1  UNL1        0.1222
     26 C          -9.9338   -5.0150   -1.6175 C.ar    1  UNL1        0.0195
     27 C          -8.6423   -4.9561   -2.1548 C.ar    1  UNL1       -0.0471
     28 C         -10.8439   -6.1587   -1.9605 C.3     1  UNL1        0.0727
     29 O         -11.0955   -6.8926   -0.7686 O.3     1  UNL1       -0.3903
     30 O         -11.5310   -4.0467   -0.0900 O.3     1  UNL1       -0.5064
     31 O          -5.5405   -4.7564   -1.3115 O.3     1  UNL1       -0.3819
     32 H          -3.9640    7.3049  -11.5535 H       1  UNL1        0.0618
     33 H          -6.1479    6.1607  -11.3786 H       1  UNL1        0.0618
     34 H          -6.5661    4.5292   -9.5795 H       1  UNL1        0.0620
     35 H          -2.5761    5.2197   -8.0840 H       1  UNL1        0.0620
     36 H          -2.1859    6.8438   -9.8887 H       1  UNL1        0.0618
     37 H          -3.7745    3.4157   -7.2030 H       1  UNL1        0.0313
     38 H          -5.1998    4.3301   -6.7479 H       1  UNL1        0.0313
     39 H          -5.6293    1.9485   -6.7657 H       1  UNL1        0.0269
     40 H          -6.6639    2.7811   -7.9048 H       1  UNL1        0.0269
     41 H          -5.9421    0.6439   -8.7620 H       1  UNL1        0.0287
     42 H          -5.3888    1.9487   -9.7995 H       1  UNL1        0.0287
     43 H          -3.7203    0.2353   -9.6572 H       1  UNL1        0.0560
     44 H          -3.0799    1.7065   -8.9008 H       1  UNL1        0.0560
     45 H          -2.1774   -1.1039   -8.6099 H       1  UNL1        0.0560
     46 H          -1.4873    0.3854   -7.9244 H       1  UNL1        0.0560
     47 H          -0.6847   -1.4613   -6.6399 H       1  UNL1        0.0287
     48 H          -1.7757   -0.4929   -5.6403 H       1  UNL1        0.0287
     49 H          -3.5795   -2.1993   -5.9721 H       1  UNL1        0.0266
     50 H          -2.5260   -3.1103   -7.0405 H       1  UNL1        0.0266
     51 H          -2.4818   -4.1626   -4.8602 H       1  UNL1        0.0267
     52 H          -0.9035   -3.5167   -5.2288 H       1  UNL1        0.0267
     53 H          -1.4775   -3.1357   -2.8802 H       1  UNL1        0.0317
     54 H          -1.2068   -1.6227   -3.7156 H       1  UNL1        0.0317
     55 H          -3.1461   -1.4461   -2.1895 H       1  UNL1        0.0814
     56 H          -3.7101   -1.2626   -3.8713 H       1  UNL1        0.0814
     57 H          -4.2401   -3.6558   -3.8131 H       1  UNL1        0.2014
     58 H          -5.4601   -2.1252   -1.6207 H       1  UNL1        0.0843
     59 H          -6.0287   -2.1169   -3.3314 H       1  UNL1        0.0843
     60 H          -7.5386   -2.1056   -0.6142 H       1  UNL1        0.0622
     61 H          -9.8151   -2.1885    0.2831 H       1  UNL1        0.0654
     62 H          -8.3187   -5.7457   -2.8341 H       1  UNL1        0.0626
     63 H         -11.7955   -5.7895   -2.3560 H       1  UNL1        0.0608
     64 H         -10.4064   -6.8313   -2.7054 H       1  UNL1        0.0608
     65 H         -10.2337   -7.1737   -0.4145 H       1  UNL1        0.2098
     66 H         -11.8579   -4.9690   -0.0983 H       1  UNL1        0.2921
     67 H          -6.1388   -5.0444   -0.5912 H       1  UNL1        0.2105
     68 H          -3.8277   -3.7347   -2.2303 H       1  UNL1        0.2014
@<TRIPOS>UNITY_ATOM_ATTR
18 1
charge 1
@<TRIPOS>BOND
     1     1     6   ar
     2     1     2   ar
     3     1    32    1
     4     2     3   ar
     5     2    33    1
     6     3     4   ar
     7     3    34    1
     8     4     5   ar
     9     4     7    1
    10     5     6   ar
    11     5    35    1
    12     6    36    1
    13     7     8    1
    14     7    37    1
    15     7    38    1
    16     8     9    1
    17     8    39    1
    18     8    40    1
    19     9    10    1
    20     9    41    1
    21     9    42    1
    22    10    11    1
    23    10    43    1
    24    10    44    1
    25    11    12    1
    26    12    13    1
    27    12    45    1
    28    12    46    1
    29    13    14    1
    30    13    47    1
    31    13    48    1
    32    14    15    1
    33    14    49    1
    34    14    50    1
    35    15    16    1
    36    15    51    1
    37    15    52    1
    38    16    17    1
    39    16    53    1
    40    16    54    1
    41    17    18    1
    42    17    55    1
    43    17    56    1
    44    18    19    1
    45    18    57    1
    46    18    68    1
    47    19    58    1
    48    19    59    1
    49    20    22    1
    50    20    31    1
    51    22    27   ar
    52    22    23   ar
    53    23    24   ar
    54    23    60    1
    55    24    25   ar
    56    24    61    1
    57    25    26   ar
    58    25    30    1
    59    26    27   ar
    60    26    28    1
    61    27    62    1
    62    28    29    1
    63    28    63    1
    64    28    64    1
    65    29    65    1
    66    30    66    1
    67    31    67    1
    68    20    21    1
    69    20    19    1
