@<TRIPOS>MOLECULE
ZINC00001587
 30 31 0 0 0
SMALL
GASTEIGER

@<TRIPOS>ATOM
      1 C          -6.2887    1.7673    0.8329 C.3     1  UNL1       -0.0037
      2 C          -5.4102    0.5902    0.6930 C.ar    1  UNL1        0.1350
      3 C          -4.2323    0.1954    1.2769 C.ar    1  UNL1        0.0125
      4 C          -3.8877   -1.0145    0.6181 C.ar    1  UNL1        0.1690
      5 N          -4.8404   -1.3529   -0.2724 N.ar    1  UNL1       -0.0734
      6 O          -5.7867   -0.3434   -0.2208 O.2     1  UNL1       -0.3592
      7 C          -2.6727   -1.8209    0.8010 C.2     1  UNL1        0.2792
      8 O          -1.7718   -1.4968    1.5739 O.2     1  UNL1       -0.2671
      9 N          -2.6266   -2.9555   -0.0047 N.am    1  UNL1       -0.2453
     10 N          -1.5545   -3.8879    0.0841 N.3     1  UNL1       -0.2360
     11 C          -1.2613   -4.4745   -1.2304 C.3     1  UNL1        0.0387
     12 C          -0.1182   -5.4673   -1.2187 C.ar    1  UNL1       -0.0320
     13 C           0.9379   -5.3402   -2.1352 C.ar    1  UNL1       -0.0573
     14 C           1.9397   -6.3109   -2.2149 C.ar    1  UNL1       -0.0615
     15 C           1.8991   -7.4248   -1.3800 C.ar    1  UNL1       -0.0617
     16 C           0.8648   -7.5593   -0.4560 C.ar    1  UNL1       -0.0615
     17 C          -0.1378   -6.5875   -0.3747 C.ar    1  UNL1       -0.0573
     18 H          -6.5269    2.1886   -0.1495 H       1  UNL1        0.0309
     19 H          -7.2267    1.4973    1.3270 H       1  UNL1        0.0309
     20 H          -5.8041    2.5516    1.4233 H       1  UNL1        0.0309
     21 H          -3.6701    0.7132    2.0402 H       1  UNL1        0.0676
     22 H          -3.4572   -3.1741   -0.5552 H       1  UNL1        0.1693
     23 H          -0.7237   -3.3858    0.4209 H       1  UNL1        0.1446
     24 H          -2.1485   -5.0053   -1.5991 H       1  UNL1        0.0490
     25 H          -1.0453   -3.6723   -1.9472 H       1  UNL1        0.0490
     26 H           0.9785   -4.4907   -2.8128 H       1  UNL1        0.0621
     27 H           2.7439   -6.2054   -2.9384 H       1  UNL1        0.0618
     28 H           2.6676   -8.1899   -1.4542 H       1  UNL1        0.0618
     29 H           0.8304   -8.4303    0.1942 H       1  UNL1        0.0618
     30 H          -0.9466   -6.7183    0.3407 H       1  UNL1        0.0621
@<TRIPOS>BOND
     1     1     2    1
     2     1    18    1
     3     1    19    1
     4     1    20    1
     5     2     6   ar
     6     2     3   ar
     7     3     4   ar
     8     3    21    1
     9     4     5   ar
    10     4     7    1
    11     5     6   ar
    12     7     8    2
    13     7     9   am
    14     9    10    1
    15     9    22    1
    16    10    11    1
    17    10    23    1
    18    11    12    1
    19    11    24    1
    20    11    25    1
    21    12    17   ar
    22    12    13   ar
    23    13    14   ar
    24    13    26    1
    25    14    15   ar
    26    14    27    1
    27    15    16   ar
    28    15    28    1
    29    16    17   ar
    30    16    29    1
    31    17    30    1
