@<TRIPOS>MOLECULE
ZINC00020237
 40 40 0 0 0
SMALL
GASTEIGER

@<TRIPOS>ATOM
      1 C           3.1421   -4.2371    0.2126 C.3     1  UNL1       -0.0245
      2 C           2.3238   -3.2042   -0.5483 C.3     1  UNL1       -0.0343
      3 N           1.0402   -3.8042   -1.1181 N.4     1  UNL1        0.2414
      4 C           0.1790   -4.4276   -0.0359 C.3     1  UNL1       -0.0343
      5 C          -1.0258   -5.1658   -0.5890 C.3     1  UNL1       -0.0245
      6 C           0.2720   -2.7734   -1.9917 C.3     1  UNL1        0.0463
      7 C           1.0639   -2.2286   -3.1913 C.2     1  UNL1        0.2624
      8 O           2.0724   -2.8200   -3.5759 O.2     1  UNL1       -0.2696
      9 N           0.4786   -1.1020   -3.7850 N.am    1  UNL1       -0.2807
     10 C           0.9193   -0.6577   -5.0681 C.ar    1  UNL1        0.0394
     11 C           2.2635   -0.2976   -5.2930 C.ar    1  UNL1       -0.0290
     12 C           2.7282   -0.1537   -6.6100 C.ar    1  UNL1       -0.0571
     13 C           1.8556   -0.2666   -7.6851 C.ar    1  UNL1       -0.0611
     14 C           0.4946   -0.4260   -7.4482 C.ar    1  UNL1       -0.0571
     15 C           0.0012   -0.5952   -6.1415 C.ar    1  UNL1       -0.0290
     16 C          -1.4967   -0.6025   -5.9890 C.3     1  UNL1       -0.0379
     17 C           3.1720    0.1204   -4.1694 C.3     1  UNL1       -0.0379
     18 H           2.7815   -4.3405    1.2419 H       1  UNL1        0.0281
     19 H           4.1872   -3.9169    0.2737 H       1  UNL1        0.0281
     20 H           3.1180   -5.2213   -0.2663 H       1  UNL1        0.0281
     21 H           2.0385   -2.3655    0.0943 H       1  UNL1        0.0812
     22 H           2.9195   -2.8324   -1.3827 H       1  UNL1        0.0812
     23 H           0.7964   -5.1520    0.5024 H       1  UNL1        0.0812
     24 H          -0.1190   -3.6283    0.6500 H       1  UNL1        0.0812
     25 H          -0.7324   -5.9178   -1.3274 H       1  UNL1        0.0281
     26 H          -1.5425   -5.6816    0.2278 H       1  UNL1        0.0281
     27 H          -1.7526   -4.4871   -1.0422 H       1  UNL1        0.0281
     28 H          -0.5913   -3.2999   -2.4073 H       1  UNL1        0.0913
     29 H          -0.0454   -1.9676   -1.3279 H       1  UNL1        0.0913
     30 H          -0.5161   -0.9890   -3.6266 H       1  UNL1        0.1550
     31 H           3.7727    0.0808   -6.8064 H       1  UNL1        0.0621
     32 H           2.2248   -0.1665   -8.7037 H       1  UNL1        0.0618
     33 H          -0.1873   -0.4183   -8.2972 H       1  UNL1        0.0621
     34 H          -1.8414   -1.0286   -5.0464 H       1  UNL1        0.0278
     35 H          -1.8647    0.4287   -6.0489 H       1  UNL1        0.0278
     36 H          -1.9643   -1.1844   -6.7893 H       1  UNL1        0.0278
     37 H           2.6759    0.8979   -3.5747 H       1  UNL1        0.0278
     38 H           3.4519   -0.7105   -3.5231 H       1  UNL1        0.0278
     39 H           4.0948    0.5746   -4.5531 H       1  UNL1        0.0278
     40 H           1.3490   -4.5375   -1.7758 H       1  UNL1        0.2038
@<TRIPOS>UNITY_ATOM_ATTR
3 1
charge 1
@<TRIPOS>BOND
     1     1     2    1
     2     1    18    1
     3     1    19    1
     4     1    20    1
     5     2     3    1
     6     2    21    1
     7     2    22    1
     8     3     4    1
     9     3     6    1
    10     3    40    1
    11     4     5    1
    12     4    23    1
    13     4    24    1
    14     5    25    1
    15     5    26    1
    16     5    27    1
    17     6     7    1
    18     6    28    1
    19     6    29    1
    20     7     8    2
    21     7     9   am
    22     9    10    1
    23     9    30    1
    24    10    15   ar
    25    10    11   ar
    26    11    12   ar
    27    11    17    1
    28    12    13   ar
    29    12    31    1
    30    13    14   ar
    31    13    32    1
    32    14    15   ar
    33    14    33    1
    34    15    16    1
    35    16    34    1
    36    16    35    1
    37    16    36    1
    38    17    37    1
    39    17    38    1
    40    17    39    1
