@<TRIPOS>MOLECULE
ZINC00000905
 33 33 0 0 0
SMALL
GASTEIGER

@<TRIPOS>ATOM
      1 C          -0.8665   -0.4969    1.4853 C.3     1  UNL1        0.0031
      2 N           0.5204   -0.8478    1.2675 N.pl3   1  UNL1       -0.3056
      3 C           1.3379   -0.0607    0.3690 C.3     1  UNL1        0.0031
      4 C           0.8866   -2.1725    1.4624 C.ar    1  UNL1        0.2232
      5 N           2.1339   -2.5307    1.1846 N.ar    1  UNL1       -0.1807
      6 C           2.4677   -3.7905    1.4283 C.ar    1  UNL1        0.2232
      7 N           1.6118   -4.6884    1.9031 N.ar    1  UNL1       -0.1807
      8 C           0.3726   -4.2714    2.1479 C.ar    1  UNL1        0.2232
      9 N          -0.0165   -3.0185    1.9398 N.ar    1  UNL1       -0.1807
     10 N          -0.5464   -5.1637    2.6926 N.pl3   1  UNL1       -0.3056
     11 C          -0.1816   -6.5622    2.7940 C.3     1  UNL1        0.0031
     12 C          -1.9424   -4.8452    2.4502 C.3     1  UNL1        0.0031
     13 N           3.7713   -4.1941    1.1935 N.pl3   1  UNL1       -0.3056
     14 C           4.7648   -3.2764    0.6856 C.3     1  UNL1        0.0031
     15 C           4.1089   -5.5883    1.3664 C.3     1  UNL1        0.0031
     16 H          -1.0596    0.5477    1.2164 H       1  UNL1        0.0428
     17 H          -1.1216   -0.5995    2.5459 H       1  UNL1        0.0428
     18 H          -1.5465   -1.1188    0.8922 H       1  UNL1        0.0428
     19 H           2.3375    0.0968    0.7892 H       1  UNL1        0.0428
     20 H           1.4344   -0.5350   -0.6140 H       1  UNL1        0.0428
     21 H           0.9068    0.9351    0.2089 H       1  UNL1        0.0428
     22 H          -0.6688   -6.9958    3.6753 H       1  UNL1        0.0428
     23 H          -0.5175   -7.1226    1.9139 H       1  UNL1        0.0428
     24 H           0.8921   -6.7327    2.9276 H       1  UNL1        0.0428
     25 H          -2.2455   -3.9506    3.0043 H       1  UNL1        0.0428
     26 H          -2.1426   -4.6918    1.3825 H       1  UNL1        0.0428
     27 H          -2.5923   -5.6633    2.7862 H       1  UNL1        0.0428
     28 H           5.6234   -3.2467    1.3705 H       1  UNL1        0.0428
     29 H           5.1257   -3.6148   -0.2900 H       1  UNL1        0.0428
     30 H           4.4163   -2.2450    0.5684 H       1  UNL1        0.0428
     31 H           3.9186   -5.9207    2.3922 H       1  UNL1        0.0428
     32 H           3.5404   -6.2191    0.6739 H       1  UNL1        0.0428
     33 H           5.1725   -5.7628    1.1648 H       1  UNL1        0.0428
@<TRIPOS>BOND
     1     1     2    1
     2     1    16    1
     3     1    17    1
     4     1    18    1
     5     2     3    1
     6     2     4    1
     7     3    19    1
     8     3    20    1
     9     3    21    1
    10     4     9   ar
    11     4     5   ar
    12     5     6   ar
    13     6     7   ar
    14     6    13    1
    15     7     8   ar
    16     8     9   ar
    17     8    10    1
    18    10    11    1
    19    10    12    1
    20    11    22    1
    21    11    23    1
    22    11    24    1
    23    12    25    1
    24    12    26    1
    25    12    27    1
    26    13    14    1
    27    13    15    1
    28    14    28    1
    29    14    29    1
    30    14    30    1
    31    15    31    1
    32    15    32    1
    33    15    33    1
