@<TRIPOS>MOLECULE
ZINC00003876
 44 46 0 0 0
SMALL
GASTEIGER

@<TRIPOS>ATOM
      1 C           2.4872   -0.0992   -0.4842 C.3     1  UNL1       -0.0397
      2 C           0.9919   -0.0912   -0.3864 C.ar    1  UNL1       -0.0504
      3 C           0.2555    1.0094   -0.8412 C.ar    1  UNL1       -0.0582
      4 C          -1.1415    1.0174   -0.7468 C.ar    1  UNL1       -0.0523
      5 C          -1.8256   -0.0714   -0.1956 C.ar    1  UNL1        0.0022
      6 C          -1.0824   -1.1806    0.2228 C.ar    1  UNL1       -0.0523
      7 C           0.3111   -1.1869    0.1460 C.ar    1  UNL1       -0.0582
      8 C          -3.2789   -0.0497   -0.1105 C.ar    1  UNL1        0.0934
      9 C          -4.0671   -0.5652    0.9119 C.ar    1  UNL1        0.0597
     10 N          -5.3699   -0.3490    0.4946 N.ar    1  UNL1       -0.3023
     11 C          -6.5841   -0.6979    1.0932 C.ar    1  UNL1        0.0144
     12 C          -7.7490   -0.3483    0.5112 C.ar    1  UNL1       -0.0338
     13 C          -7.6955    0.3900   -0.7491 C.ar    1  UNL1       -0.0540
     14 C          -6.5267    0.7206   -1.3256 C.ar    1  UNL1       -0.0185
     15 C          -5.2976    0.3507   -0.7061 C.ar    1  UNL1        0.1385
     16 N          -4.0535    0.5584   -1.0714 N.ar    1  UNL1       -0.2275
     17 C          -9.0831   -0.6882    1.0974 C.3     1  UNL1       -0.0383
     18 C          -3.7120   -1.2144    2.2152 C.3     1  UNL1        0.0670
     19 C          -3.5858   -2.7334    2.0853 C.2     1  UNL1        0.2209
     20 O          -3.8449   -3.3247    1.0347 O.2     1  UNL1       -0.2752
     21 N          -3.1435   -3.4350    3.2045 N.am    1  UNL1       -0.3073
     22 C          -2.8777   -2.8681    4.5169 C.3     1  UNL1        0.0028
     23 C          -2.9816   -4.8733    3.0674 C.3     1  UNL1        0.0028
     24 H           2.7992    0.0221   -1.5261 H       1  UNL1        0.0278
     25 H           2.9078    0.7107    0.1196 H       1  UNL1        0.0278
     26 H           2.9059   -1.0429   -0.1181 H       1  UNL1        0.0278
     27 H           0.7632    1.8651   -1.2803 H       1  UNL1        0.0620
     28 H          -1.6977    1.8779   -1.1156 H       1  UNL1        0.0624
     29 H          -1.5730   -2.0760    0.5860 H       1  UNL1        0.0624
     30 H           0.8523   -2.0652    0.4893 H       1  UNL1        0.0620
     31 H          -6.5443   -1.2544    2.0200 H       1  UNL1        0.0816
     32 H          -8.6294    0.6686   -1.2281 H       1  UNL1        0.0622
     33 H          -6.4848    1.2606   -2.2643 H       1  UNL1        0.0654
     34 H          -9.1896   -1.7725    1.2075 H       1  UNL1        0.0278
     35 H          -9.1974   -0.2234    2.0826 H       1  UNL1        0.0278
     36 H          -9.9106   -0.3385    0.4710 H       1  UNL1        0.0278
     37 H          -2.7565   -0.8048    2.5618 H       1  UNL1        0.0423
     38 H          -4.4635   -0.9871    2.9780 H       1  UNL1        0.0423
     39 H          -3.6548   -3.2187    5.2024 H       1  UNL1        0.0428
     40 H          -1.9016   -3.2190    4.8645 H       1  UNL1        0.0428
     41 H          -2.8773   -1.7780    4.5161 H       1  UNL1        0.0428
     42 H          -3.9016   -5.3106    2.6679 H       1  UNL1        0.0428
     43 H          -2.1623   -5.0691    2.3682 H       1  UNL1        0.0428
     44 H          -2.7526   -5.3329    4.0329 H       1  UNL1        0.0428
@<TRIPOS>BOND
     1     1     2    1
     2     1    24    1
     3     1    25    1
     4     1    26    1
     5     2     7   ar
     6     2     3   ar
     7     3     4   ar
     8     3    27    1
     9     4     5   ar
    10     4    28    1
    11     5     6   ar
    12     5     8    1
    13     6     7   ar
    14     6    29    1
    15     7    30    1
    16     8    16   ar
    17     8     9   ar
    18     9    10   ar
    19     9    18    1
    20    10    15   ar
    21    10    11   ar
    22    11    12   ar
    23    11    31    1
    24    12    13   ar
    25    12    17    1
    26    13    14   ar
    27    13    32    1
    28    14    15   ar
    29    14    33    1
    30    15    16   ar
    31    17    34    1
    32    17    35    1
    33    17    36    1
    34    18    19    1
    35    18    37    1
    36    18    38    1
    37    19    20    2
    38    19    21   am
    39    21    22    1
    40    21    23    1
    41    22    39    1
    42    22    40    1
    43    22    41    1
    44    23    42    1
    45    23    43    1
    46    23    44    1
