@<TRIPOS>MOLECULE
ZINC00968328
 45 47 0 0 0
SMALL
GASTEIGER

@<TRIPOS>ATOM
      1 C          -3.1015   -1.1500   -0.2920 C.3     1  UNL1       -0.0103
      2 N          -3.1739    0.2993   -0.1825 N.3     1  UNL1       -0.2754
      3 C          -2.8082    0.8261    1.1509 C.3     1  UNL1        0.0351
      4 C          -1.3454    0.5524    1.5831 C.3     1  UNL1        0.1023
      5 O          -0.9827    1.1605    2.8515 O.3     1  UNL1       -0.4907
      6 C           0.3509    0.9876    3.1813 C.ar    1  UNL1        0.1206
      7 C           0.9729    1.9442    3.9896 C.ar    1  UNL1       -0.0197
      8 C           2.3750    1.9353    4.1650 C.ar    1  UNL1       -0.0551
      9 C           3.1660    0.9752    3.5144 C.ar    1  UNL1       -0.0456
     10 C           2.5102   -0.0740    2.8664 C.ar    1  UNL1       -0.0551
     11 C           1.1233   -0.0820    2.7221 C.ar    1  UNL1       -0.0197
     12 C           4.6712    1.1098    3.3635 C.3     1  UNL1       -0.0069
     13 C           5.6161    0.3394    4.2887 C.3     1  UNL1        0.0945
     14 H           6.6582    0.4814    3.9722 H       1  UNL1        0.0515
     15 C           5.4830    0.8242    5.7147 C.2     1  UNL1        0.2336
     16 O           5.9033    1.8915    6.1252 O.2     1  UNL1       -0.2741
     17 N           4.8272   -0.0878    6.4759 N.am    1  UNL1       -0.2463
     18 C           4.6449   -1.3268    5.9808 C.2     1  UNL1        0.2789
     19 O           4.1258   -2.2588    6.5790 O.2     1  UNL1       -0.2625
     20 S           5.3007   -1.4545    4.3686 S.3     1  UNL1       -0.0542
     21 C          -3.0228    1.1226   -1.3480 C.3     1  UNL1        0.1445
     22 C          -2.8064    0.6096   -2.7066 C.2     1  UNL1       -0.0425
     23 C          -2.6904    1.4531   -3.7560 C.2     1  UNL1       -0.0611
     24 C          -2.8461    2.8841   -3.5713 C.2     1  UNL1       -0.0484
     25 C          -3.0974    3.3359   -2.3335 C.2     1  UNL1       -0.0089
     26 N          -3.1719    2.4884   -1.2525 N.pl3   1  UNL1       -0.3257
     27 H          -3.8986   -1.6009    0.3102 H       1  UNL1        0.0391
     28 H          -2.1454   -1.5535    0.0553 H       1  UNL1        0.0391
     29 H          -3.2513   -1.5503   -1.2978 H       1  UNL1        0.0391
     30 H          -3.0245    1.8925    1.2615 H       1  UNL1        0.0460
     31 H          -3.4716    0.3596    1.8914 H       1  UNL1        0.0460
     32 H          -1.2507   -0.5288    1.6963 H       1  UNL1        0.0709
     33 H          -0.6664    0.9173    0.8022 H       1  UNL1        0.0709
     34 H           0.3838    2.7356    4.4473 H       1  UNL1        0.0654
     35 H           2.8379    2.7290    4.7495 H       1  UNL1        0.0621
     36 H           3.0753   -0.8767    2.3953 H       1  UNL1        0.0621
     37 H           0.6823   -0.9236    2.2048 H       1  UNL1        0.0654
     38 H           4.9109    0.8237    2.3289 H       1  UNL1        0.0329
     39 H           4.9210    2.1786    3.4127 H       1  UNL1        0.0329
     40 H           4.6118    0.1094    7.4466 H       1  UNL1        0.1583
     41 H          -2.7055   -0.4493   -2.8921 H       1  UNL1        0.0608
     42 H          -2.4848    1.0878   -4.7562 H       1  UNL1        0.0616
     43 H          -2.7662    3.5477   -4.4238 H       1  UNL1        0.0630
     44 H          -3.2473    4.3868   -2.1119 H       1  UNL1        0.0778
     45 H          -3.3430    2.8931   -0.3471 H       1  UNL1        0.1477
@<TRIPOS>BOND
     1     1     2    1
     2     1    27    1
     3     1    28    1
     4     1    29    1
     5     2     3    1
     6     2    21    1
     7     3     4    1
     8     3    30    1
     9     3    31    1
    10     4     5    1
    11     4    32    1
    12     4    33    1
    13     5     6    1
    14     6    11   ar
    15     6     7   ar
    16     7     8   ar
    17     7    34    1
    18     8     9   ar
    19     8    35    1
    20     9    10   ar
    21     9    12    1
    22    10    11   ar
    23    10    36    1
    24    11    37    1
    25    12    13    1
    26    12    38    1
    27    12    39    1
    28    13    14    1
    29    13    20    1
    30    13    15    1
    31    15    16    2
    32    15    17   am
    33    17    18   am
    34    17    40    1
    35    18    19    2
    36    18    20    1
    37    21    26    1
    38    21    22    1
    39    22    23    2
    40    22    41    1
    41    23    24    1
    42    23    42    1
    43    24    25    2
    44    24    43    1
    45    25    26    1
    46    25    44    1
    47    26    45    1
