@<TRIPOS>MOLECULE
ZINC00000242
 43 44 0 0 0
SMALL
GASTEIGER

@<TRIPOS>ATOM
      1 C           1.2613   -0.9563   -1.9315 C.3     1  UNL1       -0.0259
      2 C           0.5910    0.1273   -1.0200 C.3     1  UNL1        0.1333
      3 C           0.9594   -0.2196    0.4507 C.ar    1  UNL1       -0.0103
      4 C           2.3037   -0.4455    0.8266 C.ar    1  UNL1       -0.0555
      5 C           2.6438   -0.8460    2.1209 C.ar    1  UNL1       -0.0614
      6 C           1.6547   -1.0168    3.0797 C.ar    1  UNL1       -0.0617
      7 C           0.3308   -0.7551    2.7569 C.ar    1  UNL1       -0.0614
      8 C          -0.0112   -0.3684    1.4594 C.ar    1  UNL1       -0.0555
      9 C          -0.9565    0.2167   -1.2501 C.ar    1  UNL1        0.0771
     10 C          -1.6963   -0.7889   -1.8866 C.ar    1  UNL1       -0.0372
     11 C          -3.0930   -0.7482   -1.8824 C.ar    1  UNL1       -0.0585
     12 C          -3.7456    0.3013   -1.2569 C.ar    1  UNL1       -0.0436
     13 C          -2.9692    1.2761   -0.6677 C.ar    1  UNL1        0.0280
     14 N          -1.6128    1.2502   -0.6370 N.ar    1  UNL1       -0.2566
     15 O           1.3525    1.3239   -1.4004 O.3     1  UNL1       -0.3576
     16 C           0.8390    2.6342   -1.1624 C.3     1  UNL1        0.0891
     17 C           1.1788    3.1378    0.2363 C.3     1  UNL1       -0.0084
     18 N           2.6668    2.9075    0.4958 N.4     1  UNL1        0.2325
     19 C           3.5813    3.8186   -0.2596 C.3     1  UNL1       -0.0433
     20 C           2.9981    2.8757    1.9573 C.3     1  UNL1       -0.0433
     21 H           2.1953   -1.3512   -1.5172 H       1  UNL1        0.0265
     22 H           1.5437   -0.5316   -2.9026 H       1  UNL1        0.0265
     23 H           0.6621   -1.8493   -2.1039 H       1  UNL1        0.0265
     24 H           3.1092   -0.3478    0.1025 H       1  UNL1        0.0621
     25 H           3.6824   -1.0760    2.3688 H       1  UNL1        0.0618
     26 H           1.9099   -1.3782    4.0745 H       1  UNL1        0.0618
     27 H          -0.4467   -0.8953    3.5013 H       1  UNL1        0.0618
     28 H          -1.0691   -0.2011    1.2680 H       1  UNL1        0.0621
     29 H          -1.2449   -1.6474   -2.3683 H       1  UNL1        0.0636
     30 H          -3.6666   -1.5429   -2.3555 H       1  UNL1        0.0619
     31 H          -4.8287    0.3531   -1.2297 H       1  UNL1        0.0633
     32 H          -3.4301    2.1209   -0.1631 H       1  UNL1        0.0829
     33 H           1.3422    3.2801   -1.8977 H       1  UNL1        0.0614
     34 H          -0.2124    2.7600   -1.4257 H       1  UNL1        0.0614
     35 H           0.9742    4.2042    0.3658 H       1  UNL1        0.0837
     36 H           0.6278    2.5653    0.9865 H       1  UNL1        0.0837
     37 H           3.4543    4.8352    0.1235 H       1  UNL1        0.0777
     38 H           4.6063    3.4690   -0.1048 H       1  UNL1        0.0777
     39 H           3.3438    3.7703   -1.3218 H       1  UNL1        0.0777
     40 H           2.2925    2.2069    2.4547 H       1  UNL1        0.0777
     41 H           4.0156    2.4987    2.0691 H       1  UNL1        0.0777
     42 H           2.9114    3.8906    2.3552 H       1  UNL1        0.0777
     43 H           2.8247    1.9574    0.1290 H       1  UNL1        0.2028
@<TRIPOS>UNITY_ATOM_ATTR
18 1
charge 1
@<TRIPOS>BOND
     1     1    21    1
     2     1    22    1
     3     1    23    1
     4     2     9    1
     5     2    15    1
     6     3     8   ar
     7     3     4   ar
     8     4     5   ar
     9     4    24    1
    10     5     6   ar
    11     5    25    1
    12     6     7   ar
    13     6    26    1
    14     7     8   ar
    15     7    27    1
    16     8    28    1
    17     9    14   ar
    18     9    10   ar
    19    10    11   ar
    20    10    29    1
    21    11    12   ar
    22    11    30    1
    23    12    13   ar
    24    12    31    1
    25    13    14   ar
    26    13    32    1
    27    15    16    1
    28    16    17    1
    29    16    33    1
    30    16    34    1
    31    17    18    1
    32    17    35    1
    33    17    36    1
    34    18    19    1
    35    18    20    1
    36    18    43    1
    37    19    37    1
    38    19    38    1
    39    19    39    1
    40    20    40    1
    41    20    41    1
    42    20    42    1
    43     2     3    1
    44     2     1    1
