@<TRIPOS>MOLECULE
ZINC02040778
 35 36 0 0 0
SMALL
GASTEIGER

@<TRIPOS>ATOM
      1 C           0.2191    0.1269    6.2565 C.3     1  UNL1        0.0366
      2 O          -0.2886    0.2178    4.9319 O.3     1  UNL1       -0.3796
      3 C           0.2604   -0.7914    4.0828 C.3     1  UNL1        0.0814
      4 C          -0.3638   -0.6895    2.6907 C.3     1  UNL1        0.1130
      5 O           0.2004   -1.7083    1.8648 O.3     1  UNL1       -0.4866
      6 C          -0.1074   -1.6653    0.5392 C.ar    1  UNL1        0.1567
      7 C          -0.6327   -0.6181   -0.1854 C.ar    1  UNL1        0.0744
      8 N          -0.8575   -0.6536   -1.5169 N.ar    1  UNL1       -0.2165
      9 C          -0.4820   -1.7751   -2.1613 C.ar    1  UNL1        0.2575
     10 N          -0.0321   -2.8838   -1.5482 N.ar    1  UNL1       -0.2165
     11 C           0.1581   -2.7891   -0.2148 C.ar    1  UNL1        0.0744
     12 N          -0.6591   -1.8067   -3.4868 N.pl3   1  UNL1       -0.0576
     13 S           0.5929   -1.4710   -4.4153 S.O2    1  UNL1        0.0943
     14 O           0.2247   -1.1124   -5.7909 O.2     1  UNL1       -0.1483
     15 O           1.6352   -0.6087   -3.8529 O.2     1  UNL1       -0.1483
     16 C           1.4925   -3.0325   -4.6726 C.ar    1  UNL1        0.1105
     17 C           1.2350   -3.7995   -5.8112 C.ar    1  UNL1       -0.0350
     18 C           1.9572   -4.9743   -6.0239 C.ar    1  UNL1       -0.0599
     19 C           2.9334   -5.3704   -5.1061 C.ar    1  UNL1       -0.0616
     20 C           3.1951   -4.5900   -3.9770 C.ar    1  UNL1       -0.0599
     21 C           2.4780   -3.4130   -3.7601 C.ar    1  UNL1       -0.0350
     22 H          -0.1179    1.0048    6.8148 H       1  UNL1        0.0524
     23 H           1.3135    0.1128    6.2585 H       1  UNL1        0.0524
     24 H          -0.1702   -0.7691    6.7493 H       1  UNL1        0.0524
     25 H           1.3468   -0.6569    4.0083 H       1  UNL1        0.0593
     26 H           0.0771   -1.7858    4.5072 H       1  UNL1        0.0593
     27 H          -1.4486   -0.8346    2.7625 H       1  UNL1        0.0720
     28 H          -0.1701    0.3161    2.3009 H       1  UNL1        0.0720
     29 H          -0.8865    0.3360    0.2581 H       1  UNL1        0.0869
     30 H           0.5534   -3.6862    0.2497 H       1  UNL1        0.0869
     31 H           0.4834   -3.4763   -6.5256 H       1  UNL1        0.0637
     32 H           1.7596   -5.5743   -6.9067 H       1  UNL1        0.0618
     33 H           3.4933   -6.2856   -5.2730 H       1  UNL1        0.0618
     34 H           3.9564   -4.8927   -3.2650 H       1  UNL1        0.0618
     35 H           2.6725   -2.7937   -2.8887 H       1  UNL1        0.0637
@<TRIPOS>BOND
     1     1     2    1
     2     1    22    1
     3     1    23    1
     4     1    24    1
     5     2     3    1
     6     3     4    1
     7     3    25    1
     8     3    26    1
     9     4     5    1
    10     4    27    1
    11     4    28    1
    12     5     6    1
    13     6    11   ar
    14     6     7   ar
    15     7     8   ar
    16     7    29    1
    17     8     9   ar
    18     9    10   ar
    19     9    12    1
    20    10    11   ar
    21    11    30    1
    22    12    13    1
    23    13    14    2
    24    13    15    2
    25    13    16    1
    26    16    21   ar
    27    16    17   ar
    28    17    18   ar
    29    17    31    1
    30    18    19   ar
    31    18    32    1
    32    19    20   ar
    33    19    33    1
    34    20    21   ar
    35    20    34    1
    36    21    35    1
