@<TRIPOS>MOLECULE
ZINC00001863
 36 38 0 0 0
SMALL
GASTEIGER

@<TRIPOS>ATOM
      1 C           1.3661   -0.1196    0.8089 C.ar    1  UNL1       -0.0617
      2 C           0.4323   -1.1080    1.1202 C.ar    1  UNL1       -0.0611
      3 C          -0.9214   -0.9112    0.8323 C.ar    1  UNL1       -0.0524
      4 C          -1.3528    0.2766    0.2312 C.ar    1  UNL1        0.0041
      5 C          -0.4076    1.2781   -0.0398 C.ar    1  UNL1       -0.0524
      6 C           0.9465    1.0745    0.2291 C.ar    1  UNL1       -0.0611
      7 C          -2.7574    0.4530   -0.0948 C.ar    1  UNL1        0.1172
      8 C          -3.2839    1.0703   -1.2159 C.ar    1  UNL1        0.1630
      9 O          -4.6479    1.0823   -1.0705 O.2     1  UNL1       -0.4391
     10 C          -4.8705    0.4380    0.1207 C.ar    1  UNL1        0.1973
     11 N          -3.7753    0.0108    0.7193 N.ar    1  UNL1       -0.2127
     12 C          -6.2914    0.2919    0.5468 C.3     1  UNL1        0.0342
     13 C          -6.5704    1.0215    1.8547 C.3     1  UNL1        0.0575
     14 C          -8.0297    0.9157    2.2785 C.2     1  UNL1        0.3565
     15 O          -8.3013    1.5082    3.3608 O.co2   1  UNL1       -0.2464
     16 O          -8.7967    0.2669    1.5142 O.co2   1  UNL1       -0.2464
     17 C          -2.7500    1.6793   -2.4286 C.ar    1  UNL1        0.0195
     18 C          -3.3181    2.8440   -2.9586 C.ar    1  UNL1       -0.0510
     19 C          -2.7126    3.5056   -4.0315 C.ar    1  UNL1       -0.0611
     20 C          -1.5345    3.0083   -4.5873 C.ar    1  UNL1       -0.0617
     21 C          -0.9829    1.8274   -4.0999 C.ar    1  UNL1       -0.0611
     22 C          -1.5998    1.1570   -3.0425 C.ar    1  UNL1       -0.0510
     23 H           2.4182   -0.2750    1.0296 H       1  UNL1        0.0618
     24 H           0.7543   -2.0332    1.5894 H       1  UNL1        0.0618
     25 H          -1.6434   -1.6886    1.0765 H       1  UNL1        0.0624
     26 H          -0.7163    2.2283   -0.4702 H       1  UNL1        0.0624
     27 H           1.6662    1.8521   -0.0110 H       1  UNL1        0.0618
     28 H          -6.9477    0.6725   -0.2458 H       1  UNL1        0.0365
     29 H          -6.5112   -0.7776    0.6547 H       1  UNL1        0.0365
     30 H          -5.9477    0.6060    2.6571 H       1  UNL1        0.0384
     31 H          -6.3145    2.0826    1.7585 H       1  UNL1        0.0384
     32 H          -4.2212    3.2608   -2.5160 H       1  UNL1        0.0625
     33 H          -3.1530    4.4207   -4.4179 H       1  UNL1        0.0618
     34 H          -1.0476    3.5403   -5.3998 H       1  UNL1        0.0618
     35 H          -0.0654    1.4319   -4.5271 H       1  UNL1        0.0618
     36 H          -1.1509    0.2356   -2.6764 H       1  UNL1        0.0625
@<TRIPOS>BOND
     1     1     6   ar
     2     1     2   ar
     3     1    23    1
     4     2     3   ar
     5     2    24    1
     6     3     4   ar
     7     3    25    1
     8     4     5   ar
     9     4     7    1
    10     5     6   ar
    11     5    26    1
    12     6    27    1
    13     7    11   ar
    14     7     8   ar
    15     8     9   ar
    16     8    17    1
    17     9    10   ar
    18    10    11   ar
    19    10    12    1
    20    12    13    1
    21    12    28    1
    22    12    29    1
    23    13    14    1
    24    13    30    1
    25    13    31    1
    26    14    15   ar
    27    14    16   ar
    28    17    22   ar
    29    17    18   ar
    30    18    19   ar
    31    18    32    1
    32    19    20   ar
    33    19    33    1
    34    20    21   ar
    35    20    34    1
    36    21    22   ar
    37    21    35    1
    38    22    36    1
