@<TRIPOS>MOLECULE
ZINC03774999
 77 80 0 0 0
SMALL
GASTEIGER

@<TRIPOS>ATOM
      1 C          -6.3162   -2.9210   -2.5602 C.3     1  UNL1        0.0365
      2 O          -4.9601   -3.0820   -2.1780 O.3     1  UNL1       -0.3807
      3 C          -4.8115   -3.2236   -0.7640 C.3     1  UNL1        0.0706
      4 C          -3.3440   -3.4899   -0.4789 C.3     1  UNL1        0.0710
      5 O          -3.1001   -3.5163    0.9250 O.3     1  UNL1       -0.3767
      6 C          -1.7493   -3.8311    1.2756 C.3     1  UNL1        0.0607
      7 C          -0.7505   -2.6905    1.0693 C.3     1  UNL1        0.0810
      8 H           0.1774   -2.9540    1.5890 H       1  UNL1        0.0437
      9 C          -1.1773   -1.2762    1.5690 C.3     1  UNL1       -0.0240
     10 C          -1.4867   -1.0689    3.0942 C.3     1  UNL1        0.0478
     11 C          -2.0570    0.3493    3.3184 C.3     1  UNL1       -0.0390
     12 C          -2.9633    0.2582    4.5419 C.3     1  UNL1       -0.0521
     13 C          -3.4305   -1.1821    4.6229 C.3     1  UNL1       -0.0521
     14 C          -2.6661   -1.9448    3.5575 C.3     1  UNL1       -0.0390
     15 C          -0.1996   -1.4231    3.8912 C.2     1  UNL1        0.2194
     16 O           0.2011   -2.5888    3.9227 O.2     1  UNL1       -0.2752
     17 N           0.5381   -0.3965    4.4326 N.am    1  UNL1       -0.3120
     18 C           1.8310   -0.6415    5.0888 C.3     1  UNL1        0.0232
     19 C           1.6780   -1.3146    6.4611 C.3     1  UNL1       -0.0337
     20 C           1.1681   -0.3617    7.5418 C.3     1  UNL1       -0.0383
     21 C           2.0222    0.9047    7.6289 C.3     1  UNL1        0.0608
     22 C           2.1286    1.5987    6.2728 C.3     1  UNL1       -0.0383
     23 C           2.6589    0.6483    5.2004 C.3     1  UNL1       -0.0337
     24 C           1.3808    1.7979    8.7063 C.2     1  UNL1        0.3590
     25 O           1.8305    1.6190    9.8741 O.co2   1  UNL1       -0.2461
     26 C          -0.3085   -2.7381   -0.3876 C.2     1  UNL1        0.3177
     27 O           0.0886   -3.7592   -0.9430 O.2     1  UNL1       -0.2500
     28 O          -0.3943   -1.4984   -0.9885 O.3     1  UNL1       -0.4256
     29 C           0.6988   -1.2210   -1.8170 C.ar    1  UNL1        0.1319
     30 C           2.0052   -1.4363   -1.3387 C.ar    1  UNL1       -0.0190
     31 C           3.0986   -1.0139   -2.0803 C.ar    1  UNL1       -0.0548
     32 C           2.8599   -0.3736   -3.2822 C.ar    1  UNL1       -0.0439
     33 C           1.5580   -0.1656   -3.7583 C.ar    1  UNL1       -0.0407
     34 C           0.4565   -0.5777   -3.0272 C.ar    1  UNL1       -0.0158
     35 C           1.5849    0.6070   -5.0408 C.3     1  UNL1       -0.0270
     36 C           3.0512    0.4309   -5.4673 C.3     1  UNL1       -0.0450
     37 C           3.8693    0.2574   -4.1833 C.3     1  UNL1       -0.0271
     38 H          -6.3357   -2.6326   -3.6150 H       1  UNL1        0.0524
     39 H          -6.8002   -2.1354   -1.9739 H       1  UNL1        0.0524
     40 H          -6.8504   -3.8675   -2.4459 H       1  UNL1        0.0524
     41 H          -5.1306   -2.3029   -0.2617 H       1  UNL1        0.0582
     42 H          -5.4295   -4.0467   -0.3863 H       1  UNL1        0.0582
     43 H          -3.0366   -4.4385   -0.9336 H       1  UNL1        0.0583
     44 H          -2.7629   -2.6879   -0.9430 H       1  UNL1        0.0583
     45 H          -1.7516   -4.1213    2.3275 H       1  UNL1        0.0568
     46 H          -1.4515   -4.7539    0.7452 H       1  UNL1        0.0568
     47 H          -0.3705   -0.5723    1.3118 H       1  UNL1        0.0284
     48 H          -2.0446   -0.9505    0.9789 H       1  UNL1        0.0284
     49 H          -1.3043    1.1323    3.4406 H       1  UNL1        0.0275
     50 H          -2.6711    0.6532    2.4605 H       1  UNL1        0.0275
     51 H          -3.8140    0.9428    4.4549 H       1  UNL1        0.0266
     52 H          -2.4197    0.5233    5.4549 H       1  UNL1        0.0266
     53 H          -4.5078   -1.2648    4.4343 H       1  UNL1        0.0266
     54 H          -3.2457   -1.6018    5.6168 H       1  UNL1        0.0266
     55 H          -3.3622   -2.1036    2.7326 H       1  UNL1        0.0275
     56 H          -2.3587   -2.9174    3.9495 H       1  UNL1        0.0275
     57 H           0.0448    0.4282    4.7530 H       1  UNL1        0.1490
     58 H           2.3768   -1.3336    4.4336 H       1  UNL1        0.0498
     59 H           1.0104   -2.1807    6.4021 H       1  UNL1        0.0283
     60 H           2.6589   -1.6983    6.7721 H       1  UNL1        0.0283
     61 H           1.1723   -0.8844    8.5069 H       1  UNL1        0.0274
     62 H           0.1221   -0.1034    7.3356 H       1  UNL1        0.0274
     63 H           3.0349    0.6340    7.9634 H       1  UNL1        0.0415
     64 H           2.7930    2.4680    6.3525 H       1  UNL1        0.0274
     65 H           1.1551    1.9889    5.9558 H       1  UNL1        0.0274
     66 H           3.6942    0.3837    5.4558 H       1  UNL1        0.0283
     67 H           2.6941    1.1671    4.2361 H       1  UNL1        0.0283
     68 H           2.1741   -1.9132   -0.3769 H       1  UNL1        0.0654
     69 H           4.1084   -1.1555   -1.7079 H       1  UNL1        0.0622
     70 H          -0.5559   -0.3857   -3.3697 H       1  UNL1        0.0657
     71 H           1.3537    1.6574   -4.8502 H       1  UNL1        0.0313
     72 H           0.9008    0.1993   -5.7894 H       1  UNL1        0.0313
     73 H           3.1434   -0.4786   -6.0774 H       1  UNL1        0.0272
     74 H           3.4103    1.2661   -6.0775 H       1  UNL1        0.0272
     75 H           4.7453   -0.3792   -4.3408 H       1  UNL1        0.0313
     76 H           4.1763    1.2241   -3.7719 H       1  UNL1        0.0313
     77 O           0.4831    2.5887    8.3021 O.co2   1  UNL1       -0.2461
@<TRIPOS>BOND
     1     1     2    1
     2     1    38    1
     3     1    39    1
     4     1    40    1
     5     2     3    1
     6     3     4    1
     7     3    41    1
     8     3    42    1
     9     4     5    1
    10     4    43    1
    11     4    44    1
    12     5     6    1
    13     6    45    1
    14     6    46    1
    15     7     9    1
    16     7    26    1
    17     9    10    1
    18     9    47    1
    19     9    48    1
    20    10    14    1
    21    10    11    1
    22    10    15    1
    23    11    12    1
    24    11    49    1
    25    11    50    1
    26    12    13    1
    27    12    51    1
    28    12    52    1
    29    13    14    1
    30    13    53    1
    31    13    54    1
    32    14    55    1
    33    14    56    1
    34    15    16    2
    35    15    17   am
    36    17    57    1
    37    18    23    1
    38    18    19    1
    39    19    20    1
    40    19    59    1
    41    19    60    1
    42    20    21    1
    43    20    61    1
    44    20    62    1
    45    21    22    1
    46    22    23    1
    47    22    64    1
    48    22    65    1
    49    23    66    1
    50    23    67    1
    51    24    25   ar
    52    24    77   ar
    53    26    27    2
    54    26    28    1
    55    28    29    1
    56    29    34   ar
    57    29    30   ar
    58    30    31   ar
    59    30    68    1
    60    31    32   ar
    61    31    69    1
    62    32    37    1
    63    32    33   ar
    64    33    34   ar
    65    33    35    1
    66    34    70    1
    67    35    36    1
    68    35    71    1
    69    35    72    1
    70    36    37    1
    71    36    73    1
    72    36    74    1
    73    37    75    1
    74    37    76    1
    75     7     8    1
    76     7     6    1
    77    18    58    1
    78    18    17    1
    79    21    63    1
    80    21    24    1
