@<TRIPOS>MOLECULE
ZINC00000882
 15 16 0 0 0
SMALL
GASTEIGER

@<TRIPOS>ATOM
      1 C           2.3453    0.6490   -0.0029 C.ar    1  UNL1        0.0957
      2 N           2.0214   -0.6811   -0.0050 N.ar    1  UNL1       -0.3292
      3 H           2.6588   -1.4630   -0.0085 H       1  UNL1        0.1682
      4 C           0.6609   -0.7730   -0.0005 C.ar    1  UNL1        0.1627
      5 C           0.2096    0.5353    0.0008 C.ar    1  UNL1        0.1470
      6 N           1.2750    1.4163   -0.0012 N.ar    1  UNL1       -0.2308
      7 C          -1.1836    0.7170    0.0050 C.ar    1  UNL1        0.1471
      8 N          -1.9763   -0.3806    0.0070 N.ar    1  UNL1       -0.2188
      9 C          -1.3886   -1.5980    0.0072 C.ar    1  UNL1        0.1205
     10 N          -0.0722   -1.8953    0.0025 N.ar    1  UNL1       -0.2162
     11 N          -1.7836    1.9552    0.0105 N.pl3   1  UNL1       -0.3413
     12 H           3.3718    0.9939   -0.0030 H       1  UNL1        0.1027
     13 H          -2.0666   -2.4476    0.0121 H       1  UNL1        0.1048
     14 H          -1.2048    2.7826   -0.0132 H       1  UNL1        0.1438
     15 H          -2.7893    1.9972   -0.0106 H       1  UNL1        0.1438
@<TRIPOS>BOND
     1     1     6   ar
     2     1     2   ar
     3     1    12    1
     4     2     3    1
     5     2     4   ar
     6     4    10   ar
     7     4     5   ar
     8     5     6   ar
     9     5     7   ar
    10     7     8   ar
    11     7    11    1
    12     8     9   ar
    13     9    10   ar
    14     9    13    1
    15    11    14    1
    16    11    15    1
