@<TRIPOS>MOLECULE
ZINC00895032
 15 14 0 0 0
SMALL
GASTEIGER

@<TRIPOS>ATOM
      1 CB          0.8103   -0.0071   -0.0532 C.3     1  ASP1        0.1024
      2 CA          0.3066   -0.7477    1.1753 C.3     1  ASP1        0.0889
      3 HA          0.6355   -0.2751    2.1074 H       1  ASP1        0.0975
      4 C          -1.2441   -0.8617    1.1307 C.2     1  ASP1        0.4032
      5 O          -1.6148   -1.9858    0.6582 O.co2   1  ASP1       -0.2400
      6 OXT        -1.9046    0.0664    1.6576 O.co2   1  ASP1       -0.2400
      7 N           0.9182   -2.1405    1.1784 N.4     1  ASP1        0.2293
      8 CG          2.3175    0.1248    0.0886 C.2     1  ASP1        0.3619
      9 OD1         2.9025   -0.9776    0.3450 O.co2   1  ASP1       -0.2461
     10 OD2         2.8000    1.2758   -0.0471 O.co2   1  ASP1       -0.2461
     11 HB1         0.3422    0.9793   -0.1352 H       1  ASP1        0.0441
     12 HB2         0.5858   -0.5550   -0.9771 H       1  ASP1        0.0441
     13 H1          0.3611   -2.6601    0.4862 H       1  ASP1        0.2003
     14 H2          1.9207   -2.0452    0.8894 H       1  ASP1        0.2003
     15 H3          0.8070   -2.5833    2.0840 H       1  ASP1        0.2003
@<TRIPOS>UNITY_ATOM_ATTR
7 1
charge 1
@<TRIPOS>BOND
     1     1     2    1
     2     1     8    1
     3     1    11    1
     4     1    12    1
     5     2     3    1
     6     2     4    1
     7     2     7    1
     8     4     5   ar
     9     4     6   ar
    10     7    13    1
    11     7    14    1
    12     7    15    1
    13     8     9   ar
    14     8    10   ar
