@<TRIPOS>MOLECULE
ZINC01530938
 38 38 0 0 0
SMALL
GASTEIGER

@<TRIPOS>ATOM
      1 C           0.7593    0.1306    0.0837 C.3     1  UNL1       -0.0245
      2 C           0.2567   -0.4301   -1.2363 C.3     1  UNL1       -0.0347
      3 N           0.6741   -1.8776   -1.4172 N.4     1  UNL1        0.2372
      4 C           0.1919   -2.8211   -0.3230 C.3     1  UNL1       -0.0347
      5 C          -1.3249   -2.8761   -0.2252 C.3     1  UNL1       -0.0245
      6 C           0.3609   -2.4552   -2.7999 C.3     1  UNL1        0.0032
      7 C           1.0945   -1.7435   -3.9384 C.3     1  UNL1        0.1323
      8 O           2.5158   -1.6989   -3.7689 O.3     1  UNL1       -0.4558
      9 C           3.1813   -2.8362   -4.1037 C.2     1  UNL1        0.3408
     10 O           2.6759   -3.9438   -4.1020 O.2     1  UNL1       -0.2449
     11 C           4.5066   -2.5056   -4.6875 C.ar    1  UNL1        0.0774
     12 C           4.9409   -3.3342   -5.7351 C.ar    1  UNL1       -0.0446
     13 C           6.0823   -3.0054   -6.4727 C.ar    1  UNL1       -0.0402
     14 C           6.8337   -1.8737   -6.1558 C.ar    1  UNL1        0.0260
     15 C           6.4033   -1.0541   -5.1095 C.ar    1  UNL1       -0.0219
     16 C           5.2691   -1.3789   -4.3521 C.ar    1  UNL1        0.0567
     17 CL          4.9059   -0.3410   -3.0139 Cl      1  UNL1       -0.0826
     18 N           7.8419   -1.4384   -7.0173 N.pl3   1  UNL1       -0.3579
     19 H           0.2563   -0.3260    0.9416 H       1  UNL1        0.0281
     20 H           0.5607    1.2067    0.1326 H       1  UNL1        0.0281
     21 H           1.8384   -0.0180    0.1937 H       1  UNL1        0.0281
     22 H          -0.8320   -0.3700   -1.3208 H       1  UNL1        0.0812
     23 H           0.7052    0.1444   -2.0506 H       1  UNL1        0.0812
     24 H           0.6020   -3.8112   -0.5491 H       1  UNL1        0.0812
     25 H           0.6397   -2.4916    0.6187 H       1  UNL1        0.0812
     26 H          -1.7815   -3.2405   -1.1503 H       1  UNL1        0.0281
     27 H          -1.6205   -3.5620    0.5749 H       1  UNL1        0.0281
     28 H          -1.7594   -1.9002    0.0105 H       1  UNL1        0.0281
     29 H           0.6584   -3.5066   -2.7587 H       1  UNL1        0.0848
     30 H          -0.7208   -2.3905   -2.9496 H       1  UNL1        0.0848
     31 H           0.8556   -2.2222   -4.8962 H       1  UNL1        0.0752
     32 H           0.7581   -0.7068   -4.0316 H       1  UNL1        0.0752
     33 H           4.3687   -4.2160   -6.0209 H       1  UNL1        0.0627
     34 H           6.3638   -3.6294   -7.3192 H       1  UNL1        0.0636
     35 H           6.9516   -0.1405   -4.8895 H       1  UNL1        0.0651
     36 H           8.5172   -0.7979   -6.6098 H       1  UNL1        0.1423
     37 H           8.2895   -2.1684   -7.5646 H       1  UNL1        0.1423
     38 H           1.7033   -1.8832   -1.3624 H       1  UNL1        0.2034
@<TRIPOS>UNITY_ATOM_ATTR
3 1
charge 1
@<TRIPOS>BOND
     1     1     2    1
     2     1    19    1
     3     1    20    1
     4     1    21    1
     5     2     3    1
     6     2    22    1
     7     2    23    1
     8     3     4    1
     9     3     6    1
    10     3    38    1
    11     4     5    1
    12     4    24    1
    13     4    25    1
    14     5    26    1
    15     5    27    1
    16     5    28    1
    17     6     7    1
    18     6    29    1
    19     6    30    1
    20     7     8    1
    21     7    31    1
    22     7    32    1
    23     8     9    1
    24     9    10    2
    25     9    11    1
    26    11    16   ar
    27    11    12   ar
    28    12    13   ar
    29    12    33    1
    30    13    14   ar
    31    13    34    1
    32    14    15   ar
    33    14    18    1
    34    15    16   ar
    35    15    35    1
    36    16    17    1
    37    18    36    1
    38    18    37    1
