@<TRIPOS>MOLECULE
ZINC01532132
 39 39 0 0 0
SMALL
GASTEIGER

@<TRIPOS>ATOM
      1 C          -3.0652    2.7600   -1.4976 C.3     1  UNL1        0.0817
      2 O          -1.9049    2.4871   -0.7078 O.3     1  UNL1       -0.4666
      3 C          -0.8351    2.0296   -1.4226 C.2     1  UNL1        0.3277
      4 O          -0.8044    1.9194   -2.6454 O.2     1  UNL1       -0.2487
      5 C           0.3256    1.6613   -0.4876 C.3     1  UNL1        0.1245
      6 H           1.1464    2.3420   -0.7400 H       1  UNL1        0.0618
      7 C           0.7792    0.2160   -0.7621 C.3     1  UNL1        0.0012
      8 C          -0.2130   -0.8565   -0.3708 C.ar    1  UNL1       -0.0451
      9 C          -0.1795   -1.4193    0.9123 C.ar    1  UNL1       -0.0585
     10 C          -1.0636   -2.4404    1.2622 C.ar    1  UNL1       -0.0615
     11 C          -1.9885   -2.9105    0.3326 C.ar    1  UNL1       -0.0617
     12 C          -2.0400   -2.3499   -0.9420 C.ar    1  UNL1       -0.0615
     13 C          -1.1602   -1.3243   -1.2923 C.ar    1  UNL1       -0.0585
     14 N          -0.0035    1.9206    0.9268 N.am    1  UNL1       -0.2974
     15 C           0.9420    1.9511    1.9117 C.2     1  UNL1        0.2623
     16 O           2.1328    1.7199    1.6824 O.2     1  UNL1       -0.2696
     17 C           0.4995    2.2468    3.3634 C.3     1  UNL1        0.0635
     18 H           0.2673    1.2854    3.8386 H       1  UNL1        0.0954
     19 C          -0.6409    3.2390    3.5080 C.3     1  UNL1        0.1004
     20 C          -0.9033    3.2564    5.0078 C.2     1  UNL1        0.3619
     21 O           0.1274    3.5622    5.6850 O.co2   1  UNL1       -0.2461
     22 O          -2.0320    2.8636    5.3602 O.co2   1  UNL1       -0.2461
     23 N           1.7141    2.7808    4.0848 N.4     1  UNL1        0.2278
     24 H          -3.8472    3.1246   -0.8272 H       1  UNL1        0.0661
     25 H          -3.4180    1.8422   -1.9773 H       1  UNL1        0.0661
     26 H          -2.8532    3.5339   -2.2401 H       1  UNL1        0.0661
     27 H           1.0163    0.0983   -1.8283 H       1  UNL1        0.0337
     28 H           1.7247    0.0161   -0.2401 H       1  UNL1        0.0337
     29 H           0.5530   -1.0839    1.6419 H       1  UNL1        0.0620
     30 H          -1.0217   -2.8811    2.2550 H       1  UNL1        0.0618
     31 H          -2.6633   -3.7201    0.5989 H       1  UNL1        0.0618
     32 H          -2.7578   -2.7219   -1.6690 H       1  UNL1        0.0618
     33 H          -1.2073   -0.9118   -2.2989 H       1  UNL1        0.0620
     34 H          -0.9772    2.1433    1.1144 H       1  UNL1        0.1497
     35 H          -0.3821    4.2375    3.1403 H       1  UNL1        0.0440
     36 H          -1.5414    2.9038    2.9833 H       1  UNL1        0.0440
     37 H           1.4048    3.0015    5.0691 H       1  UNL1        0.2002
     38 H           2.4935    2.1214    4.0794 H       1  UNL1        0.2002
     39 H           2.0114    3.6794    3.7023 H       1  UNL1        0.2002
@<TRIPOS>UNITY_ATOM_ATTR
23 1
charge 1
@<TRIPOS>BOND
     1     1     2    1
     2     1    24    1
     3     1    25    1
     4     1    26    1
     5     2     3    1
     6     3     4    2
     7     5     7    1
     8     5    14    1
     9     7     8    1
    10     7    27    1
    11     7    28    1
    12     8    13   ar
    13     8     9   ar
    14     9    10   ar
    15     9    29    1
    16    10    11   ar
    17    10    30    1
    18    11    12   ar
    19    11    31    1
    20    12    13   ar
    21    12    32    1
    22    13    33    1
    23    14    15   am
    24    14    34    1
    25    15    16    2
    26    17    19    1
    27    17    23    1
    28    19    20    1
    29    19    35    1
    30    19    36    1
    31    20    21   ar
    32    20    22   ar
    33    23    37    1
    34    23    38    1
    35    23    39    1
    36     5     6    1
    37     5     3    1
    38    17    18    1
    39    17    15    1
