@<TRIPOS>MOLECULE
ZINC01481714
 46 48 0 0 0
SMALL
GASTEIGER

@<TRIPOS>ATOM
      1 C           0.0152   -0.6852   -0.8565 C.3     1  UNL1       -0.0201
      2 C           0.1992    0.8023   -0.5365 C.3     1  UNL1       -0.0078
      3 H           0.4973    1.3174   -1.4583 H       1  UNL1        0.0864
      4 C          -1.1371    1.4713   -0.0469 C.3     1  UNL1        0.0599
      5 N          -1.6434    0.9787    1.2502 N.pl3   1  UNL1       -0.2929
      6 C          -1.4589    1.7806    2.4035 C.ar    1  UNL1        0.0480
      7 C          -1.7020    3.1650    2.3860 C.ar    1  UNL1       -0.0393
      8 C          -1.5109    3.9432    3.5296 C.ar    1  UNL1       -0.0599
      9 C          -1.0933    3.3480    4.7160 C.ar    1  UNL1       -0.0606
     10 C          -0.8958    1.9688    4.7700 C.ar    1  UNL1       -0.0462
     11 C          -1.0964    1.1844    3.6291 C.ar    1  UNL1        0.0341
     12 S          -0.8529   -0.5863    3.7402 S.3     1  UNL1       -0.0857
     13 C          -1.9902   -1.1171    2.4604 C.ar    1  UNL1        0.0341
     14 C          -2.2562   -0.2909    1.3452 C.ar    1  UNL1        0.0487
     15 C          -3.1955   -0.7434    0.4012 C.ar    1  UNL1       -0.0288
     16 C          -3.8392   -1.9896    0.5474 C.ar    1  UNL1        0.0189
     17 C          -3.5112   -2.8119    1.6261 C.ar    1  UNL1       -0.0501
     18 C          -2.5912   -2.3748    2.5792 C.ar    1  UNL1       -0.0455
     19 C          -4.8803   -2.3827   -0.4493 C.2     1  UNL1        0.1602
     20 O          -5.0923   -1.6484   -1.4120 O.2     1  UNL1       -0.2924
     21 C          -5.6341   -3.6760   -0.2605 C.3     1  UNL1       -0.0014
     22 C           2.6889    0.4051   -0.1653 C.3     1  UNL1       -0.0430
     23 C           1.6769    2.3791    0.8695 C.3     1  UNL1       -0.0430
     24 H          -0.8629   -0.8377   -1.4918 H       1  UNL1        0.0285
     25 H          -0.0946   -1.2897    0.0483 H       1  UNL1        0.0285
     26 H           0.8671   -1.0893   -1.4117 H       1  UNL1        0.0285
     27 H          -0.9587    2.5529   -0.0226 H       1  UNL1        0.0524
     28 H          -1.8968    1.3471   -0.8272 H       1  UNL1        0.0524
     29 H          -2.0980    3.6522    1.4981 H       1  UNL1        0.0636
     30 H          -1.7178    5.0121    3.5037 H       1  UNL1        0.0618
     31 H          -0.9508    3.9534    5.6082 H       1  UNL1        0.0618
     32 H          -0.6070    1.5118    5.7140 H       1  UNL1        0.0629
     33 H          -3.4939   -0.1030   -0.4271 H       1  UNL1        0.0643
     34 H          -3.9724   -3.7866    1.7637 H       1  UNL1        0.0625
     35 H          -2.3696   -3.0153    3.4308 H       1  UNL1        0.0629
     36 H          -4.9627   -4.5244   -0.4181 H       1  UNL1        0.0309
     37 H          -6.0877   -3.7188    0.7337 H       1  UNL1        0.0309
     38 H          -6.4434   -3.7337   -0.9952 H       1  UNL1        0.0309
     39 H           2.8177    0.8165   -1.1728 H       1  UNL1        0.0777
     40 H           3.5304    0.6967    0.4694 H       1  UNL1        0.0777
     41 H           2.6227   -0.6842   -0.1849 H       1  UNL1        0.0777
     42 H           0.8199    2.7574    1.4149 H       1  UNL1        0.0777
     43 H           2.5378    2.3647    1.5454 H       1  UNL1        0.0777
     44 H           1.8858    2.9900   -0.0124 H       1  UNL1        0.0777
     45 N           1.4060    0.9660    0.4214 N.4     1  UNL1        0.2340
     46 H           1.1756    0.4287    1.2735 H       1  UNL1        0.2031
@<TRIPOS>UNITY_ATOM_ATTR
45 1
charge 1
@<TRIPOS>BOND
     1     1     2    1
     2     1    24    1
     3     1    25    1
     4     1    26    1
     5     2     3    1
     6     2     4    1
     7     2    45    1
     8     4     5    1
     9     4    27    1
    10     4    28    1
    11     5    14    1
    12     5     6    1
    13     6    11   ar
    14     6     7   ar
    15     7     8   ar
    16     7    29    1
    17     8     9   ar
    18     8    30    1
    19     9    10   ar
    20     9    31    1
    21    10    11   ar
    22    10    32    1
    23    11    12    1
    24    12    13    1
    25    13    18   ar
    26    13    14   ar
    27    14    15   ar
    28    15    16   ar
    29    15    33    1
    30    16    17   ar
    31    16    19    1
    32    17    18   ar
    33    17    34    1
    34    18    35    1
    35    19    20    2
    36    19    21    1
    37    21    36    1
    38    21    37    1
    39    21    38    1
    40    22    39    1
    41    22    40    1
    42    22    41    1
    43    22    45    1
    44    23    42    1
    45    23    43    1
    46    23    44    1
    47    23    45    1
    48    45    46    1
