@<TRIPOS>MOLECULE
ZINC03594299
 27 28 0 0 0
SMALL
GASTEIGER

@<TRIPOS>ATOM
      1 C          -2.4596   -0.6430    0.1619 C.ar    1  UNL1       -0.0615
      2 C          -2.4124    0.7469    0.2111 C.ar    1  UNL1       -0.0614
      3 C          -1.1968    1.4142    0.0467 C.ar    1  UNL1       -0.0555
      4 C          -0.0180    0.6862   -0.1440 C.ar    1  UNL1       -0.0125
      5 C          -0.0699   -0.7166   -0.1715 C.ar    1  UNL1       -0.0386
      6 C          -1.2930   -1.3790   -0.0358 C.ar    1  UNL1       -0.0581
      7 C           1.2191   -1.4594   -0.3628 C.3     1  UNL1        0.0018
      8 C           2.2986   -0.7973    0.4954 C.3     1  UNL1        0.0647
      9 N           2.4197    0.6754    0.2833 N.pl3   1  UNL1       -0.2235
     10 C           1.2960    1.3777   -0.3884 C.3     1  UNL1        0.0860
     11 C           3.5138    1.3601    0.7368 C.cat   1  UNL1        0.3270
     12 N           3.6652    2.6864    0.5530 N.2     1  UNL1       -0.2952
     13 N           4.5129    0.7374    1.3931 N.pl3   1  UNL1       -0.2543
     14 H          -3.4127   -1.1572    0.2761 H       1  UNL1        0.0618
     15 H          -3.3280    1.3151    0.3657 H       1  UNL1        0.0618
     16 H          -1.1900    2.5017    0.0665 H       1  UNL1        0.0621
     17 H          -1.3488   -2.4636   -0.0771 H       1  UNL1        0.0620
     18 H           1.4983   -1.4239   -1.4224 H       1  UNL1        0.0342
     19 H           1.1175   -2.5116   -0.0751 H       1  UNL1        0.0342
     20 H           3.2577   -1.2695    0.2594 H       1  UNL1        0.0637
     21 H           2.0777   -0.9488    1.5594 H       1  UNL1        0.0637
     22 H           1.2231    2.3997   -0.0082 H       1  UNL1        0.0685
     23 H           1.5071    1.4034   -1.4635 H       1  UNL1        0.0685
     24 H           4.4723    3.1771    0.9152 H       1  UNL1        0.2542
     25 H           4.4860   -0.2513    1.5995 H       1  UNL1        0.2411
     26 H           5.3282    1.2408    1.7167 H       1  UNL1        0.2411
     27 H           2.9928    3.2519    0.0550 H       1  UNL1        0.2542
@<TRIPOS>BOND
     1     1     6   ar
     2     1     2   ar
     3     1    14    1
     4     2     3   ar
     5     2    15    1
     6     3     4   ar
     7     3    16    1
     8     4    10    1
     9     4     5   ar
    10     5     6   ar
    11     5     7    1
    12     6    17    1
    13     7     8    1
    14     7    18    1
    15     7    19    1
    16     8     9    1
    17     8    20    1
    18     8    21    1
    19     9    10    1
    20     9    11    1
    21    10    22    1
    22    10    23    1
    23    11    12    2
    24    11    13    1
    25    12    24    1
    26    12    27    1
    27    13    25    1
    28    13    26    1
