@<TRIPOS>MOLECULE
ZINC01530716
 43 43 0 0 0
SMALL
GASTEIGER

@<TRIPOS>ATOM
      1 C           1.1779    0.1620    0.0918 C.3     1  UNL1       -0.0245
      2 C           0.5078   -1.2024    0.0935 C.3     1  UNL1       -0.0348
      3 N           0.8538   -1.9983    1.3433 N.4     1  UNL1        0.2359
      4 C           0.4983   -1.3293    2.6595 C.3     1  UNL1       -0.0348
      5 C          -0.9957   -1.0957    2.8076 C.3     1  UNL1       -0.0245
      6 C           0.3381   -3.4388    1.2992 C.3     1  UNL1       -0.0160
      7 C           0.9941   -4.2476    0.1783 C.3     1  UNL1        0.0520
      8 N           2.4481   -4.1417    0.1961 N.am    1  UNL1       -0.3062
      9 C           3.1433   -4.4121   -0.9815 C.2     1  UNL1        0.2478
     10 O           2.5608   -4.5331   -2.0490 O.2     1  UNL1       -0.2701
     11 C           4.6261   -4.5675   -0.8638 C.ar    1  UNL1        0.0797
     12 C           5.1741   -5.2000    0.2614 C.ar    1  UNL1       -0.0259
     13 C           6.5549   -5.3847    0.3567 C.ar    1  UNL1        0.0625
     14 C           7.4189   -4.9427   -0.6569 C.ar    1  UNL1        0.0466
     15 C           6.8573   -4.3572   -1.7976 C.ar    1  UNL1        0.0029
     16 C           5.4733   -4.1454   -1.9035 C.ar    1  UNL1        0.1340
     17 O           4.9102   -3.4623   -2.9503 O.3     1  UNL1       -0.4943
     18 C           5.5467   -3.6152   -4.2164 C.3     1  UNL1        0.0788
     19 N           8.7826   -5.2721   -0.6578 N.pl3   1  UNL1       -0.3567
     20 CL          7.1762   -6.1379    1.7844 Cl      1  UNL1       -0.0816
     21 H           0.8158    0.8003    0.9019 H       1  UNL1        0.0281
     22 H           0.9598    0.6766   -0.8477 H       1  UNL1        0.0281
     23 H           2.2660    0.0666    0.1803 H       1  UNL1        0.0281
     24 H          -0.5811   -1.1294    0.0258 H       1  UNL1        0.0812
     25 H           0.8774   -1.7679   -0.7659 H       1  UNL1        0.0812
     26 H           0.8674   -1.9818    3.4592 H       1  UNL1        0.0812
     27 H           1.0595   -0.3932    2.7226 H       1  UNL1        0.0812
     28 H          -1.5566   -2.0359    2.8081 H       1  UNL1        0.0281
     29 H          -1.2025   -0.5961    3.7594 H       1  UNL1        0.0281
     30 H          -1.3937   -0.4590    2.0123 H       1  UNL1        0.0281
     31 H           0.6032   -3.8876    2.2632 H       1  UNL1        0.0830
     32 H          -0.7501   -3.4131    1.1923 H       1  UNL1        0.0830
     33 H           0.7347   -5.3074    0.2802 H       1  UNL1        0.0515
     34 H           0.6071   -3.9234   -0.7938 H       1  UNL1        0.0515
     35 H           2.9364   -4.2945    1.0681 H       1  UNL1        0.1492
     36 H           4.5461   -5.5950    1.0533 H       1  UNL1        0.0641
     37 H           7.5258   -4.0505   -2.5981 H       1  UNL1        0.0673
     38 H           6.4609   -3.0159   -4.2646 H       1  UNL1        0.0660
     39 H           5.7525   -4.6673   -4.4420 H       1  UNL1        0.0660
     40 H           4.8625   -3.2345   -4.9805 H       1  UNL1        0.0660
     41 H           9.1632   -5.4683    0.2665 H       1  UNL1        0.1424
     42 H           9.3870   -4.6800   -1.2188 H       1  UNL1        0.1424
     43 H           1.8804   -2.0855    1.3176 H       1  UNL1        0.2034
@<TRIPOS>UNITY_ATOM_ATTR
3 1
charge 1
@<TRIPOS>BOND
     1     1     2    1
     2     1    21    1
     3     1    22    1
     4     1    23    1
     5     2     3    1
     6     2    24    1
     7     2    25    1
     8     3     4    1
     9     3     6    1
    10     3    43    1
    11     4     5    1
    12     4    26    1
    13     4    27    1
    14     5    28    1
    15     5    29    1
    16     5    30    1
    17     6     7    1
    18     6    31    1
    19     6    32    1
    20     7     8    1
    21     7    33    1
    22     7    34    1
    23     8     9   am
    24     8    35    1
    25     9    10    2
    26     9    11    1
    27    11    16   ar
    28    11    12   ar
    29    12    13   ar
    30    12    36    1
    31    13    14   ar
    32    13    20    1
    33    14    15   ar
    34    14    19    1
    35    15    16   ar
    36    15    37    1
    37    16    17    1
    38    17    18    1
    39    18    38    1
    40    18    39    1
    41    18    40    1
    42    19    41    1
    43    19    42    1
