@<TRIPOS>MOLECULE
ZINC00601316
 52 55 0 0 0
SMALL
GASTEIGER

@<TRIPOS>ATOM
      1 C           7.6394    5.2340    2.1026 C.3     1  UNL1       -0.0411
      2 N           7.5005    3.8733    1.4380 N.4     1  UNL1        0.2438
      3 C           7.8101    2.7692    2.4561 C.3     1  UNL1       -0.0298
      4 C           7.6879    1.4037    1.7764 C.3     1  UNL1       -0.0059
      5 C           7.2826    1.5556    0.3021 C.3     1  UNL1        0.0108
      6 C           8.3844    2.3897   -0.3704 C.3     1  UNL1       -0.0059
      7 C           8.4934    3.7772    0.2660 C.3     1  UNL1       -0.0298
      8 C           5.9214    2.2829    0.2498 C.3     1  UNL1        0.1457
      9 H           5.2221    1.7226    0.8862 H       1  UNL1        0.0791
     10 C           6.0544    3.6917    0.8884 C.3     1  UNL1        0.0079
     11 O           5.3235    2.1662   -1.0693 O.3     1  UNL1       -0.4532
     12 C           5.6881    2.9755   -2.1000 C.2     1  UNL1        0.3490
     13 O           6.3776    3.9778   -1.9141 O.2     1  UNL1       -0.2468
     14 C           5.1316    2.5350   -3.4872 C.3     1  UNL1        0.2134
     15 C           5.3133    1.0252   -3.7375 C.ar    1  UNL1       -0.0008
     16 C           6.4466    0.5468   -4.4299 C.ar    1  UNL1       -0.0550
     17 C           6.5640   -0.7959   -4.7942 C.ar    1  UNL1       -0.0614
     18 C           5.5629   -1.6963   -4.4515 C.ar    1  UNL1       -0.0617
     19 C           4.4605   -1.2615   -3.7191 C.ar    1  UNL1       -0.0614
     20 C           4.3395    0.0852   -3.3549 C.ar    1  UNL1       -0.0550
     21 C           3.7048    3.0678   -3.7398 C.ar    1  UNL1       -0.0008
     22 C           3.0502    2.7550   -4.9505 C.ar    1  UNL1       -0.0550
     23 C           1.8144    3.3201   -5.2700 C.ar    1  UNL1       -0.0614
     24 C           1.2057    4.2062   -4.3882 C.ar    1  UNL1       -0.0617
     25 C           1.8225    4.5138   -3.1798 C.ar    1  UNL1       -0.0614
     26 C           3.0607    3.9529   -2.8579 C.ar    1  UNL1       -0.0550
     27 O           5.9706    3.1965   -4.4709 O.3     1  UNL1       -0.3698
     28 H           7.4035    6.0095    1.3694 H       1  UNL1        0.0778
     29 H           6.9463    5.2797    2.9485 H       1  UNL1        0.0778
     30 H           8.6705    5.3435    2.4553 H       1  UNL1        0.0778
     31 H           7.0978    2.8703    3.2830 H       1  UNL1        0.0815
     32 H           8.8244    2.9384    2.8354 H       1  UNL1        0.0815
     33 H           8.6461    0.8743    1.8495 H       1  UNL1        0.0321
     34 H           6.9592    0.7861    2.3151 H       1  UNL1        0.0321
     35 H           7.2120    0.5764   -0.1835 H       1  UNL1        0.0342
     36 H           9.3482    1.8746   -0.2719 H       1  UNL1        0.0321
     37 H           8.2250    2.4716   -1.4487 H       1  UNL1        0.0321
     38 H           9.4978    3.9435    0.6722 H       1  UNL1        0.0815
     39 H           8.2642    4.5865   -0.4340 H       1  UNL1        0.0815
     40 H           5.3929    3.7754    1.7597 H       1  UNL1        0.0852
     41 H           5.8342    4.5345    0.2299 H       1  UNL1        0.0852
     42 H           7.2362    1.2299   -4.7410 H       1  UNL1        0.0621
     43 H           7.4239   -1.1279   -5.3722 H       1  UNL1        0.0618
     44 H           5.6374   -2.7350   -4.7663 H       1  UNL1        0.0618
     45 H           3.6769   -1.9696   -3.4583 H       1  UNL1        0.0618
     46 H           3.4476    0.3939   -2.8122 H       1  UNL1        0.0621
     47 H           3.5118    2.0793   -5.6713 H       1  UNL1        0.0621
     48 H           1.3337    3.0789   -6.2157 H       1  UNL1        0.0618
     49 H           0.2524    4.6622   -4.6455 H       1  UNL1        0.0618
     50 H           1.3441    5.2096   -2.4939 H       1  UNL1        0.0618
     51 H           3.5082    4.2500   -1.9137 H       1  UNL1        0.0621
     52 H           5.4060    3.7411   -5.0440 H       1  UNL1        0.2117
@<TRIPOS>UNITY_ATOM_ATTR
2 1
charge 1
@<TRIPOS>BOND
     1     1    28    1
     2     1    29    1
     3     1    30    1
     4     2     1    1
     5     2     7    1
     6     2    10    1
     7     2     3    1
     8     3     4    1
     9     3    31    1
    10     3    32    1
    11     4     5    1
    12     4    33    1
    13     4    34    1
    14     5     6    1
    15     5     8    1
    16     5    35    1
    17     6     7    1
    18     6    36    1
    19     6    37    1
    20     7    38    1
    21     7    39    1
    22     8    10    1
    23    10    40    1
    24    10    41    1
    25    11    12    1
    26    12    13    2
    27    12    14    1
    28    14    15    1
    29    14    21    1
    30    14    27    1
    31    15    20   ar
    32    15    16   ar
    33    16    17   ar
    34    16    42    1
    35    17    18   ar
    36    17    43    1
    37    18    19   ar
    38    18    44    1
    39    19    20   ar
    40    19    45    1
    41    20    46    1
    42    21    26   ar
    43    21    22   ar
    44    22    23   ar
    45    22    47    1
    46    23    24   ar
    47    23    48    1
    48    24    25   ar
    49    24    49    1
    50    25    26   ar
    51    25    50    1
    52    26    51    1
    53    27    52    1
    54     8    11    1
    55     8     9    1
