@<TRIPOS>MOLECULE
ZINC00056651
 47 49 0 0 0
SMALL
GASTEIGER

@<TRIPOS>ATOM
      1 C           1.3579    4.2391   -0.0627 C.3     1  UNL1       -0.0245
      2 C           0.9917    3.0420   -0.9312 C.3     1  UNL1       -0.0345
      3 N           1.2058    3.3378   -2.4128 N.4     1  UNL1        0.2379
      4 C           2.6521    3.7381   -2.7276 C.3     1  UNL1       -0.0345
      5 C           3.6549    2.6539   -2.3749 C.3     1  UNL1       -0.0245
      6 C           0.6275    2.2280   -3.3895 C.3     1  UNL1       -0.0074
      7 H           1.2182    1.3281   -3.1970 H       1  UNL1        0.0864
      8 C           0.8323    2.7309   -4.8275 C.3     1  UNL1       -0.0201
      9 C          -0.8888    1.9336   -3.1269 C.3     1  UNL1        0.0600
     10 N          -1.5269    1.0204   -4.1288 N.pl3   1  UNL1       -0.2929
     11 C          -2.9498    1.2459   -4.1207 C.ar    1  UNL1        0.0480
     12 C          -3.4705    2.3512   -4.8130 C.ar    1  UNL1       -0.0393
     13 C          -4.8513    2.5334   -4.9336 C.ar    1  UNL1       -0.0599
     14 C          -5.7298    1.6081   -4.3756 C.ar    1  UNL1       -0.0606
     15 C          -5.2318    0.5205   -3.6583 C.ar    1  UNL1       -0.0462
     16 C          -3.8496    0.3444   -3.5128 C.ar    1  UNL1        0.0341
     17 S          -3.2644   -1.0086   -2.5077 S.3     1  UNL1       -0.0857
     18 C          -1.7216   -1.3381   -3.3427 C.ar    1  UNL1        0.0341
     19 C          -1.0428   -0.3256   -4.0489 C.ar    1  UNL1        0.0480
     20 C           0.0715   -0.7056   -4.8167 C.ar    1  UNL1       -0.0393
     21 C           0.5317   -2.0269   -4.8293 C.ar    1  UNL1       -0.0599
     22 C          -0.1161   -2.9960   -4.0748 C.ar    1  UNL1       -0.0606
     23 C          -1.2409   -2.6542   -3.3334 C.ar    1  UNL1       -0.0462
     24 H           2.4288    4.4616   -0.0863 H       1  UNL1        0.0281
     25 H           1.1031    4.0346    0.9823 H       1  UNL1        0.0281
     26 H           0.8114    5.1360   -0.3724 H       1  UNL1        0.0281
     27 H           1.5709    2.1511   -0.6729 H       1  UNL1        0.0812
     28 H          -0.0704    2.8369   -0.7888 H       1  UNL1        0.0812
     29 H           2.7095    4.0046   -3.7847 H       1  UNL1        0.0812
     30 H           2.8657    4.6627   -2.1825 H       1  UNL1        0.0812
     31 H           3.3534    1.6662   -2.7311 H       1  UNL1        0.0281
     32 H           4.6247    2.8862   -2.8284 H       1  UNL1        0.0281
     33 H           3.8135    2.5969   -1.2929 H       1  UNL1        0.0281
     34 H           0.2594    2.1618   -5.5631 H       1  UNL1        0.0285
     35 H           0.5300    3.7775   -4.9322 H       1  UNL1        0.0285
     36 H           1.8807    2.6344   -5.1293 H       1  UNL1        0.0285
     37 H          -1.0273    1.5139   -2.1238 H       1  UNL1        0.0524
     38 H          -1.3959    2.9094   -3.1318 H       1  UNL1        0.0524
     39 H          -2.8047    3.0552   -5.3035 H       1  UNL1        0.0636
     40 H          -5.2448    3.3817   -5.4901 H       1  UNL1        0.0618
     41 H          -6.8038    1.7276   -4.5022 H       1  UNL1        0.0618
     42 H          -5.9296   -0.1957   -3.2297 H       1  UNL1        0.0629
     43 H           0.5534    0.0007   -5.4829 H       1  UNL1        0.0636
     44 H           1.3686   -2.3052   -5.4684 H       1  UNL1        0.0618
     45 H           0.2310   -4.0291   -4.0958 H       1  UNL1        0.0618
     46 H          -1.7746   -3.4335   -2.7927 H       1  UNL1        0.0629
     47 H           0.6490    4.1811   -2.6096 H       1  UNL1        0.2036
@<TRIPOS>UNITY_ATOM_ATTR
3 1
charge 1
@<TRIPOS>BOND
     1     1     2    1
     2     1    24    1
     3     1    25    1
     4     1    26    1
     5     2     3    1
     6     2    27    1
     7     2    28    1
     8     3     4    1
     9     3    47    1
    10     4     5    1
    11     4    29    1
    12     4    30    1
    13     5    31    1
    14     5    32    1
    15     5    33    1
    16     6     8    1
    17     6     9    1
    18     8    34    1
    19     8    35    1
    20     8    36    1
    21     9    10    1
    22     9    37    1
    23     9    38    1
    24    10    19    1
    25    10    11    1
    26    11    16   ar
    27    11    12   ar
    28    12    13   ar
    29    12    39    1
    30    13    14   ar
    31    13    40    1
    32    14    15   ar
    33    14    41    1
    34    15    16   ar
    35    15    42    1
    36    16    17    1
    37    17    18    1
    38    18    23   ar
    39    18    19   ar
    40    19    20   ar
    41    20    21   ar
    42    20    43    1
    43    21    22   ar
    44    21    44    1
    45    22    23   ar
    46    22    45    1
    47    23    46    1
    48     6     7    1
    49     6     3    1
