@<TRIPOS>MOLECULE
ZINC00009689
 49 50 0 0 0
SMALL
GASTEIGER

@<TRIPOS>ATOM
      1 C          -3.4829   -1.7942    2.3337 C.3     0  UNK0       -0.0624
      2 C          -3.1144   -0.6868    3.3316 C.3     0  UNK0       -0.0439
      3 C          -2.1576   -1.2567    4.3817 C.3     0  UNK0       -0.0624
      4 C          -2.5856    0.5893    2.6114 C.3     0  UNK0       -0.0387
      5 C          -2.3448    1.7613    3.5790 C.3     0  UNK0       -0.0493
      6 C          -1.8978    3.0340    2.8524 C.3     0  UNK0       -0.0417
      7 C          -0.6625    2.8385    1.9430 C.3     0  UNK0        0.0356
      8 C          -0.8522    1.5998    1.0599 C.3     0  UNK0       -0.0417
      9 C          -1.3097    0.3452    1.7941 C.3     0  UNK0       -0.0493
     10 C          -0.4169    4.1077    1.0848 C.2     0  UNK0        0.2168
     11 O          -1.0871    5.1236    1.2289 O.2     0  UNK0       -0.2755
     12 N           0.5919    4.0176    0.1545 N.am    1  PHE1       -0.3018
     13 CA          0.8602    5.0179   -0.9216 C.3     1  PHE1        0.1286
     14 HA          0.9611    5.9963   -0.4329 H       1  PHE1        0.0619
     15 CB         -0.2793    5.0803   -1.9590 C.3     1  PHE1        0.0014
     16 CG         -0.5289    3.7749   -2.6955 C.ar    1  PHE1       -0.0451
     17 CD2         0.1786    3.4451   -3.8584 C.ar    1  PHE1       -0.0585
     18 CE2         0.0261    2.1894   -4.4517 C.ar    1  PHE1       -0.0615
     19 CZ         -0.8326    1.2487   -3.8854 C.ar    1  PHE1       -0.0617
     20 CE1        -1.5585    1.5743   -2.7430 C.ar    1  PHE1       -0.0615
     21 CD1        -1.4204    2.8380   -2.1680 C.ar    1  PHE1       -0.0585
     22 C           2.1842    4.7641   -1.7180 C.2     1  PHE1        0.3762
     23 O           2.4681    5.6035   -2.6201 O.co2   1  PHE1       -0.2443
     24 OXT         2.8250    3.7280   -1.3513 O.co2   1  PHE1       -0.2443
     25 H          -2.6167   -2.1311    1.7564 H       0  UNK0        0.0232
     26 H          -4.2507   -1.4498    1.6331 H       0  UNK0        0.0232
     27 H          -3.8801   -2.6718    2.8560 H       0  UNK0        0.0232
     28 H          -4.0409   -0.4104    3.8543 H       0  UNK0        0.0298
     29 H          -1.2115   -1.5787    3.9368 H       0  UNK0        0.0232
     30 H          -1.9412   -0.5273    5.1668 H       0  UNK0        0.0232
     31 H          -2.6037   -2.1298    4.8714 H       0  UNK0        0.0232
     32 H          -3.3758    0.9040    1.9130 H       0  UNK0        0.0303
     33 H          -3.2657    1.9727    4.1373 H       0  UNK0        0.0268
     34 H          -1.5793    1.4964    4.3172 H       0  UNK0        0.0268
     35 H          -1.6811    3.8086    3.6001 H       0  UNK0        0.0273
     36 H          -2.7424    3.4104    2.2607 H       0  UNK0        0.0273
     37 H           0.2153    2.6948    2.5833 H       0  UNK0        0.0394
     38 H           0.0741    1.3712    0.5211 H       0  UNK0        0.0273
     39 H          -1.6136    1.8154    0.3100 H       0  UNK0        0.0273
     40 H          -0.4995   -0.0153    2.4360 H       0  UNK0        0.0268
     41 H          -1.4903   -0.4255    1.0371 H       0  UNK0        0.0268
     42 H           1.2026    3.2093    0.0746 H       1  PHE1        0.1495
     43 HB1        -1.2072    5.3732   -1.4518 H       1  PHE1        0.0337
     44 HB2        -0.0977    5.8728   -2.6959 H       1  PHE1        0.0337
     45 HD2         0.8929    4.1524   -4.2797 H       1  PHE1        0.0620
     46 HE2         0.6098    1.9405   -5.3338 H       1  PHE1        0.0618
     47 HZ         -0.9225    0.2606   -4.3248 H       1  PHE1        0.0618
     48 HE1        -2.2131    0.8418   -2.2811 H       1  PHE1        0.0618
     49 HD1        -1.9806    3.0935   -1.2747 H       1  PHE1        0.0620
@<TRIPOS>BOND
     1     1     2    1
     2     1    25    1
     3     1    26    1
     4     1    27    1
     5     2     3    1
     6     2     4    1
     7     2    28    1
     8     3    29    1
     9     3    30    1
    10     3    31    1
    11     4     9    1
    12     4     5    1
    13     4    32    1
    14     5     6    1
    15     5    33    1
    16     5    34    1
    17     6     7    1
    18     6    35    1
    19     6    36    1
    20     7     8    1
    21     8     9    1
    22     8    38    1
    23     8    39    1
    24     9    40    1
    25     9    41    1
    26    10    11    2
    27    10    12   am
    28    12    42    1
    29    13    15    1
    30    13    22    1
    31    15    16    1
    32    15    43    1
    33    15    44    1
    34    16    21   ar
    35    16    17   ar
    36    17    18   ar
    37    17    45    1
    38    18    19   ar
    39    18    46    1
    40    19    20   ar
    41    19    47    1
    42    20    21   ar
    43    20    48    1
    44    21    49    1
    45    22    23   ar
    46    22    24   ar
    47    13    14    1
    48    13    12    1
    49     7    37    1
    50     7    10    1
