@<TRIPOS>MOLECULE
ZINC00004448
 42 45 0 0 0
SMALL
GASTEIGER

@<TRIPOS>ATOM
      1 C           4.1767    2.5576   -2.3606 C.3     1  UNL1        0.0356
      2 C           3.9828    4.0251   -2.2222 C.2     1  UNL1        0.2463
      3 N           4.9330    4.9133   -1.8931 N.2     1  UNL1       -0.2492
      4 C           4.4772    6.2010   -2.0216 C.2     1  UNL1        0.1264
      5 C           3.1736    6.1020   -2.4052 C.2     1  UNL1        0.1227
      6 N           2.8556    4.7465   -2.4125 N.pl3   1  UNL1       -0.1963
      7 C           1.5167    4.1933   -2.6863 C.3     1  UNL1        0.0949
      8 C           0.7041    3.9232   -1.4164 C.3     1  UNL1        0.0588
      9 H           1.2081    3.1575   -0.8135 H       1  UNL1        0.0418
     10 C           0.4524    5.1455   -0.5052 C.3     1  UNL1       -0.0343
     11 C          -0.3837    6.2644   -1.1505 C.3     1  UNL1       -0.0108
     12 C          -1.4556    5.6731   -1.9990 C.ar    1  UNL1        0.0300
     13 C          -1.6012    4.3360   -2.3248 C.ar    1  UNL1        0.0462
     14 C          -2.7334    4.2158   -3.1691 C.ar    1  UNL1        0.0106
     15 C          -3.3545    3.1275   -3.8145 C.ar    1  UNL1       -0.0519
     16 C          -4.4083    3.3605   -4.7010 C.ar    1  UNL1       -0.0611
     17 C          -4.8540    4.6551   -4.9408 C.ar    1  UNL1       -0.0598
     18 C          -4.2758    5.7492   -4.2899 C.ar    1  UNL1       -0.0376
     19 C          -3.2099    5.5124   -3.4053 C.ar    1  UNL1        0.0497
     20 N          -2.4323    6.3797   -2.6596 N.ar    1  UNL1       -0.3462
     21 C          -2.5511    7.8236   -2.6463 C.3     1  UNL1        0.0121
     22 C          -0.6188    3.3469   -1.9062 C.2     1  UNL1        0.1721
     23 O          -0.7469    2.1376   -2.0882 O.2     1  UNL1       -0.2915
     24 H           3.4554    2.0596   -1.7138 H       1  UNL1        0.0350
     25 H           5.2017    2.3285   -2.0643 H       1  UNL1        0.0350
     26 H           4.0156    2.3148   -3.4123 H       1  UNL1        0.0350
     27 H           5.1518    7.0184   -1.8397 H       1  UNL1        0.1116
     28 H           2.4156    6.8236   -2.6534 H       1  UNL1        0.1098
     29 H           1.0053    4.8855   -3.3665 H       1  UNL1        0.0737
     30 H           1.6482    3.2636   -3.2552 H       1  UNL1        0.0737
     31 H           1.3990    5.5583   -0.1376 H       1  UNL1        0.0277
     32 H          -0.0869    4.7926    0.3856 H       1  UNL1        0.0277
     33 H           0.2566    6.9012   -1.7687 H       1  UNL1        0.0328
     34 H          -0.8131    6.8956   -0.3639 H       1  UNL1        0.0328
     35 H          -3.0075    2.1119   -3.6394 H       1  UNL1        0.0624
     36 H          -4.8746    2.5222   -5.2132 H       1  UNL1        0.0618
     37 H          -5.6649    4.8202   -5.6474 H       1  UNL1        0.0618
     38 H          -4.6443    6.7500   -4.4913 H       1  UNL1        0.0638
     39 H          -2.7576    8.1447   -1.6226 H       1  UNL1        0.0456
     40 H          -1.6045    8.2445   -2.9973 H       1  UNL1        0.0456
     41 H          -3.3557    8.1514   -3.3056 H       1  UNL1        0.0456
     42 H           5.8815    4.6524   -1.6332 H       1  UNL1        0.3102
@<TRIPOS>BOND
     1     1     2    1
     2     1    24    1
     3     1    25    1
     4     1    26    1
     5     2     6    1
     6     2     3    2
     7     3     4    1
     8     3    42    1
     9     4     5    2
    10     4    27    1
    11     5     6    1
    12     5    28    1
    13     6     7    1
    14     7    29    1
    15     7    30    1
    16     8    22    1
    17     8    10    1
    18    10    11    1
    19    10    31    1
    20    10    32    1
    21    11    12    1
    22    11    33    1
    23    11    34    1
    24    12    20   ar
    25    12    13   ar
    26    13    14   ar
    27    13    22    1
    28    14    19   ar
    29    14    15   ar
    30    15    16   ar
    31    15    35    1
    32    16    17   ar
    33    16    36    1
    34    17    18   ar
    35    17    37    1
    36    18    19   ar
    37    18    38    1
    38    19    20   ar
    39    20    21    1
    40    21    39    1
    41    21    40    1
    42    21    41    1
    43    22    23    2
    44     8     9    1
    45     8     7    1
