@<TRIPOS>MOLECULE
ZINC01996117
 63 67 0 0 0
SMALL
GASTEIGER

@<TRIPOS>ATOM
      1 C          -4.5985   -3.6153   -0.2464 C.ar    1  UNL1       -0.0617
      2 C          -3.9334   -3.1546    0.8838 C.ar    1  UNL1       -0.0615
      3 C          -3.3705   -1.8724    0.8990 C.ar    1  UNL1       -0.0572
      4 C          -3.5148   -0.9903   -0.1934 C.ar    1  UNL1       -0.0277
      5 C          -4.2681   -1.4634   -1.2861 C.ar    1  UNL1       -0.0572
      6 C          -4.7591   -2.7713   -1.3350 C.ar    1  UNL1       -0.0615
      7 C          -2.8530    0.4269   -0.1642 C.3     1  UNL1        0.1042
      8 C          -1.3445    0.3452    0.2341 C.ar    1  UNL1       -0.0277
      9 C          -0.7923    1.1149    1.2760 C.ar    1  UNL1       -0.0572
     10 C           0.5884    1.1393    1.5115 C.ar    1  UNL1       -0.0615
     11 C           1.4519    0.4018    0.7101 C.ar    1  UNL1       -0.0617
     12 C           0.9283   -0.4239   -0.2759 C.ar    1  UNL1       -0.0615
     13 C          -0.4551   -0.4824   -0.4807 C.ar    1  UNL1       -0.0572
     14 C          -2.9644    1.1798   -1.5793 C.3     1  UNL1        0.0260
     15 H          -4.0487    1.3113   -1.7320 H       1  UNL1        0.0371
     16 C          -2.4343    0.5041   -2.8512 C.3     1  UNL1       -0.0033
     17 C          -1.1365    1.1831   -3.2020 C.3     1  UNL1       -0.0314
     18 N          -1.3091    2.5958   -2.7385 N.4     1  UNL1        0.2357
     19 C          -2.3653    2.5982   -1.6477 C.3     1  UNL1       -0.0272
     20 C          -1.5529    3.5322   -3.8910 C.3     1  UNL1       -0.0278
     21 C          -1.6213    5.0038   -3.4640 C.3     1  UNL1        0.0127
     22 C          -1.7542    5.8380   -4.7155 C.ar    1  UNL1       -0.0419
     23 C          -3.0232    5.9861   -5.3231 C.ar    1  UNL1       -0.0549
     24 C          -3.1459    6.5427   -6.5986 C.ar    1  UNL1       -0.0194
     25 C          -1.9907    6.9331   -7.2369 C.ar    1  UNL1        0.1238
     26 C          -0.7458    6.8676   -6.6185 C.ar    1  UNL1       -0.0023
     27 C          -0.6064    6.3318   -5.3525 C.ar    1  UNL1       -0.0516
     28 C           0.2604    7.4383   -7.5421 C.3     1  UNL1        0.0101
     29 C          -0.5155    7.2277   -8.8397 C.3     1  UNL1        0.0937
     30 O          -1.9292    7.3776   -8.5261 O.3     1  UNL1       -0.4914
     31 C          -3.6580    1.3805    0.8201 C.2     1  UNL1        0.2258
     32 O          -3.7074    2.6035    0.6530 O.2     1  UNL1       -0.2747
     33 N          -4.2250    0.8934    1.9551 N.am    1  UNL1       -0.3283
     34 H          -4.9975   -4.6266   -0.2781 H       1  UNL1        0.0618
     35 H          -3.8403   -3.8039    1.7520 H       1  UNL1        0.0618
     36 H          -2.8247   -1.5707    1.7933 H       1  UNL1        0.0621
     37 H          -4.4875   -0.8501   -2.1536 H       1  UNL1        0.0621
     38 H          -5.2726   -3.1269   -2.2263 H       1  UNL1        0.0618
     39 H          -1.4126    1.7182    1.9369 H       1  UNL1        0.0621
     40 H           0.9907    1.7382    2.3271 H       1  UNL1        0.0618
     41 H           2.5263    0.4448    0.8778 H       1  UNL1        0.0618
     42 H           1.5985   -1.0306   -0.8822 H       1  UNL1        0.0618
     43 H          -0.8213   -1.1796   -1.2316 H       1  UNL1        0.0621
     44 H          -3.1540    0.6833   -3.6630 H       1  UNL1        0.0322
     45 H          -2.3045   -0.5773   -2.7911 H       1  UNL1        0.0322
     46 H          -0.2700    0.7782   -2.6815 H       1  UNL1        0.0814
     47 H          -0.9300    1.1538   -4.2794 H       1  UNL1        0.0814
     48 H          -3.1441    3.3135   -1.9324 H       1  UNL1        0.0818
     49 H          -1.8584    2.9475   -0.7477 H       1  UNL1        0.0818
     50 H          -0.7175    3.3873   -4.5812 H       1  UNL1        0.0818
     51 H          -2.4750    3.2057   -4.3917 H       1  UNL1        0.0818
     52 H          -2.4768    5.2002   -2.8056 H       1  UNL1        0.0365
     53 H          -0.7199    5.2896   -2.9077 H       1  UNL1        0.0365
     54 H          -3.9230    5.6310   -4.8283 H       1  UNL1        0.0621
     55 H          -4.1070    6.6236   -7.0927 H       1  UNL1        0.0654
     56 H           0.3791    6.2572   -4.9008 H       1  UNL1        0.0624
     57 H           0.3944    8.5050   -7.3273 H       1  UNL1        0.0347
     58 H           1.2225    6.9224   -7.5398 H       1  UNL1        0.0347
     59 H          -0.2270    7.9363   -9.6205 H       1  UNL1        0.0700
     60 H          -0.3630    6.2114   -9.2267 H       1  UNL1        0.0700
     61 H          -4.5667   -0.0557    2.0189 H       1  UNL1        0.1450
     62 H          -4.7342    1.5674    2.5191 H       1  UNL1        0.1450
     63 H          -0.4210    2.8781   -2.2967 H       1  UNL1        0.2033
@<TRIPOS>UNITY_ATOM_ATTR
18 1
charge 1
@<TRIPOS>BOND
     1     1     6   ar
     2     1     2   ar
     3     1    34    1
     4     2     3   ar
     5     2    35    1
     6     3     4   ar
     7     3    36    1
     8     4     5   ar
     9     4     7    1
    10     5     6   ar
    11     5    37    1
    12     6    38    1
    13     7     8    1
    14     7    14    1
    15     7    31    1
    16     8    13   ar
    17     8     9   ar
    18     9    10   ar
    19     9    39    1
    20    10    11   ar
    21    10    40    1
    22    11    12   ar
    23    11    41    1
    24    12    13   ar
    25    12    42    1
    26    13    43    1
    27    14    15    1
    28    14    19    1
    29    14    16    1
    30    16    17    1
    31    16    44    1
    32    16    45    1
    33    17    18    1
    34    17    46    1
    35    17    47    1
    36    18    19    1
    37    19    48    1
    38    19    49    1
    39    20    21    1
    40    20    50    1
    41    20    51    1
    42    21    22    1
    43    21    52    1
    44    21    53    1
    45    22    27   ar
    46    22    23   ar
    47    23    24   ar
    48    23    54    1
    49    24    25   ar
    50    24    55    1
    51    25    30    1
    52    25    26   ar
    53    26    27   ar
    54    26    28    1
    55    27    56    1
    56    28    29    1
    57    28    57    1
    58    28    58    1
    59    29    30    1
    60    29    59    1
    61    29    60    1
    62    31    32    2
    63    31    33   am
    64    33    61    1
    65    33    62    1
    66    18    63    1
    67    18    20    1
