@<TRIPOS>MOLECULE
ZINC00896449
 62 64 0 0 0
SMALL
GASTEIGER

@<TRIPOS>ATOM
      1 C          -0.9651    0.9798    6.2878 C.3     1  UNL1       -0.0493
      2 C          -0.2473   -0.3573    6.1880 C.3     1  UNL1        0.0118
      3 N           0.6513   -0.4094    5.0213 N.am    1  UNL1       -0.3015
      4 C           0.0321   -0.9191    3.7872 C.3     1  UNL1        0.0118
      5 C          -0.0378   -2.4432    3.7659 C.3     1  UNL1       -0.0493
      6 C           1.9641    0.0105    5.1964 C.2     1  UNL1        0.2273
      7 O           2.4001    0.3170    6.3143 O.2     1  UNL1       -0.2750
      8 C           2.9470    0.0645    4.0281 C.3     1  UNL1        0.1125
      9 H           2.5075   -0.4068    3.1511 H       1  UNL1        0.0484
     10 C           4.1850   -0.7409    4.3888 C.3     1  UNL1       -0.0165
     11 C           6.1732   -0.9139    5.9005 C.3     1  UNL1       -0.0272
     12 C           6.5454   -0.5881    7.3399 C.3     1  UNL1        0.0133
     13 C           6.3661    0.8697    7.6998 C.ar    1  UNL1       -0.0302
     14 C           6.6701    1.2513    9.0216 C.ar    1  UNL1       -0.0125
     15 C           6.4359    2.5518    9.4807 C.ar    1  UNL1        0.1618
     16 C           5.9482    3.5000    8.5703 C.ar    1  UNL1        0.1620
     17 C           5.6608    3.1224    7.2434 C.ar    1  UNL1       -0.0075
     18 C           5.8129    1.8030    6.7965 C.ar    1  UNL1        0.0073
     19 C           5.3392    1.3484    5.4120 C.3     1  UNL1        0.0088
     20 H           6.1881    1.3949    4.7160 H       1  UNL1        0.0905
     21 C           4.1843    2.1763    4.8211 C.3     1  UNL1        0.0328
     22 C           3.4120    1.4877    3.6888 C.3     1  UNL1        0.1245
     23 H           4.0977    1.4401    2.8301 H       1  UNL1        0.0745
     24 O           2.2978    2.3305    3.3270 O.3     1  UNL1       -0.4603
     25 C           1.7640    2.1105    2.0950 C.2     1  UNL1        0.3042
     26 O           2.1510    1.2445    1.3224 O.2     1  UNL1       -0.2512
     27 C           0.6175    3.0340    1.8410 C.3     1  UNL1        0.0332
     28 O           5.6167    4.8096    8.8094 O.3     1  UNL1       -0.4914
     29 C           6.1853    5.4545    9.9411 C.3     1  UNL1        0.0790
     30 O           6.6430    2.9338   10.7765 O.3     1  UNL1       -0.4914
     31 C           6.9115    1.9352   11.7546 C.3     1  UNL1        0.0790
     32 H          -0.2571    1.8130    6.2933 H       1  UNL1        0.0245
     33 H          -1.5599    1.0238    7.2061 H       1  UNL1        0.0245
     34 H          -1.6455    1.1242    5.4407 H       1  UNL1        0.0245
     35 H           0.3259   -0.5317    7.1047 H       1  UNL1        0.0462
     36 H          -0.9829   -1.1662    6.1186 H       1  UNL1        0.0462
     37 H          -0.9819   -0.5071    3.7271 H       1  UNL1        0.0462
     38 H           0.5586   -0.5651    2.9013 H       1  UNL1        0.0462
     39 H          -0.3774   -2.8560    4.7212 H       1  UNL1        0.0245
     40 H          -0.7365   -2.7791    2.9925 H       1  UNL1        0.0245
     41 H           0.9433   -2.8769    3.5492 H       1  UNL1        0.0245
     42 H           3.9016   -1.7461    4.7226 H       1  UNL1        0.0823
     43 H           4.8716   -0.8260    3.5391 H       1  UNL1        0.0823
     44 H           5.9511   -1.9803    5.7873 H       1  UNL1        0.0818
     45 H           6.9727   -0.6495    5.1984 H       1  UNL1        0.0818
     46 H           5.8998   -1.1787    8.0022 H       1  UNL1        0.0365
     47 H           7.5810   -0.8953    7.5248 H       1  UNL1        0.0365
     48 H           7.0583    0.4907    9.6947 H       1  UNL1        0.0658
     49 H           5.2694    3.8969    6.5848 H       1  UNL1        0.0660
     50 H           4.5972    3.1165    4.4242 H       1  UNL1        0.0360
     51 H           3.4825    2.5005    5.5986 H       1  UNL1        0.0360
     52 H          -0.1616    2.8727    2.5976 H       1  UNL1        0.0342
     53 H           0.9679    4.0730    1.8653 H       1  UNL1        0.0342
     54 H           0.1980    2.8312    0.8541 H       1  UNL1        0.0342
     55 H           5.7301    5.1067   10.8729 H       1  UNL1        0.0660
     56 H           7.2749    5.3510    9.9516 H       1  UNL1        0.0660
     57 H           5.9550    6.5214    9.8583 H       1  UNL1        0.0660
     58 H           6.0821    1.2245   11.8355 H       1  UNL1        0.0660
     59 H           7.8555    1.4216   11.5467 H       1  UNL1        0.0660
     60 H           7.0183    2.4358   12.7220 H       1  UNL1        0.0660
     61 N           4.9475   -0.1185    5.5152 N.4     1  UNL1        0.2416
     62 H           4.2822   -0.1277    6.3192 H       1  UNL1        0.2040
@<TRIPOS>UNITY_ATOM_ATTR
61 1
charge 1
@<TRIPOS>BOND
     1     1     2    1
     2     1    32    1
     3     1    33    1
     4     1    34    1
     5     2     3    1
     6     2    35    1
     7     2    36    1
     8     3     4    1
     9     3     6   am
    10     4     5    1
    11     4    37    1
    12     4    38    1
    13     5    39    1
    14     5    40    1
    15     5    41    1
    16     6     7    2
    17     8    22    1
    18     8    10    1
    19    10    42    1
    20    10    43    1
    21    10    61    1
    22    11    12    1
    23    11    44    1
    24    11    45    1
    25    11    61    1
    26    12    13    1
    27    12    46    1
    28    12    47    1
    29    13    18   ar
    30    13    14   ar
    31    14    15   ar
    32    14    48    1
    33    15    16   ar
    34    15    30    1
    35    16    17   ar
    36    16    28    1
    37    17    18   ar
    38    17    49    1
    39    18    19    1
    40    19    20    1
    41    19    21    1
    42    19    61    1
    43    21    22    1
    44    21    50    1
    45    21    51    1
    46    22    23    1
    47    22    24    1
    48    24    25    1
    49    25    26    2
    50    25    27    1
    51    27    52    1
    52    27    53    1
    53    27    54    1
    54    28    29    1
    55    29    55    1
    56    29    56    1
    57    29    57    1
    58    30    31    1
    59    31    58    1
    60    31    59    1
    61    31    60    1
    62    61    62    1
    63     8     9    1
    64     8     6    1
