@<TRIPOS>MOLECULE
ZINC03079337
 21 20 0 0 0
SMALL
GASTEIGER

@<TRIPOS>ATOM
      1 C           0.9737    0.3036   -0.0822 C.3     1  UNL1       -0.0417
      2 N           0.4578    0.6226    1.3217 N.4     1  UNL1        0.2385
      3 C           0.9881    2.0001    1.7167 C.3     1  UNL1       -0.0417
      4 C          -1.0600    0.6681    1.3030 C.3     1  UNL1       -0.0417
      5 C           0.9826   -0.4044    2.3630 C.3     1  UNL1       -0.0071
      6 C           0.5540   -1.8643    2.1143 C.3     1  UNL1        0.0841
      7 O           1.0412   -2.3307    0.8638 O.3     1  UNL1       -0.3898
      8 H           0.8063    1.1810   -0.7159 H       1  UNL1        0.0778
      9 H           0.4077   -0.5345   -0.4948 H       1  UNL1        0.0778
     10 H           2.0432    0.0839   -0.0206 H       1  UNL1        0.0778
     11 H           0.6191    2.7364    0.9960 H       1  UNL1        0.0778
     12 H           0.6228    2.2370    2.7205 H       1  UNL1        0.0778
     13 H           2.0816    1.9674    1.7020 H       1  UNL1        0.0778
     14 H          -1.4421   -0.2960    0.9599 H       1  UNL1        0.0778
     15 H          -1.4129    0.8843    2.3153 H       1  UNL1        0.0778
     16 H          -1.3738    1.4561    0.6114 H       1  UNL1        0.0778
     17 H           2.0759   -0.3268    2.3397 H       1  UNL1        0.0837
     18 H           0.6199   -0.0718    3.3422 H       1  UNL1        0.0837
     19 H           0.9713   -2.5004    2.9008 H       1  UNL1        0.0610
     20 H          -0.5341   -1.9690    2.1330 H       1  UNL1        0.0610
     21 H           0.7210   -3.2470    0.7451 H       1  UNL1        0.2096
@<TRIPOS>UNITY_ATOM_ATTR
2 1
charge 1
@<TRIPOS>BOND
     1     1     2    1
     2     1     8    1
     3     1     9    1
     4     1    10    1
     5     2     3    1
     6     2     4    1
     7     2     5    1
     8     3    11    1
     9     3    12    1
    10     3    13    1
    11     4    14    1
    12     4    15    1
    13     4    16    1
    14     5     6    1
    15     5    17    1
    16     5    18    1
    17     6     7    1
    18     6    19    1
    19     6    20    1
    20     7    21    1
