@<TRIPOS>MOLECULE
ZINC03861806
 52 56 0 0 0
SMALL
GASTEIGER

@<TRIPOS>ATOM
      1 C           2.8666   -4.5419   -2.4095 C.3     1  UNL1        0.0790
      2 O           3.3828   -3.4176   -1.7058 O.3     1  UNL1       -0.4913
      3 C           2.5580   -2.8174   -0.7794 C.ar    1  UNL1        0.1654
      4 C           1.2903   -3.3104   -0.4629 C.ar    1  UNL1       -0.0123
      5 C           0.4022   -2.5539    0.3050 C.ar    1  UNL1       -0.0320
      6 C           0.8775   -1.3741    0.9137 C.ar    1  UNL1       -0.0123
      7 C           2.1570   -0.8666    0.6322 C.ar    1  UNL1        0.1654
      8 C           3.0075   -1.5933   -0.2276 C.ar    1  UNL1        0.2035
      9 O           4.2793   -1.2427   -0.6217 O.3     1  UNL1       -0.4885
     10 C           4.7402    0.0816   -0.4135 C.3     1  UNL1        0.0791
     11 O           2.5874    0.3516    1.0885 O.3     1  UNL1       -0.4913
     12 C           1.7432    1.1474    1.9068 C.3     1  UNL1        0.0790
     13 C          -1.0960   -2.8259    0.0974 C.3     1  UNL1        0.0233
     14 H          -1.1862   -3.5756   -0.7035 H       1  UNL1        0.0405
     15 C          -1.7151   -1.5264   -0.4579 C.ar    1  UNL1       -0.0299
     16 C          -1.2968   -1.1070   -1.7446 C.ar    1  UNL1       -0.0120
     17 C          -1.4899    0.2066   -2.0895 C.ar    1  UNL1        0.1665
     18 C          -2.0864    1.0905   -1.2191 C.ar    1  UNL1        0.1666
     19 C          -2.6039    0.6940    0.0029 C.ar    1  UNL1       -0.0102
     20 C          -2.4553   -0.6487    0.3894 C.ar    1  UNL1       -0.0113
     21 C          -3.1240   -1.1954    1.6504 C.3     1  UNL1        0.0872
     22 H          -4.1087   -1.5744    1.3538 H       1  UNL1        0.0648
     23 C          -2.2922   -2.3042    2.2606 C.3     1  UNL1        0.0372
     24 H          -1.3840   -1.8883    2.7198 H       1  UNL1        0.0370
     25 C          -1.9429   -3.3532    1.2357 C.3     1  UNL1        0.0757
     26 H          -2.8697   -3.7544    0.7936 H       1  UNL1        0.0427
     27 C          -1.4328   -4.4392    2.1298 C.2     1  UNL1        0.3116
     28 O          -0.6496   -5.3233    1.8356 O.2     1  UNL1       -0.2505
     29 O          -2.0884   -4.3335    3.3385 O.3     1  UNL1       -0.4640
     30 C          -2.9519   -3.1788    3.3000 C.3     1  UNL1        0.0987
     31 O          -3.3302   -0.2082    2.6495 O.3     1  UNL1       -0.3868
     32 O          -2.0936    2.3584   -1.7083 O.3     1  UNL1       -0.4526
     33 C          -1.5354    2.1418   -3.0306 C.3     1  UNL1        0.2332
     34 O          -1.0734    0.7884   -3.2448 O.3     1  UNL1       -0.4526
     35 H           3.5200   -4.7413   -3.2634 H       1  UNL1        0.0660
     36 H           2.8733   -5.4206   -1.7576 H       1  UNL1        0.0660
     37 H           1.8648   -4.3622   -2.8181 H       1  UNL1        0.0660
     38 H           0.9256   -4.2342   -0.9003 H       1  UNL1        0.0658
     39 H           0.1897   -0.7871    1.5090 H       1  UNL1        0.0658
     40 H           5.7221    0.1682   -0.8898 H       1  UNL1        0.0660
     41 H           4.8907    0.2917    0.6496 H       1  UNL1        0.0660
     42 H           4.0822    0.8154   -0.8913 H       1  UNL1        0.0660
     43 H           1.7097    0.7380    2.9202 H       1  UNL1        0.0660
     44 H           0.7380    1.2703    1.4912 H       1  UNL1        0.0660
     45 H           2.1847    2.1483    1.9616 H       1  UNL1        0.0660
     46 H          -0.7397   -1.7639   -2.4035 H       1  UNL1        0.0658
     47 H          -3.0989    1.4228    0.6371 H       1  UNL1        0.0659
     48 H          -2.9920   -2.7124    4.2874 H       1  UNL1        0.0701
     49 H          -3.9593   -3.5083    3.0164 H       1  UNL1        0.0701
     50 H          -2.5578    0.3785    2.6631 H       1  UNL1        0.2102
     51 H          -0.6922    2.8228   -3.1768 H       1  UNL1        0.1166
     52 H          -2.3141    2.3752   -3.7640 H       1  UNL1        0.1166
@<TRIPOS>BOND
     1     1     2    1
     2     1    35    1
     3     1    36    1
     4     1    37    1
     5     2     3    1
     6     3     8   ar
     7     3     4   ar
     8     4     5   ar
     9     4    38    1
    10     5     6   ar
    11     5    13    1
    12     6     7   ar
    13     6    39    1
    14     7     8   ar
    15     7    11    1
    16     8     9    1
    17     9    10    1
    18    10    40    1
    19    10    41    1
    20    10    42    1
    21    11    12    1
    22    12    43    1
    23    12    44    1
    24    12    45    1
    25    13    14    1
    26    13    25    1
    27    13    15    1
    28    15    20   ar
    29    15    16   ar
    30    16    17   ar
    31    16    46    1
    32    17    34    1
    33    17    18   ar
    34    18    19   ar
    35    18    32    1
    36    19    20   ar
    37    19    47    1
    38    20    21    1
    39    21    22    1
    40    21    23    1
    41    21    31    1
    42    23    24    1
    43    23    30    1
    44    23    25    1
    45    25    26    1
    46    25    27    1
    47    27    28    2
    48    27    29    1
    49    29    30    1
    50    30    48    1
    51    30    49    1
    52    31    50    1
    53    32    33    1
    54    33    34    1
    55    33    51    1
    56    33    52    1
