@<TRIPOS>MOLECULE
ZINC01530618
 55 56 0 0 0
SMALL
GASTEIGER

@<TRIPOS>ATOM
      1 C          -5.4423    5.4590   -1.1823 C.3     1  UNL1       -0.0218
      2 C          -5.7247    4.1742   -1.9652 C.3     1  UNL1       -0.0264
      3 C          -7.2333    4.0960   -2.2281 C.3     1  UNL1       -0.0218
      4 N          -4.9065    4.1738   -3.2771 N.4     1  UNL1        0.2388
      5 C          -3.3639    4.2967   -3.0577 C.3     1  UNL1       -0.0298
      6 C          -2.7715    3.1533   -2.2188 C.3     1  UNL1        0.0110
      7 C          -1.1988    3.1118   -2.0148 C.3     1  UNL1        0.1181
      8 C          -0.8935    1.8308   -1.1531 C.ar    1  UNL1       -0.0265
      9 C          -1.2122    0.5441   -1.6288 C.ar    1  UNL1       -0.0572
     10 C          -0.8866   -0.6054   -0.8964 C.ar    1  UNL1       -0.0615
     11 C          -0.2426   -0.4959    0.3330 C.ar    1  UNL1       -0.0617
     12 C           0.0540    0.7579    0.8410 C.ar    1  UNL1       -0.0615
     13 C          -0.2776    1.9067    0.1168 C.ar    1  UNL1       -0.0572
     14 C          -0.6970    4.3941   -1.3015 C.ar    1  UNL1        0.0607
     15 C           0.6649    4.7329   -1.3087 C.ar    1  UNL1       -0.0390
     16 C           1.1390    5.6991   -0.4252 C.ar    1  UNL1       -0.0586
     17 C           0.2563    6.3205    0.4423 C.ar    1  UNL1       -0.0436
     18 C          -1.0789    5.9676    0.3727 C.ar    1  UNL1        0.0279
     19 N          -1.5790    5.0370   -0.4782 N.ar    1  UNL1       -0.2585
     20 C          -0.5363    3.0268   -3.4273 C.2     1  UNL1        0.2271
     21 O          -0.9292    3.6795   -4.3947 O.2     1  UNL1       -0.2746
     22 N           0.5853    2.2641   -3.6015 N.am    1  UNL1       -0.3283
     23 C          -5.3841    3.2042   -4.3802 C.3     1  UNL1       -0.0264
     24 C          -4.6050    3.3766   -5.6859 C.3     1  UNL1       -0.0218
     25 C          -5.3946    1.7417   -3.9536 C.3     1  UNL1       -0.0218
     26 H          -5.6514    6.3490   -1.7852 H       1  UNL1        0.0284
     27 H          -4.4066    5.5113   -0.8352 H       1  UNL1        0.0284
     28 H          -6.0688    5.5095   -0.2846 H       1  UNL1        0.0284
     29 H          -5.4148    3.2965   -1.3902 H       1  UNL1        0.0846
     30 H          -7.5543    4.7963   -3.0060 H       1  UNL1        0.0284
     31 H          -7.5412    3.0873   -2.5179 H       1  UNL1        0.0284
     32 H          -7.7954    4.3340   -1.3177 H       1  UNL1        0.0284
     33 H          -2.9534    4.3792   -4.0583 H       1  UNL1        0.0815
     34 H          -3.2003    5.2716   -2.5916 H       1  UNL1        0.0815
     35 H          -3.2440    3.1555   -1.2289 H       1  UNL1        0.0334
     36 H          -3.0649    2.2145   -2.6852 H       1  UNL1        0.0334
     37 H          -1.6988    0.4032   -2.5926 H       1  UNL1        0.0621
     38 H          -1.1295   -1.5916   -1.2877 H       1  UNL1        0.0618
     39 H           0.0245   -1.3896    0.8938 H       1  UNL1        0.0618
     40 H           0.5528    0.8535    1.8042 H       1  UNL1        0.0618
     41 H          -0.0313    2.8554    0.5838 H       1  UNL1        0.0621
     42 H           1.3825    4.2004   -1.9262 H       1  UNL1        0.0636
     43 H           2.2006    5.9314   -0.3871 H       1  UNL1        0.0619
     44 H           0.6054    7.0453    1.1720 H       1  UNL1        0.0633
     45 H          -1.8032    6.4176    1.0460 H       1  UNL1        0.0829
     46 H           0.8105    1.4801   -2.9978 H       1  UNL1        0.1450
     47 H           0.9754    2.2398   -4.5349 H       1  UNL1        0.1450
     48 H          -6.4133    3.5098   -4.5974 H       1  UNL1        0.0846
     49 H          -3.5899    2.9733   -5.6156 H       1  UNL1        0.0284
     50 H          -5.1045    2.8239   -6.4913 H       1  UNL1        0.0284
     51 H          -4.5521    4.4249   -5.9943 H       1  UNL1        0.0284
     52 H          -5.9385    1.5765   -3.0209 H       1  UNL1        0.0284
     53 H          -5.8905    1.1398   -4.7251 H       1  UNL1        0.0284
     54 H          -4.3916    1.3262   -3.8529 H       1  UNL1        0.0284
     55 H          -5.1277    5.0916   -3.6937 H       1  UNL1        0.2038
@<TRIPOS>UNITY_ATOM_ATTR
4 1
charge 1
@<TRIPOS>BOND
     1     1     2    1
     2     1    26    1
     3     1    27    1
     4     1    28    1
     5     2     3    1
     6     2     4    1
     7     2    29    1
     8     3    30    1
     9     3    31    1
    10     3    32    1
    11     4     5    1
    12     4    23    1
    13     4    55    1
    14     5     6    1
    15     5    33    1
    16     5    34    1
    17     6    35    1
    18     6    36    1
    19     7    14    1
    20     7    20    1
    21     8    13   ar
    22     8     9   ar
    23     9    10   ar
    24     9    37    1
    25    10    11   ar
    26    10    38    1
    27    11    12   ar
    28    11    39    1
    29    12    13   ar
    30    12    40    1
    31    13    41    1
    32    14    19   ar
    33    14    15   ar
    34    15    16   ar
    35    15    42    1
    36    16    17   ar
    37    16    43    1
    38    17    18   ar
    39    17    44    1
    40    18    19   ar
    41    18    45    1
    42    20    21    2
    43    20    22   am
    44    22    46    1
    45    22    47    1
    46    23    24    1
    47    23    25    1
    48    23    48    1
    49    24    49    1
    50    24    50    1
    51    24    51    1
    52    25    52    1
    53    25    53    1
    54    25    54    1
    55     7     8    1
    56     7     6    1
