@<TRIPOS>MOLECULE
ZINC01999487
 35 38 0 0 0
SMALL
GASTEIGER

@<TRIPOS>ATOM
      1 C           1.5658   -6.5149    3.4938 C.ar    1  UNL1       -0.0615
      2 C           0.8841   -5.3392    3.7638 C.ar    1  UNL1       -0.0614
      3 C           0.3898   -4.5800    2.7056 C.ar    1  UNL1       -0.0565
      4 C           0.6045   -4.9497    1.3553 C.ar    1  UNL1       -0.0215
      5 C           1.3813   -6.0819    1.0923 C.ar    1  UNL1       -0.0380
      6 C           1.8110   -6.8834    2.1717 C.ar    1  UNL1       -0.0579
      7 C           1.8943   -6.4166   -0.2796 C.3     1  UNL1       -0.0003
      8 C           0.8266   -6.4400   -1.3366 C.ar    1  UNL1       -0.0216
      9 C           0.5128   -7.6695   -1.9384 C.ar    1  UNL1       -0.0565
     10 C          -0.3862   -7.7342   -2.9962 C.ar    1  UNL1       -0.0614
     11 C          -0.9541   -6.5694   -3.4842 C.ar    1  UNL1       -0.0600
     12 C          -0.6462   -5.3401   -2.8834 C.ar    1  UNL1       -0.0400
     13 C           0.2163   -5.2511   -1.7646 C.ar    1  UNL1        0.0401
     14 N           0.4631   -3.9766   -1.1170 N.pl3   1  UNL1       -0.2683
     15 C           0.0603   -4.0030    0.3277 C.3     1  UNL1        0.0732
     16 H           0.4739   -3.0411    0.6873 H       1  UNL1        0.0572
     17 C          -1.4775   -3.7725    0.2251 C.3     1  UNL1        0.0406
     18 N          -1.6020   -2.9082   -0.9752 N.2     1  UNL1       -0.3615
     19 C          -0.3315   -2.8601   -1.5354 C.2     1  UNL1        0.1452
     20 N           0.2344   -1.6714   -1.8254 N.3     1  UNL1       -0.2757
     21 H           1.9358   -7.1317    4.3115 H       1  UNL1        0.0618
     22 H           0.7496   -5.0073    4.7901 H       1  UNL1        0.0618
     23 H          -0.1179   -3.6457    2.9562 H       1  UNL1        0.0621
     24 H           2.3785   -7.7951    1.9890 H       1  UNL1        0.0620
     25 H           2.4100   -7.3775   -0.2585 H       1  UNL1        0.0362
     26 H           2.6675   -5.6802   -0.5472 H       1  UNL1        0.0362
     27 H           0.9832   -8.5892   -1.5977 H       1  UNL1        0.0621
     28 H          -0.6192   -8.6961   -3.4585 H       1  UNL1        0.0618
     29 H          -1.6279   -6.6140   -4.3381 H       1  UNL1        0.0618
     30 H          -1.1037   -4.4665   -3.3380 H       1  UNL1        0.0636
     31 H          -2.0436   -4.6948    0.0654 H       1  UNL1        0.0508
     32 H          -1.8690   -3.2288    1.0892 H       1  UNL1        0.0508
     33 H           1.2496   -1.6114   -1.8146 H       1  UNL1        0.1265
     34 H          -0.2953   -0.8077   -1.8002 H       1  UNL1        0.1265
     35 H          -2.4359   -2.7673   -1.5359 H       1  UNL1        0.1618
@<TRIPOS>BOND
     1     1     6   ar
     2     1     2   ar
     3     2     3   ar
     4     3     4   ar
     5     4    15    1
     6     4     5   ar
     7     5     6   ar
     8     5     7    1
     9     7     8    1
    10     8    13   ar
    11     8     9   ar
    12     9    10   ar
    13    10    11   ar
    14    11    12   ar
    15    12    13   ar
    16    13    14    1
    17    14    19    1
    18    14    15    1
    19    15    17    1
    20    17    18    1
    21    18    19    2
    22    20    33    1
    23    20    34    1
    24     1    21    1
    25     2    22    1
    26     3    23    1
    27     6    24    1
    28     7    25    1
    29     7    26    1
    30     9    27    1
    31    10    28    1
    32    11    29    1
    33    12    30    1
    34    15    16    1
    35    17    31    1
    36    17    32    1
    37    18    35    1
    38    19    20    1
