@<TRIPOS>MOLECULE
ZINC00968257
 45 47 0 0 0
SMALL
GASTEIGER

@<TRIPOS>ATOM
      1 C          -1.1526   -1.2947    2.6705 C.3     1  UNL1       -0.0433
      2 N          -2.3212   -1.9622    2.0057 N.4     1  UNL1        0.2311
      3 C          -3.5053   -2.0443    2.9282 C.3     1  UNL1       -0.0433
      4 C          -2.7139   -1.3407    0.6780 C.3     1  UNL1       -0.0289
      5 C          -1.5937   -1.3936   -0.3665 C.3     1  UNL1        0.0065
      6 C          -1.1350   -2.7961   -0.6907 C.2     1  UNL1       -0.0707
      7 C          -1.8570   -3.8150   -1.2091 C.2     1  UNL1       -0.0140
      8 C          -3.2767   -3.5965   -1.5768 C.ar    1  UNL1       -0.0144
      9 C          -3.6198   -2.6676   -2.5654 C.ar    1  UNL1       -0.0538
     10 C          -4.9417   -2.4799   -2.9467 C.ar    1  UNL1       -0.0612
     11 C          -5.9472   -3.2407   -2.3475 C.ar    1  UNL1       -0.0615
     12 C          -5.6234   -4.1671   -1.3605 C.ar    1  UNL1       -0.0580
     13 C          -4.2952   -4.3493   -0.9567 C.ar    1  UNL1       -0.0393
     14 C          -3.9442   -5.3856    0.0751 C.3     1  UNL1       -0.0231
     15 C          -3.2283   -6.5711   -0.5669 C.3     1  UNL1       -0.0231
     16 C          -1.8145   -6.3771   -1.0840 C.ar    1  UNL1       -0.0393
     17 C          -1.1861   -5.1423   -1.3704 C.ar    1  UNL1       -0.0144
     18 C           0.1266   -5.1682   -1.8934 C.ar    1  UNL1       -0.0538
     19 C           0.8177   -6.3598   -2.1043 C.ar    1  UNL1       -0.0612
     20 C           0.1942   -7.5674   -1.8335 C.ar    1  UNL1       -0.0615
     21 C          -1.1076   -7.5724   -1.3409 C.ar    1  UNL1       -0.0580
     22 H          -1.3976   -0.2405    2.8292 H       1  UNL1        0.0777
     23 H          -0.2742   -1.4050    2.0331 H       1  UNL1        0.0777
     24 H          -0.9663   -1.8009    3.6205 H       1  UNL1        0.0777
     25 H          -3.8437   -1.0274    3.1502 H       1  UNL1        0.0777
     26 H          -4.2884   -2.6196    2.4285 H       1  UNL1        0.0777
     27 H          -3.1908   -2.5603    3.8381 H       1  UNL1        0.0777
     28 H          -3.5899   -1.8886    0.3277 H       1  UNL1        0.0817
     29 H          -3.0184   -0.3051    0.8736 H       1  UNL1        0.0817
     30 H          -1.9384   -0.8829   -1.2707 H       1  UNL1        0.0359
     31 H          -0.7312   -0.8077   -0.0296 H       1  UNL1        0.0359
     32 H          -0.0849   -2.9744   -0.4582 H       1  UNL1        0.0580
     33 H          -2.8408   -2.0915   -3.0712 H       1  UNL1        0.0624
     34 H          -5.1926   -1.7681   -3.7283 H       1  UNL1        0.0618
     35 H          -6.9784   -3.1248   -2.6734 H       1  UNL1        0.0618
     36 H          -6.4206   -4.7741   -0.9299 H       1  UNL1        0.0620
     37 H          -3.3455   -4.9406    0.8787 H       1  UNL1        0.0316
     38 H          -4.8636   -5.7466    0.5556 H       1  UNL1        0.0316
     39 H          -3.1930   -7.3614    0.1952 H       1  UNL1        0.0316
     40 H          -3.8360   -6.9562   -1.3969 H       1  UNL1        0.0316
     41 H           0.6330   -4.2453   -2.1750 H       1  UNL1        0.0624
     42 H           1.8277   -6.3445   -2.5026 H       1  UNL1        0.0618
     43 H           0.7105   -8.5042   -2.0236 H       1  UNL1        0.0618
     44 H          -1.5867   -8.5355   -1.1641 H       1  UNL1        0.0620
     45 H          -2.0459   -2.9372    1.8092 H       1  UNL1        0.2028
@<TRIPOS>UNITY_ATOM_ATTR
2 1
charge 1
@<TRIPOS>BOND
     1     1     2    1
     2     1    22    1
     3     1    23    1
     4     1    24    1
     5     2     3    1
     6     2     4    1
     7     2    45    1
     8     3    25    1
     9     3    26    1
    10     3    27    1
    11     4     5    1
    12     4    28    1
    13     4    29    1
    14     5     6    1
    15     5    30    1
    16     5    31    1
    17     6     7    2
    18     6    32    1
    19     7    17    1
    20     7     8    1
    21     8    13   ar
    22     8     9   ar
    23     9    10   ar
    24     9    33    1
    25    10    11   ar
    26    10    34    1
    27    11    12   ar
    28    11    35    1
    29    12    13   ar
    30    12    36    1
    31    13    14    1
    32    14    15    1
    33    14    37    1
    34    14    38    1
    35    15    16    1
    36    15    39    1
    37    15    40    1
    38    16    21   ar
    39    16    17   ar
    40    17    18   ar
    41    18    19   ar
    42    18    41    1
    43    19    20   ar
    44    19    42    1
    45    20    21   ar
    46    20    43    1
    47    21    44    1
