@<TRIPOS>MOLECULE
ZINC00005626
 29 30 0 0 0
SMALL
GASTEIGER

@<TRIPOS>ATOM
      1 C           0.7931    0.3200   -2.5145 C.3     1  UNL1       -0.0164
      2 C           0.3114    0.9494   -1.2104 C.3     1  UNL1        0.1946
      3 H           0.7974    0.3695   -0.4313 H       1  UNL1        0.0857
      4 C          -1.1697    0.8150   -1.1183 C.2     1  UNL1        0.2796
      5 C          -3.4083    1.2441   -1.3517 C.3     1  UNL1        0.1198
      6 C          -3.2152   -0.1212   -0.6646 C.3     1  UNL1        0.1150
      7 N          -1.7492   -0.2149   -0.5381 N.pl3   1  UNL1       -0.2339
      8 O           0.7480    2.3176   -1.1806 O.3     1  UNL1       -0.4742
      9 C           0.4793    3.0946   -0.0786 C.ar    1  UNL1        0.1582
     10 C           0.5306    2.7011    1.2682 C.ar    1  UNL1        0.0840
     11 C           0.1220    3.5775    2.2821 C.ar    1  UNL1       -0.0397
     12 C          -0.2760    4.8760    1.9830 C.ar    1  UNL1       -0.0588
     13 C          -0.2248    5.3208    0.6672 C.ar    1  UNL1       -0.0397
     14 C           0.1570    4.4410   -0.3512 C.ar    1  UNL1        0.0840
     15 CL          0.1995    5.0618   -1.9667 Cl      1  UNL1       -0.0797
     16 CL          1.1764    1.1984    1.8262 Cl      1  UNL1       -0.0797
     17 H           0.5537   -0.7491   -2.5307 H       1  UNL1        0.0271
     18 H           1.8766    0.4361   -2.6177 H       1  UNL1        0.0271
     19 H           0.3256    0.7883   -3.3861 H       1  UNL1        0.0271
     20 H          -3.9568    1.1548   -2.2927 H       1  UNL1        0.0782
     21 H          -3.9043    1.9615   -0.6913 H       1  UNL1        0.0782
     22 H          -3.6826   -0.1658    0.3207 H       1  UNL1        0.0764
     23 H          -3.5670   -0.9446   -1.2907 H       1  UNL1        0.0764
     24 H          -1.2114   -0.9581   -0.0995 H       1  UNL1        0.2911
     25 H           0.1422    3.2592    3.3235 H       1  UNL1        0.0633
     26 H          -0.5852    5.5488    2.7807 H       1  UNL1        0.0618
     27 H          -0.4787    6.3554    0.4435 H       1  UNL1        0.0633
     28 N          -2.0285    1.6841   -1.6169 N.2     1  UNL1       -0.2726
     29 H          -1.6993    2.5245   -2.0868 H       1  UNL1        0.3037
@<TRIPOS>BOND
     1     1    17    1
     2     1    18    1
     3     1    19    1
     4     2     4    1
     5     2     8    1
     6     4     7    1
     7     4    28    2
     8     5     6    1
     9     5    20    1
    10     5    21    1
    11     5    28    1
    12     6     7    1
    13     6    22    1
    14     6    23    1
    15     7    24    1
    16     8     9    1
    17     9    14   ar
    18     9    10   ar
    19    10    11   ar
    20    10    16    1
    21    11    12   ar
    22    11    25    1
    23    12    13   ar
    24    12    26    1
    25    13    14   ar
    26    13    27    1
    27    14    15    1
    28    28    29    1
    29     2     3    1
    30     2     1    1
