@<TRIPOS>MOLECULE
ZINC01482162
 47 49 0 0 0
SMALL
GASTEIGER

@<TRIPOS>ATOM
      1 C           1.0031   -0.0232   -0.2178 C.3     1  UNL1       -0.0529
      2 C           0.4205    0.2727    1.1727 C.3     1  UNL1        0.0241
      3 H           0.7778    1.2857    1.3951 H       1  UNL1        0.0410
      4 C          -1.1105    0.3840    1.2442 C.ar    1  UNL1        0.0484
      5 C          -1.8593    0.8195    0.1513 C.ar    1  UNL1       -0.0398
      6 C          -3.2462    0.9005    0.2620 C.ar    1  UNL1       -0.0586
      7 C          -3.8629    0.5322    1.4484 C.ar    1  UNL1       -0.0436
      8 C          -3.0589    0.1321    2.4981 C.ar    1  UNL1        0.0279
      9 N          -1.7046    0.1090    2.4464 N.ar    1  UNL1       -0.2593
     10 C           0.9696   -0.6483    2.2450 C.2     1  UNL1       -0.0316
     11 C           1.5749   -0.3134    3.4087 C.2     1  UNL1       -0.0559
     12 C           1.8727   -1.5200    4.2783 C.3     1  UNL1       -0.0051
     13 C           1.2744   -2.6184    3.4682 C.ar    1  UNL1       -0.0359
     14 C           0.8013   -2.1121    2.2498 C.ar    1  UNL1       -0.0178
     15 C           0.2491   -2.9785    1.3191 C.ar    1  UNL1       -0.0540
     16 C           0.1477   -4.3383    1.6327 C.ar    1  UNL1       -0.0612
     17 C           0.5758   -4.8215    2.8765 C.ar    1  UNL1       -0.0615
     18 C           1.1523   -3.9582    3.8063 C.ar    1  UNL1       -0.0577
     19 C           1.9349    1.0569    3.9191 C.3     1  UNL1        0.0095
     20 C           0.7611    2.0227    4.1634 C.3     1  UNL1       -0.0286
     21 C           0.1602    1.2229    6.4752 C.3     1  UNL1       -0.0433
     22 C          -1.5531    2.2825    5.0417 C.3     1  UNL1       -0.0433
     23 H           0.8395    0.8241   -0.8938 H       1  UNL1        0.0239
     24 H           0.5475   -0.8945   -0.6934 H       1  UNL1        0.0239
     25 H           2.0860   -0.1812   -0.1694 H       1  UNL1        0.0239
     26 H          -1.3960    1.0913   -0.7919 H       1  UNL1        0.0636
     27 H          -3.8438    1.2296   -0.5828 H       1  UNL1        0.0619
     28 H          -4.9447    0.5457    1.5464 H       1  UNL1        0.0633
     29 H          -3.4989   -0.1923    3.4379 H       1  UNL1        0.0829
     30 H           1.3721   -1.4435    5.2469 H       1  UNL1        0.0359
     31 H           2.9498   -1.6605    4.4076 H       1  UNL1        0.0359
     32 H          -0.1159   -2.6373    0.3584 H       1  UNL1        0.0624
     33 H          -0.2788   -5.0286    0.9076 H       1  UNL1        0.0618
     34 H           0.4592   -5.8769    3.1129 H       1  UNL1        0.0618
     35 H           1.4882   -4.3320    4.7679 H       1  UNL1        0.0621
     36 H           2.5077    0.9528    4.8446 H       1  UNL1        0.0362
     37 H           2.6266    1.5221    3.2076 H       1  UNL1        0.0362
     38 H           1.1175    2.9516    4.6247 H       1  UNL1        0.0817
     39 H           0.2710    2.2860    3.2231 H       1  UNL1        0.0817
     40 H           0.5495    2.1682    6.8659 H       1  UNL1        0.0777
     41 H          -0.6900    0.8826    7.0724 H       1  UNL1        0.0777
     42 H           0.9375    0.4581    6.4770 H       1  UNL1        0.0777
     43 H          -1.8635    2.4204    4.0043 H       1  UNL1        0.0777
     44 H          -2.3287    1.7478    5.5959 H       1  UNL1        0.0777
     45 H          -1.3343    3.2474    5.5081 H       1  UNL1        0.0777
     46 N          -0.3027    1.4464    5.0668 N.4     1  UNL1        0.2311
     47 H          -0.5748    0.5420    4.6362 H       1  UNL1        0.2028
@<TRIPOS>UNITY_ATOM_ATTR
46 1
charge 1
@<TRIPOS>BOND
     1     1     2    1
     2     1    23    1
     3     1    24    1
     4     1    25    1
     5     2     3    1
     6     2     4    1
     7     2    10    1
     8     4     9   ar
     9     4     5   ar
    10     5     6   ar
    11     5    26    1
    12     6     7   ar
    13     6    27    1
    14     7     8   ar
    15     7    28    1
    16     8     9   ar
    17     8    29    1
    18    10    14    1
    19    10    11    2
    20    11    12    1
    21    11    19    1
    22    12    13    1
    23    12    30    1
    24    12    31    1
    25    13    18   ar
    26    13    14   ar
    27    14    15   ar
    28    15    16   ar
    29    15    32    1
    30    16    17   ar
    31    16    33    1
    32    17    18   ar
    33    17    34    1
    34    18    35    1
    35    19    20    1
    36    19    36    1
    37    19    37    1
    38    20    38    1
    39    20    39    1
    40    20    46    1
    41    21    40    1
    42    21    41    1
    43    21    42    1
    44    21    46    1
    45    22    43    1
    46    22    44    1
    47    22    45    1
    48    22    46    1
    49    46    47    1
