@<TRIPOS>MOLECULE
ZINC00009342
 45 46 0 0 0
SMALL
GASTEIGER

@<TRIPOS>ATOM
      1 C           4.9668   -2.1705   -2.9892 C.3     1  UNL1       -0.0433
      2 C           5.0383   -1.0875   -0.7744 C.3     1  UNL1       -0.0433
      3 C           2.9507   -2.3770   -1.4767 C.3     1  UNL1       -0.0228
      4 C           2.4405   -2.5244    0.0005 C.3     1  UNL1        0.0529
      5 H           2.7888   -1.6452    0.5440 H       1  UNL1        0.0429
      6 C           3.1445   -3.7368    0.6471 C.ar    1  UNL1       -0.0363
      7 C           3.8093   -3.5639    1.8728 C.ar    1  UNL1       -0.0546
      8 C           4.6930   -4.5440    2.3465 C.ar    1  UNL1       -0.0199
      9 C           4.9034   -5.6938    1.6014 C.ar    1  UNL1        0.1169
     10 C           4.1857   -5.9283    0.4422 C.ar    1  UNL1       -0.0199
     11 C           3.2882   -4.9614   -0.0265 C.ar    1  UNL1       -0.0546
     12 O           5.8302   -6.6239    1.9685 O.3     1  UNL1       -0.5068
     13 C           0.8744   -2.4790    0.1170 C.3     1  UNL1        0.0777
     14 C           0.3490   -2.4918    1.5900 C.3     1  UNL1       -0.0232
     15 C           0.5614   -1.1819    2.3610 C.3     1  UNL1       -0.0504
     16 C           0.1030    0.0589    1.5952 C.3     1  UNL1       -0.0529
     17 C           0.5993    0.0752    0.1549 C.3     1  UNL1       -0.0504
     18 C           0.2598   -1.2298   -0.5581 C.3     1  UNL1       -0.0232
     19 O           0.3467   -3.6129   -0.5728 O.3     1  UNL1       -0.3878
     20 H           4.5680   -1.2613   -3.4485 H       1  UNL1        0.0777
     21 H           6.0606   -2.1419   -2.9738 H       1  UNL1        0.0777
     22 H           4.6266   -3.0632   -3.5189 H       1  UNL1        0.0777
     23 H           4.6134   -0.1617   -1.1706 H       1  UNL1        0.0777
     24 H           4.7870   -1.2161    0.2780 H       1  UNL1        0.0777
     25 H           6.1262   -1.1000   -0.8732 H       1  UNL1        0.0777
     26 H           2.5528   -1.4904   -1.9685 H       1  UNL1        0.0821
     27 H           2.6897   -3.2529   -2.0850 H       1  UNL1        0.0821
     28 H           3.6813   -2.6608    2.4586 H       1  UNL1        0.0622
     29 H           5.2166   -4.3807    3.2866 H       1  UNL1        0.0654
     30 H           4.3369   -6.8506   -0.1149 H       1  UNL1        0.0654
     31 H           2.7437   -5.1732   -0.9461 H       1  UNL1        0.0622
     32 H           6.3357   -6.2975    2.7316 H       1  UNL1        0.2921
     33 H          -0.7325   -2.6947    1.5779 H       1  UNL1        0.0293
     34 H           0.7779   -3.3262    2.1551 H       1  UNL1        0.0293
     35 H           1.6169   -1.0734    2.6314 H       1  UNL1        0.0266
     36 H           0.0042   -1.2278    3.3066 H       1  UNL1        0.0266
     37 H           0.4466    0.9611    2.1142 H       1  UNL1        0.0265
     38 H          -0.9935    0.1011    1.5952 H       1  UNL1        0.0265
     39 H           1.6793    0.2592    0.1353 H       1  UNL1        0.0266
     40 H           0.1333    0.9123   -0.3778 H       1  UNL1        0.0266
     41 H           0.5495   -1.1724   -1.6112 H       1  UNL1        0.0293
     42 H          -0.8336   -1.3387   -0.5930 H       1  UNL1        0.0293
     43 H          -0.6085   -3.6772   -0.3769 H       1  UNL1        0.2102
     44 N           4.4818   -2.2383   -1.5633 N.4     1  UNL1        0.2314
     45 H           4.8777   -3.1026   -1.1593 H       1  UNL1        0.2028
@<TRIPOS>UNITY_ATOM_ATTR
44 1
charge 1
@<TRIPOS>BOND
     1     1    20    1
     2     1    21    1
     3     1    22    1
     4     1    44    1
     5     2    23    1
     6     2    24    1
     7     2    25    1
     8     2    44    1
     9     3    26    1
    10     3    27    1
    11     3    44    1
    12     4     6    1
    13     4    13    1
    14     6    11   ar
    15     6     7   ar
    16     7     8   ar
    17     7    28    1
    18     8     9   ar
    19     8    29    1
    20     9    10   ar
    21     9    12    1
    22    10    11   ar
    23    10    30    1
    24    11    31    1
    25    12    32    1
    26    13    18    1
    27    13    14    1
    28    13    19    1
    29    14    15    1
    30    14    33    1
    31    14    34    1
    32    15    16    1
    33    15    35    1
    34    15    36    1
    35    16    17    1
    36    16    37    1
    37    16    38    1
    38    17    18    1
    39    17    39    1
    40    17    40    1
    41    18    41    1
    42    18    42    1
    43    19    43    1
    44    44    45    1
    45     4     5    1
    46     4     3    1
