@<TRIPOS>MOLECULE
ZINC03651680
 31 31 0 0 0
SMALL
GASTEIGER

@<TRIPOS>ATOM
      1 C          -1.3153    3.3098    1.1793 C.3     1  UNL1       -0.0650
      2 C           0.1842    3.5385    1.0034 C.3     1  UNL1       -0.0519
      3 C           1.0155    2.2398    0.8210 C.3     1  UNL1       -0.0217
      4 H           0.7473    1.5656    1.6476 H       1  UNL1        0.0313
      5 C           0.5835    1.5312   -0.4790 C.3     1  UNL1       -0.0610
      6 C           2.5870    2.4615    0.8962 C.3     1  UNL1        0.1257
      7 C           3.0170    3.4719   -0.1601 C.2     1  UNL1        0.2357
      8 O           2.8681    4.6865   -0.0320 O.2     1  UNL1       -0.2742
      9 N           3.5514    2.9794   -1.3149 N.am    1  UNL1       -0.2390
     10 C           4.0087    1.7171   -1.5126 C.2     1  UNL1        0.3122
     11 O           4.6185    1.4027   -2.5273 O.2     1  UNL1       -0.2520
     12 N           3.7969    0.8269   -0.5090 N.am    1  UNL1       -0.2390
     13 C           3.2449    1.0969    0.7113 C.2     1  UNL1        0.2357
     14 O           3.2439    0.2270    1.5853 O.2     1  UNL1       -0.2742
     15 C           3.0177    2.9903    2.2983 C.3     1  UNL1       -0.0332
     16 C           4.5294    3.1818    2.4604 C.3     1  UNL1       -0.0639
     17 H          -1.7609    2.7895    0.3279 H       1  UNL1        0.0230
     18 H          -1.8293    4.2734    1.2666 H       1  UNL1        0.0230
     19 H          -1.5209    2.7342    2.0864 H       1  UNL1        0.0230
     20 H           0.3256    4.1960    0.1380 H       1  UNL1        0.0266
     21 H           0.5265    4.0905    1.8836 H       1  UNL1        0.0266
     22 H           0.7812    2.1528   -1.3578 H       1  UNL1        0.0233
     23 H           1.0924    0.5728   -0.6104 H       1  UNL1        0.0233
     24 H          -0.4840    1.2948   -0.4727 H       1  UNL1        0.0233
     25 H           3.8114    3.6595   -2.0159 H       1  UNL1        0.1591
     26 H           4.1937   -0.0936   -0.6313 H       1  UNL1        0.1591
     27 H           2.5487    3.9554    2.5175 H       1  UNL1        0.0277
     28 H           2.6777    2.2949    3.0763 H       1  UNL1        0.0277
     29 H           4.8936    4.0100    1.8442 H       1  UNL1        0.0230
     30 H           4.7647    3.4195    3.5029 H       1  UNL1        0.0230
     31 H           5.0939    2.2834    2.1936 H       1  UNL1        0.0230
@<TRIPOS>BOND
     1     1     2    1
     2     1    17    1
     3     1    18    1
     4     1    19    1
     5     2     3    1
     6     2    20    1
     7     2    21    1
     8     3     4    1
     9     3     5    1
    10     3     6    1
    11     5    22    1
    12     5    23    1
    13     5    24    1
    14     6    13    1
    15     6     7    1
    16     6    15    1
    17     7     8    2
    18     7     9   am
    19     9    10   am
    20     9    25    1
    21    10    11    2
    22    10    12   am
    23    12    13   am
    24    12    26    1
    25    13    14    2
    26    15    16    1
    27    15    27    1
    28    15    28    1
    29    16    29    1
    30    16    30    1
    31    16    31    1
