@<TRIPOS>MOLECULE
ZINC03830954
 51 51 0 0 0
SMALL
GASTEIGER

@<TRIPOS>ATOM
      1 C           0.3562    3.1267  -19.8750 C.3     1  UNL1       -0.0306
      2 C          -0.6181    3.6715  -18.8475 C.3     1  UNL1        0.0896
      3 O          -0.6618    2.8187  -17.6944 O.3     1  UNL1       -0.4649
      4 C          -1.4872    1.7340  -17.7838 C.2     1  UNL1        0.3071
      5 O          -2.1491    1.4289  -18.7588 O.2     1  UNL1       -0.2509
      6 C          -1.4550    0.9851  -16.4689 C.3     1  UNL1        0.0449
      7 C          -2.3291   -0.2702  -16.4911 C.3     1  UNL1       -0.0430
      8 C          -2.2788   -1.0757  -15.1852 C.3     1  UNL1       -0.0526
      9 C          -2.7811   -0.2851  -13.9742 C.3     1  UNL1       -0.0530
     10 C          -2.7410   -1.1100  -12.6876 C.3     1  UNL1       -0.0531
     11 C          -3.2344   -0.2820  -11.4909 C.3     1  UNL1       -0.0530
     12 C          -3.1970   -1.1043  -10.2010 C.3     1  UNL1       -0.0525
     13 C          -3.7135   -0.3240   -8.9831 C.3     1  UNL1       -0.0464
     14 C          -3.6799   -1.0633   -7.6124 C.3     1  UNL1       -0.0177
     15 H          -3.9549   -0.2959   -6.8829 H       1  UNL1        0.0346
     16 C          -2.2525   -1.4767   -7.2242 C.3     1  UNL1       -0.0584
     17 C          -4.6552   -2.2378   -7.4875 C.ar    1  UNL1       -0.0314
     18 C          -4.3992   -3.4075   -8.2320 C.ar    1  UNL1       -0.0573
     19 C          -5.2521   -4.5124   -8.2047 C.ar    1  UNL1       -0.0614
     20 C          -6.3825   -4.4957   -7.4027 C.ar    1  UNL1       -0.0608
     21 C          -6.6449   -3.3767   -6.6170 C.ar    1  UNL1       -0.0483
     22 C          -5.7926   -2.2531   -6.6520 C.ar    1  UNL1        0.0168
     23 I          -6.3228   -0.6939   -5.3439 I       1  UNL1       -0.0435
     24 H           1.3521    3.0103  -19.4353 H       1  UNL1        0.0262
     25 H           0.4268    3.7979  -20.7356 H       1  UNL1        0.0262
     26 H           0.0467    2.1384  -20.2283 H       1  UNL1        0.0262
     27 H          -0.2760    4.6541  -18.5051 H       1  UNL1        0.0694
     28 H          -1.6192    3.8098  -19.2724 H       1  UNL1        0.0694
     29 H          -0.4170    0.7077  -16.2529 H       1  UNL1        0.0377
     30 H          -1.8083    1.6800  -15.6999 H       1  UNL1        0.0377
     31 H          -3.3683    0.0066  -16.7095 H       1  UNL1        0.0270
     32 H          -2.0059   -0.9210  -17.3134 H       1  UNL1        0.0270
     33 H          -2.8966   -1.9738  -15.3110 H       1  UNL1        0.0265
     34 H          -1.2537   -1.4196  -15.0081 H       1  UNL1        0.0265
     35 H          -2.1636    0.6077  -13.8277 H       1  UNL1        0.0265
     36 H          -3.8069    0.0546  -14.1617 H       1  UNL1        0.0265
     37 H          -3.3624   -2.0058  -12.8015 H       1  UNL1        0.0265
     38 H          -1.7151   -1.4495  -12.5001 H       1  UNL1        0.0265
     39 H          -2.6128    0.6141  -11.3793 H       1  UNL1        0.0265
     40 H          -4.2612    0.0546  -11.6810 H       1  UNL1        0.0265
     41 H          -3.8165   -1.9875  -10.3678 H       1  UNL1        0.0265
     42 H          -2.1697   -1.4399  -10.0218 H       1  UNL1        0.0265
     43 H          -3.1041    0.5833   -8.8840 H       1  UNL1        0.0271
     44 H          -4.7361    0.0189   -9.1809 H       1  UNL1        0.0271
     45 H          -2.2223   -1.8170   -6.1839 H       1  UNL1        0.0236
     46 H          -1.8653   -2.2886   -7.8458 H       1  UNL1        0.0236
     47 H          -1.5656   -0.6295   -7.3204 H       1  UNL1        0.0236
     48 H          -3.5123   -3.4829   -8.8549 H       1  UNL1        0.0621
     49 H          -5.0236   -5.3849   -8.8128 H       1  UNL1        0.0618
     50 H          -7.0467   -5.3548   -7.3763 H       1  UNL1        0.0618
     51 H          -7.5204   -3.3941   -5.9725 H       1  UNL1        0.0628
@<TRIPOS>BOND
     1     1     2    1
     2     1    24    1
     3     1    25    1
     4     1    26    1
     5     2     3    1
     6     2    27    1
     7     2    28    1
     8     3     4    1
     9     4     5    2
    10     4     6    1
    11     6     7    1
    12     6    29    1
    13     6    30    1
    14     7     8    1
    15     7    31    1
    16     7    32    1
    17     8     9    1
    18     8    33    1
    19     8    34    1
    20     9    10    1
    21     9    35    1
    22     9    36    1
    23    10    11    1
    24    10    37    1
    25    10    38    1
    26    11    12    1
    27    11    39    1
    28    11    40    1
    29    12    13    1
    30    12    41    1
    31    12    42    1
    32    13    43    1
    33    13    44    1
    34    14    16    1
    35    14    17    1
    36    16    45    1
    37    16    46    1
    38    16    47    1
    39    17    22   ar
    40    17    18   ar
    41    18    19   ar
    42    18    48    1
    43    19    20   ar
    44    19    49    1
    45    20    21   ar
    46    20    50    1
    47    21    22   ar
    48    21    51    1
    49    22    23    1
    50    14    15    1
    51    14    13    1
