@<TRIPOS>MOLECULE
ZINC01530761
 57 59 0 0 0
SMALL
GASTEIGER

@<TRIPOS>ATOM
      1 C          -0.4255   -3.2616   -0.7447 C.3     1  UNL1       -0.0218
      2 C          -1.1732   -1.9217   -0.6820 C.3     1  UNL1       -0.0247
      3 C          -2.6481   -2.2603   -0.9955 C.3     1  UNL1       -0.0218
      4 N          -0.9952   -1.0985    0.7112 N.4     1  UNL1        0.2470
      5 C          -1.9564    0.1155    0.5965 C.3     1  UNL1       -0.0407
      6 C          -1.4655   -2.0047    1.8884 C.3     1  UNL1        0.0052
      7 C          -1.4337   -1.4901    3.3431 C.3     1  UNL1        0.1321
      8 O          -1.9704   -0.1842    3.6366 O.3     1  UNL1       -0.4586
      9 C          -3.3172   -0.0004    3.6073 C.2     1  UNL1        0.3194
     10 O          -4.0743   -0.7587    3.0156 O.2     1  UNL1       -0.2498
     11 C          -3.7594    1.2246    4.4301 C.3     1  UNL1        0.1131
     12 C          -3.3983    2.5607    3.7822 C.ar    1  UNL1        0.0131
     13 C          -3.9017    2.9433    2.5280 C.ar    1  UNL1       -0.0540
     14 C          -3.5916    4.1987    1.9827 C.ar    1  UNL1       -0.0612
     15 C          -2.7814    5.0888    2.6798 C.ar    1  UNL1       -0.0583
     16 C          -2.2946    4.7342    3.9334 C.ar    1  UNL1       -0.0190
     17 C          -2.6140    3.4863    4.4818 C.ar    1  UNL1        0.1327
     18 O          -2.1298    3.2829    5.7474 O.3     1  UNL1       -0.4554
     19 C          -2.4638    2.1309    6.4040 C.ar    1  UNL1        0.1327
     20 C          -3.2361    1.1099    5.8457 C.ar    1  UNL1        0.0131
     21 C          -3.4840   -0.0421    6.6118 C.ar    1  UNL1       -0.0540
     22 C          -2.9227   -0.1840    7.8815 C.ar    1  UNL1       -0.0612
     23 C          -2.1567    0.8424    8.4251 C.ar    1  UNL1       -0.0583
     24 C          -1.9440    2.0078    7.6940 C.ar    1  UNL1       -0.0190
     25 C           0.4652   -0.4585    0.8064 C.3     1  UNL1       -0.0247
     26 C           0.6447    0.5495    1.9518 C.3     1  UNL1       -0.0218
     27 C           1.6309   -1.4406    0.8112 C.3     1  UNL1       -0.0218
     28 H          -0.8888   -4.0264   -0.1146 H       1  UNL1        0.0284
     29 H           0.6261   -3.2320   -0.4971 H       1  UNL1        0.0284
     30 H          -0.4664   -3.6395   -1.7761 H       1  UNL1        0.0284
     31 H          -0.7904   -1.2457   -1.4551 H       1  UNL1        0.0846
     32 H          -3.0781   -2.9512   -0.2621 H       1  UNL1        0.0284
     33 H          -3.2954   -1.3851   -1.0747 H       1  UNL1        0.0284
     34 H          -2.7122   -2.7682   -1.9648 H       1  UNL1        0.0284
     35 H          -2.9885   -0.2360    0.5929 H       1  UNL1        0.0778
     36 H          -1.8109    0.7823    1.4431 H       1  UNL1        0.0778
     37 H          -1.7176    0.6496   -0.3276 H       1  UNL1        0.0778
     38 H          -2.4967   -2.2840    1.6593 H       1  UNL1        0.0849
     39 H          -0.8570   -2.9129    1.8410 H       1  UNL1        0.0849
     40 H          -1.9538   -2.2178    3.9821 H       1  UNL1        0.0752
     41 H          -0.3980   -1.4953    3.7008 H       1  UNL1        0.0752
     42 H          -4.8511    1.2039    4.4926 H       1  UNL1        0.0514
     43 H          -4.5808    2.2932    1.9780 H       1  UNL1        0.0622
     44 H          -4.0116    4.5032    1.0258 H       1  UNL1        0.0618
     45 H          -2.5542    6.0708    2.2683 H       1  UNL1        0.0619
     46 H          -1.6947    5.4405    4.5026 H       1  UNL1        0.0654
     47 H          -4.0951   -0.8519    6.2177 H       1  UNL1        0.0622
     48 H          -3.0834   -1.0965    8.4502 H       1  UNL1        0.0618
     49 H          -1.7229    0.7394    9.4168 H       1  UNL1        0.0619
     50 H          -1.3602    2.8193    8.1222 H       1  UNL1        0.0654
     51 H           0.5564    0.1169   -0.1251 H       1  UNL1        0.0846
     52 H          -0.0186    0.4220    2.7929 H       1  UNL1        0.0284
     53 H           1.6551    0.5172    2.3752 H       1  UNL1        0.0284
     54 H           0.4938    1.5705    1.5842 H       1  UNL1        0.0284
     55 H           1.8405   -1.8045   -0.1974 H       1  UNL1        0.0284
     56 H           2.5625   -0.9303    1.0842 H       1  UNL1        0.0284
     57 H           1.4939   -2.2714    1.5075 H       1  UNL1        0.0284
@<TRIPOS>UNITY_ATOM_ATTR
4 1
charge 1
@<TRIPOS>BOND
     1     1     2    1
     2     1    28    1
     3     1    29    1
     4     1    30    1
     5     2     3    1
     6     2     4    1
     7     2    31    1
     8     3    32    1
     9     3    33    1
    10     3    34    1
    11     4     5    1
    12     4     6    1
    13     4    25    1
    14     5    35    1
    15     5    36    1
    16     5    37    1
    17     6     7    1
    18     6    38    1
    19     6    39    1
    20     7     8    1
    21     7    40    1
    22     7    41    1
    23     8     9    1
    24     9    10    2
    25     9    11    1
    26    11    20    1
    27    11    12    1
    28    11    42    1
    29    12    17   ar
    30    12    13   ar
    31    13    14   ar
    32    13    43    1
    33    14    15   ar
    34    14    44    1
    35    15    16   ar
    36    15    45    1
    37    16    17   ar
    38    16    46    1
    39    17    18    1
    40    18    19    1
    41    19    24   ar
    42    19    20   ar
    43    20    21   ar
    44    21    22   ar
    45    21    47    1
    46    22    23   ar
    47    22    48    1
    48    23    24   ar
    49    23    49    1
    50    24    50    1
    51    25    26    1
    52    25    27    1
    53    25    51    1
    54    26    52    1
    55    26    53    1
    56    26    54    1
    57    27    55    1
    58    27    56    1
    59    27    57    1
