@<TRIPOS>MOLECULE
ZINC03645145
 22 21 0 0 0
SMALL
GASTEIGER

@<TRIPOS>ATOM
      1 CD1         1.2984    0.0261    0.0789 C.3     1  LEU1       -0.0625
      2 CG          0.6372    0.8391   -1.0325 C.3     1  LEU1       -0.0411
      3 CD2         1.0401    0.2784   -2.3988 C.3     1  LEU1       -0.0625
      4 CB         -0.8998    0.8572   -0.9164 C.3     1  LEU1        0.0032
      5 CA         -1.4615    1.4233    0.3815 C.3     1  LEU1        0.0788
      6 HA         -1.1713    0.8336    1.2591 H       1  LEU1        0.0970
      7 C          -1.1262    2.9258    0.6454 C.2     1  LEU1        0.4026
      8 O          -2.1930    3.6203    0.5316 O.co2   1  LEU1       -0.2400
      9 OXT         0.0296    3.2070    1.0132 O.co2   1  LEU1       -0.2400
     10 N          -2.9844    1.2842    0.3000 N.4     1  LEU1        0.2289
     11 HD11        0.8734   -0.9803    0.1435 H       1  LEU1        0.0232
     12 HD12        1.1718    0.5121    1.0520 H       1  LEU1        0.0232
     13 HD13        2.3750   -0.0710   -0.0963 H       1  LEU1        0.0232
     14 HG          1.0142    1.8652   -0.9833 H       1  LEU1        0.0298
     15 HD21        0.7110   -0.7590   -2.5201 H       1  LEU1        0.0232
     16 HD22        0.5969    0.8712   -3.2093 H       1  LEU1        0.0232
     17 HD23        2.1282    0.3072   -2.5279 H       1  LEU1        0.0232
     18 HB1        -1.2952    1.4390   -1.7601 H       1  LEU1        0.0328
     19 HB2        -1.2748   -0.1684   -1.0491 H       1  LEU1        0.0328
     20 H1         -3.3149    1.4297   -0.6570 H       1  LEU1        0.2002
     21 H2         -3.3820    0.4718    0.7621 H       1  LEU1        0.2002
     22 H3         -3.2905    2.1719    0.7699 H       1  LEU1        0.2002
@<TRIPOS>UNITY_ATOM_ATTR
10 1
charge 1
@<TRIPOS>BOND
     1     1     2    1
     2     1    11    1
     3     1    12    1
     4     1    13    1
     5     2     3    1
     6     2     4    1
     7     2    14    1
     8     3    15    1
     9     3    16    1
    10     3    17    1
    11     4     5    1
    12     4    18    1
    13     4    19    1
    14     5     6    1
    15     5     7    1
    16     5    10    1
    17     7     8   ar
    18     7     9   ar
    19    10    20    1
    20    10    21    1
    21    10    22    1
