@<TRIPOS>MOLECULE
ZINC03831483
 48 51 0 0 0
SMALL
GASTEIGER

@<TRIPOS>ATOM
      1 C           1.0968   -0.1719    0.1464 C.ar    1  UNL1       -0.0616
      2 C           0.4647   -1.2584   -0.4554 C.ar    1  UNL1       -0.0598
      3 C          -0.9286   -1.2857   -0.5657 C.ar    1  UNL1       -0.0363
      4 C          -1.7165   -0.2357   -0.0708 C.ar    1  UNL1        0.0633
      5 C          -1.0600    0.8550    0.5273 C.ar    1  UNL1       -0.0363
      6 C           0.3350    0.8888    0.6336 C.ar    1  UNL1       -0.0598
      7 N          -3.1505   -0.3484   -0.1260 N.ar    1  UNL1       -0.2594
      8 C          -3.9034    0.0165   -1.2578 C.ar    1  UNL1       -0.0029
      9 O          -3.5055   -0.4453   -2.3559 O.co2   1  UNL1       -0.8598
     10 C          -4.9579    0.7807   -0.9109 C.ar    1  UNL1        0.0303
     11 C          -4.9360    0.8656    0.5756 C.ar    1  UNL1        0.2747
     12 O          -5.8369    1.3564    1.2472 O.2     1  UNL1       -0.2656
     13 N          -3.7767    0.2161    1.0184 N.ar    1  UNL1       -0.2130
     14 C          -3.8397   -0.6091    2.1718 C.ar    1  UNL1        0.0677
     15 C          -3.8123   -0.0268    3.4425 C.ar    1  UNL1       -0.0362
     16 C          -3.7944   -0.8374    4.5819 C.ar    1  UNL1       -0.0598
     17 C          -3.8355   -2.2275    4.4555 C.ar    1  UNL1       -0.0616
     18 C          -3.8836   -2.8117    3.1916 C.ar    1  UNL1       -0.0598
     19 C          -3.8711   -2.0057    2.0551 C.ar    1  UNL1       -0.0362
     20 C          -6.0642    1.3714   -1.7265 C.3     1  UNL1       -0.0099
     21 C          -6.4465    0.5767   -2.9769 C.3     1  UNL1        0.0321
     22 S          -7.9207    1.3162   -3.7758 S.O     1  UNL1        0.0541
     23 O          -7.5942    2.7235   -4.1896 O.2     1  UNL1       -0.2521
     24 C          -7.9089    0.3340   -5.3003 C.ar    1  UNL1        0.0388
     25 C          -7.6776    0.9403   -6.5414 C.ar    1  UNL1       -0.0459
     26 C          -7.6970    0.1840   -7.7164 C.ar    1  UNL1       -0.0606
     27 C          -7.9589   -1.1835   -7.6603 C.ar    1  UNL1       -0.0617
     28 C          -8.2008   -1.7941   -6.4303 C.ar    1  UNL1       -0.0606
     29 C          -8.1800   -1.0383   -5.2541 C.ar    1  UNL1       -0.0459
     30 H           2.1792   -0.1478    0.2265 H       1  UNL1        0.0618
     31 H           1.0484   -2.0857   -0.8465 H       1  UNL1        0.0618
     32 H          -1.4245   -2.1269   -1.0437 H       1  UNL1        0.0639
     33 H          -1.6402    1.6932    0.9028 H       1  UNL1        0.0639
     34 H           0.8198    1.7446    1.0927 H       1  UNL1        0.0618
     35 H          -3.7664    1.0541    3.5440 H       1  UNL1        0.0639
     36 H          -3.7404   -0.3842    5.5673 H       1  UNL1        0.0618
     37 H          -3.8266   -2.8572    5.3401 H       1  UNL1        0.0618
     38 H          -3.9251   -3.8907    3.0802 H       1  UNL1        0.0618
     39 H          -3.9058   -2.4642    1.0684 H       1  UNL1        0.0639
     40 H          -6.9564    1.4825   -1.0971 H       1  UNL1        0.0324
     41 H          -5.7684    2.3882   -2.0140 H       1  UNL1        0.0324
     42 H          -5.6426    0.5669   -3.7170 H       1  UNL1        0.0408
     43 H          -6.7106   -0.4523   -2.7079 H       1  UNL1        0.0408
     44 H          -7.4704    2.0076   -6.5954 H       1  UNL1        0.0629
     45 H          -7.5066    0.6672   -8.6716 H       1  UNL1        0.0618
     46 H          -7.9655   -1.7728   -8.5728 H       1  UNL1        0.0618
     47 H          -8.3979   -2.8617   -6.3838 H       1  UNL1        0.0618
     48 H          -8.3688   -1.5318   -4.3043 H       1  UNL1        0.0629
@<TRIPOS>UNITY_ATOM_ATTR
9 1
charge -1
@<TRIPOS>BOND
     1     1     6   ar
     2     1     2   ar
     3     1    30    1
     4     2     3   ar
     5     2    31    1
     6     3     4   ar
     7     3    32    1
     8     4     5   ar
     9     4     7    1
    10     5     6   ar
    11     5    33    1
    12     6    34    1
    13     7    13   ar
    14     7     8   ar
    15     8     9    1
    16     8    10   ar
    17    10    11   ar
    18    10    20    1
    19    11    12    2
    20    11    13   ar
    21    13    14    1
    22    14    19   ar
    23    14    15   ar
    24    15    16   ar
    25    15    35    1
    26    16    17   ar
    27    16    36    1
    28    17    18   ar
    29    17    37    1
    30    18    19   ar
    31    18    38    1
    32    19    39    1
    33    20    21    1
    34    20    40    1
    35    20    41    1
    36    21    22    1
    37    21    42    1
    38    21    43    1
    39    22    23    2
    40    22    24    1
    41    24    29   ar
    42    24    25   ar
    43    25    26   ar
    44    25    44    1
    45    26    27   ar
    46    26    45    1
    47    27    28   ar
    48    27    46    1
    49    28    29   ar
    50    28    47    1
    51    29    48    1
