@<TRIPOS>MOLECULE
ZINC00897283
 18 17 0 0 0
SMALL
GASTEIGER

@<TRIPOS>ATOM
      1 C           0.9632   -0.0068    0.1915 C.3     1  UNL1       -0.0614
      2 C           0.4915    1.3401   -0.3528 C.3     1  UNL1       -0.0117
      3 C           0.9818    1.6370   -1.7779 C.3     1  UNL1        0.1456
      4 C           0.4995    0.6084   -2.7834 C.2     1  UNL1       -0.0297
      5 C           1.2609   -0.1921   -3.5478 C.2     1  UNL1        0.0043
      6 CL          0.5995   -1.3000   -4.6703 Cl      1  UNL1       -0.0921
      7 C           0.4752    2.9914   -2.2464 C.1     1  UNL1       -0.0667
      8 C           0.0405    4.1531   -2.6482 C.1     1  UNL1       -0.1160
      9 O           2.4042    1.6732   -1.7890 O.3     1  UNL1       -0.3730
     10 H           0.5678   -0.8380   -0.3973 H       1  UNL1        0.0231
     11 H           0.6150   -0.1381    1.2218 H       1  UNL1        0.0231
     12 H           2.0554   -0.0737    0.1949 H       1  UNL1        0.0231
     13 H          -0.6047    1.3754   -0.3090 H       1  UNL1        0.0303
     14 H           0.8593    2.1196    0.3278 H       1  UNL1        0.0303
     15 H          -0.5865    0.5215   -2.8754 H       1  UNL1        0.0619
     16 H           2.3423   -0.2196   -3.5409 H       1  UNL1        0.0744
     17 H          -0.3118    5.1056   -2.9714 H       1  UNL1        0.1229
     18 H           2.6662    1.9000   -2.6992 H       1  UNL1        0.2117
@<TRIPOS>BOND
     1     1     2    1
     2     1    10    1
     3     1    11    1
     4     1    12    1
     5     2     3    1
     6     2    13    1
     7     2    14    1
     8     3     4    1
     9     3     7    1
    10     3     9    1
    11     4     5    2
    12     4    15    1
    13     5     6    1
    14     5    16    1
    15     7     8    3
    16     8    17    1
    17     9    18    1
