@<TRIPOS>MOLECULE
ZINC00896717
 73 77 0 0 0
SMALL
GASTEIGER

@<TRIPOS>ATOM
      1 C           2.0793    0.9973   -2.9814 C.3     1  UNL1       -0.0378
      2 C           1.0382    2.0104   -2.5928 C.ar    1  UNL1       -0.0236
      3 C           0.4540    2.7494   -3.6384 C.ar    1  UNL1       -0.0570
      4 C          -0.4990    3.7377   -3.3881 C.ar    1  UNL1       -0.0614
      5 C          -0.8902    4.0056   -2.0808 C.ar    1  UNL1       -0.0599
      6 C          -0.3441    3.2735   -1.0273 C.ar    1  UNL1       -0.0346
      7 C           0.6091    2.2684   -1.2755 C.ar    1  UNL1        0.1153
      8 S           1.1866    1.3310    0.1493 S.O2    1  UNL1        0.0984
      9 O           0.4146    1.7074    1.3106 O.2     1  UNL1       -0.1463
     10 O           1.0771   -0.0632   -0.2612 O.2     1  UNL1       -0.1463
     11 N           2.7456    1.6699    0.3172 N.2     1  UNL1       -0.1443
     12 C           3.1856    2.8695    0.5247 C.2     1  UNL1        0.0176
     13 O           2.6466    3.9648    0.7394 O.co2   1  UNL1       -0.8587
     14 C           4.6673    3.0393    0.3964 C.ar    1  UNL1       -0.0093
     15 C           5.1994    4.0934   -0.3523 C.ar    1  UNL1       -0.0532
     16 C           6.5014    4.0204   -0.8044 C.ar    1  UNL1       -0.0542
     17 C           7.2717    2.8888   -0.5379 C.ar    1  UNL1       -0.0013
     18 C           6.8229    1.9261    0.4103 C.ar    1  UNL1        0.1241
     19 C           5.4971    1.9919    0.8346 C.ar    1  UNL1       -0.0116
     20 O           7.7059    0.9672    0.8539 O.3     1  UNL1       -0.4948
     21 C           7.2915    0.1443    1.9536 C.3     1  UNL1        0.0788
     22 C           8.6049    2.8718   -1.2053 C.3     1  UNL1        0.0030
     23 C           8.6594    2.1883   -2.5647 C.ar    1  UNL1       -0.0177
     24 C           9.8844    1.4827   -2.6633 C.ar    1  UNL1        0.0089
     25 N           9.2730    0.2771   -2.9710 N.ar    1  UNL1       -0.3494
     26 C           8.7905    0.6559   -4.2093 C.ar    1  UNL1        0.0492
     27 C           8.0227    1.8117   -3.9112 C.ar    1  UNL1        0.0051
     28 C           6.9803    2.0348   -4.9187 C.ar    1  UNL1       -0.0309
     29 C           7.0604    1.3035   -6.1733 C.ar    1  UNL1        0.0371
     30 C           8.1463    0.4373   -6.4129 C.ar    1  UNL1       -0.0384
     31 C           8.9871    0.0329   -5.4165 C.ar    1  UNL1       -0.0359
     32 N           6.1850    1.1639   -7.2747 N.am    1  UNL1       -0.2511
     33 C           4.9952    1.5265   -7.7942 C.2     1  UNL1        0.4048
     34 O           4.5936    0.8628   -8.7552 O.2     1  UNL1       -0.2261
     35 O           4.3533    2.5964   -7.2901 O.3     1  UNL1       -0.4469
     36 C           3.0601    2.7766   -7.8870 C.3     1  UNL1        0.1047
     37 C           2.3745    3.9537   -7.2205 C.3     1  UNL1       -0.0156
     38 C           1.1985    4.2479   -8.1362 C.3     1  UNL1       -0.0496
     39 C           1.6800    3.8978   -9.5437 C.3     1  UNL1       -0.0496
     40 C           3.0305    3.2005   -9.3656 C.3     1  UNL1       -0.0156
     41 C           8.3723   -0.4340   -2.0415 C.3     1  UNL1        0.0119
     42 H           1.6186    0.1973   -3.5720 H       1  UNL1        0.0278
     43 H           2.8485    1.4812   -3.5970 H       1  UNL1        0.0278
     44 H           2.6008    0.5413   -2.1405 H       1  UNL1        0.0278
     45 H           0.7523    2.5559   -4.6658 H       1  UNL1        0.0621
     46 H          -0.9203    4.3081   -4.2104 H       1  UNL1        0.0618
     47 H          -1.6103    4.7907   -1.8718 H       1  UNL1        0.0618
     48 H          -0.6374    3.5029   -0.0055 H       1  UNL1        0.0637
     49 H           4.5812    4.9413   -0.6327 H       1  UNL1        0.0624
     50 H           6.9129    4.8334   -1.3939 H       1  UNL1        0.0622
     51 H           5.0434    1.2314    1.4559 H       1  UNL1        0.0660
     52 H           7.0709    0.7318    2.8541 H       1  UNL1        0.0660
     53 H           6.4409   -0.4892    1.6810 H       1  UNL1        0.0660
     54 H           8.1191   -0.5299    2.2062 H       1  UNL1        0.0660
     55 H           9.1179    3.8396   -1.1900 H       1  UNL1        0.0363
     56 H           9.2381    2.2564   -0.5353 H       1  UNL1        0.0363
     57 H          10.7342    1.7738   -3.2830 H       1  UNL1        0.0812
     58 H           6.1688    2.7361   -4.7445 H       1  UNL1        0.0643
     59 H           8.2895   -0.0509   -7.3763 H       1  UNL1        0.0637
     60 H           9.7200   -0.7504   -5.5486 H       1  UNL1        0.0639
     61 H           6.4730    0.4302   -7.9137 H       1  UNL1        0.1582
     62 H           2.4555    1.8683   -7.7435 H       1  UNL1        0.0734
     63 H           2.0726    3.7194   -6.1982 H       1  UNL1        0.0301
     64 H           3.0578    4.8100   -7.1710 H       1  UNL1        0.0301
     65 H           0.8716    5.2882   -8.0582 H       1  UNL1        0.0266
     66 H           0.3476    3.6091   -7.8703 H       1  UNL1        0.0266
     67 H           1.7796    4.7902  -10.1707 H       1  UNL1        0.0266
     68 H           0.9558    3.2366  -10.0352 H       1  UNL1        0.0266
     69 H           3.8551    3.8842   -9.5976 H       1  UNL1        0.0301
     70 H           3.1152    2.3559  -10.0589 H       1  UNL1        0.0301
     71 H           8.9495   -0.7195   -1.1639 H       1  UNL1        0.0456
     72 H           7.5351    0.2106   -1.7448 H       1  UNL1        0.0456
     73 H           7.9501   -1.2901   -2.5665 H       1  UNL1        0.0456
@<TRIPOS>UNITY_ATOM_ATTR
13 1
charge -1
@<TRIPOS>BOND
     1     1     2    1
     2     1    42    1
     3     1    43    1
     4     1    44    1
     5     2     7   ar
     6     2     3   ar
     7     3     4   ar
     8     3    45    1
     9     4     5   ar
    10     4    46    1
    11     5     6   ar
    12     5    47    1
    13     6     7   ar
    14     6    48    1
    15     7     8    1
    16     8     9    2
    17     8    10    2
    18     8    11    1
    19    11    12    2
    20    12    13    1
    21    12    14    1
    22    14    19   ar
    23    14    15   ar
    24    15    16   ar
    25    15    49    1
    26    16    17   ar
    27    16    50    1
    28    17    18   ar
    29    17    22    1
    30    18    19   ar
    31    18    20    1
    32    19    51    1
    33    20    21    1
    34    21    52    1
    35    21    53    1
    36    21    54    1
    37    22    23    1
    38    22    55    1
    39    22    56    1
    40    23    27   ar
    41    23    24   ar
    42    24    25   ar
    43    24    57    1
    44    25    26   ar
    45    25    41    1
    46    26    31   ar
    47    26    27   ar
    48    27    28   ar
    49    28    29   ar
    50    28    58    1
    51    29    30   ar
    52    29    32    1
    53    30    31   ar
    54    30    59    1
    55    31    60    1
    56    32    33   am
    57    32    61    1
    58    33    34    2
    59    33    35    1
    60    35    36    1
    61    36    40    1
    62    36    37    1
    63    36    62    1
    64    37    38    1
    65    37    63    1
    66    37    64    1
    67    38    39    1
    68    38    65    1
    69    38    66    1
    70    39    40    1
    71    39    67    1
    72    39    68    1
    73    40    69    1
    74    40    70    1
    75    41    71    1
    76    41    72    1
    77    41    73    1
