@<TRIPOS>MOLECULE
ZINC00057439
 54 56 0 0 0
SMALL
GASTEIGER

@<TRIPOS>ATOM
      1 C           2.8839   -5.3504    1.6146 C.3     1  UNL1        0.0693
      2 N           2.3762   -4.4202    0.5770 N.pl3   1  UNL1       -0.2274
      3 C           1.2353   -4.9070   -0.2205 C.3     1  UNL1        0.0836
      4 C           0.8278   -4.0434   -1.3920 C.3     1  UNL1        0.0209
      5 C           1.4291   -2.6676   -1.5036 C.3     1  UNL1        0.0876
      6 C           2.9063   -3.2236    0.3924 C.2     1  UNL1        0.2784
      7 C           4.0139   -2.7036    1.2744 C.3     1  UNL1        0.1902
      8 O           4.3368   -1.3605    0.8499 O.3     1  UNL1       -0.4501
      9 C           4.5292   -0.4263    1.8182 C.2     1  UNL1        0.3446
     10 O           4.3623   -0.6512    3.0118 O.2     1  UNL1       -0.2472
     11 C           5.0094    0.9354    1.2283 C.3     1  UNL1        0.1902
     12 C           3.8597    1.8025    0.6932 C.ar    1  UNL1       -0.0051
     13 C           4.1158    3.1479    0.3516 C.ar    1  UNL1       -0.0553
     14 C           3.0997    3.9956   -0.0953 C.ar    1  UNL1       -0.0614
     15 C           1.8008    3.5178   -0.2184 C.ar    1  UNL1       -0.0617
     16 C           1.5193    2.1946    0.1109 C.ar    1  UNL1       -0.0614
     17 C           2.5355    1.3466    0.5675 C.ar    1  UNL1       -0.0553
     18 C           6.1831    0.7621    0.1979 C.3     1  UNL1        0.0026
     19 C           7.3583   -0.0423    0.8037 C.3     1  UNL1       -0.0467
     20 C           8.5155   -0.2158   -0.1758 C.3     1  UNL1       -0.0527
     21 C           8.0496   -0.8244   -1.4912 C.3     1  UNL1       -0.0530
     22 C           6.9549    0.0247   -2.1253 C.3     1  UNL1       -0.0527
     23 C           5.7668    0.1948   -1.1803 C.3     1  UNL1       -0.0467
     24 O           5.5435    1.7027    2.3311 O.3     1  UNL1       -0.3730
     25 H           3.8911   -5.6798    1.3368 H       1  UNL1        0.0689
     26 H           2.2342   -6.2259    1.6906 H       1  UNL1        0.0689
     27 H           2.9024   -4.8505    2.5863 H       1  UNL1        0.0689
     28 H           0.3891   -5.0243    0.4634 H       1  UNL1        0.0727
     29 H           1.4882   -5.9072   -0.5918 H       1  UNL1        0.0727
     30 H           1.0345   -4.5907   -2.3205 H       1  UNL1        0.0340
     31 H          -0.2661   -3.9438   -1.3849 H       1  UNL1        0.0340
     32 H           1.8368   -2.5207   -2.5110 H       1  UNL1        0.0745
     33 H           0.6650   -1.8985   -1.3577 H       1  UNL1        0.0745
     34 H           3.6973   -2.7384    2.3206 H       1  UNL1        0.0824
     35 H           4.9109   -3.3174    1.1413 H       1  UNL1        0.0824
     36 H           5.1157    3.5625    0.4752 H       1  UNL1        0.0621
     37 H           3.3217    5.0363   -0.3218 H       1  UNL1        0.0618
     38 H           1.0063    4.1837   -0.5465 H       1  UNL1        0.0618
     39 H           0.4952    1.8357    0.0393 H       1  UNL1        0.0618
     40 H           2.2450    0.3424    0.8579 H       1  UNL1        0.0621
     41 H           6.5933    1.7643    0.0031 H       1  UNL1        0.0337
     42 H           7.7366    0.4634    1.7002 H       1  UNL1        0.0269
     43 H           7.0200   -1.0350    1.1209 H       1  UNL1        0.0269
     44 H           9.2817   -0.8552    0.2758 H       1  UNL1        0.0265
     45 H           8.9833    0.7585   -0.3654 H       1  UNL1        0.0265
     46 H           7.6743   -1.8408   -1.3139 H       1  UNL1        0.0265
     47 H           8.8972   -0.9107   -2.1789 H       1  UNL1        0.0265
     48 H           6.6177   -0.4478   -3.0550 H       1  UNL1        0.0265
     49 H           7.3572    1.0086   -2.3921 H       1  UNL1        0.0265
     50 H           5.2945   -0.7847   -1.0893 H       1  UNL1        0.0269
     51 H           5.0312    0.8522   -1.6562 H       1  UNL1        0.0269
     52 H           5.9136    1.0841    2.9866 H       1  UNL1        0.2113
     53 N           2.4969   -2.4085   -0.5577 N.2     1  UNL1       -0.2763
     54 H           2.9917   -1.5230   -0.6200 H       1  UNL1        0.3036
@<TRIPOS>BOND
     1     1     2    1
     2     1    25    1
     3     1    26    1
     4     1    27    1
     5     2     6    1
     6     2     3    1
     7     3     4    1
     8     3    28    1
     9     3    29    1
    10     4     5    1
    11     4    30    1
    12     4    31    1
    13     5    32    1
    14     5    33    1
    15     5    53    1
    16     6     7    1
    17     6    53    2
    18     7     8    1
    19     7    34    1
    20     7    35    1
    21     8     9    1
    22     9    10    2
    23    11    18    1
    24    11    24    1
    25    12    17   ar
    26    12    13   ar
    27    13    14   ar
    28    13    36    1
    29    14    15   ar
    30    14    37    1
    31    15    16   ar
    32    15    38    1
    33    16    17   ar
    34    16    39    1
    35    17    40    1
    36    18    23    1
    37    18    19    1
    38    18    41    1
    39    19    20    1
    40    19    42    1
    41    19    43    1
    42    20    21    1
    43    20    44    1
    44    20    45    1
    45    21    22    1
    46    21    46    1
    47    21    47    1
    48    22    23    1
    49    22    48    1
    50    22    49    1
    51    23    50    1
    52    23    51    1
    53    24    52    1
    54    53    54    1
    55    11    12    1
    56    11     9    1
