@<TRIPOS>MOLECULE
ZINC03812908
 54 55 0 0 0
SMALL
GASTEIGER

@<TRIPOS>ATOM
      1 C           7.1395   -6.1720    2.3086 C.3     1  UNL1        0.0332
      2 C           6.2790   -4.9645    2.0939 C.2     1  UNL1        0.3044
      3 O           5.0705   -4.9937    1.9218 O.2     1  UNL1       -0.2512
      4 O           7.0422   -3.8387    2.0995 O.3     1  UNL1       -0.4554
      5 C           6.3043   -2.6182    2.0580 C.3     1  UNL1        0.1680
      6 C           5.6598   -2.2321    0.7187 C.2     1  UNL1        0.2508
      7 O           4.7283   -1.4327    0.6491 O.2     1  UNL1       -0.2721
      8 N           6.2686   -2.7610   -0.4026 N.am    1  UNL1       -0.3124
      9 C           5.7466   -2.4574   -1.7238 C.3     1  UNL1        0.0148
     10 C           6.6812   -2.9362   -2.8262 C.3     1  UNL1       -0.0030
     11 C           6.1403   -2.6752   -4.2320 C.3     1  UNL1        0.0910
     12 O           6.0101   -1.2713   -4.5033 O.3     1  UNL1       -0.4919
     13 C           5.4244   -0.9897   -5.7131 C.ar    1  UNL1        0.1209
     14 C           5.5348   -1.7843   -6.8530 C.ar    1  UNL1       -0.0199
     15 C           4.8194   -1.4683   -8.0082 C.ar    1  UNL1       -0.0579
     16 C           3.9740   -0.3611   -8.0341 C.ar    1  UNL1       -0.0533
     17 C           3.8859    0.4769   -6.9164 C.ar    1  UNL1        0.0005
     18 C           4.6585    0.1759   -5.7742 C.ar    1  UNL1       -0.0117
     19 C           2.9234    1.6335   -6.9073 C.3     1  UNL1       -0.0058
     20 N           1.5521    1.3068   -6.3155 N.4     1  UNL1        0.2385
     21 C           1.6622    0.6827   -4.9394 C.3     1  UNL1       -0.0316
     22 C           0.3022    0.4898   -4.2939 C.3     1  UNL1       -0.0123
     23 C          -0.4699    1.7948   -4.2586 C.3     1  UNL1       -0.0434
     24 C          -0.6660    2.2975   -5.6793 C.3     1  UNL1       -0.0123
     25 C           0.6713    2.5351   -6.3667 C.3     1  UNL1       -0.0316
     26 H           6.5287   -7.0742    2.2133 H       1  UNL1        0.0342
     27 H           7.5733   -6.1458    3.3117 H       1  UNL1        0.0342
     28 H           7.9261   -6.2059    1.5506 H       1  UNL1        0.0342
     29 H           5.5336   -2.6212    2.8388 H       1  UNL1        0.0796
     30 H           7.0083   -1.8161    2.3053 H       1  UNL1        0.0796
     31 H           6.8284   -3.5914   -0.2686 H       1  UNL1        0.1488
     32 H           4.7666   -2.9407   -1.8073 H       1  UNL1        0.0463
     33 H           5.5942   -1.3752   -1.7887 H       1  UNL1        0.0463
     34 H           7.6562   -2.4504   -2.7098 H       1  UNL1        0.0313
     35 H           6.8432   -4.0168   -2.7148 H       1  UNL1        0.0313
     36 H           6.8556   -3.1199   -4.9317 H       1  UNL1        0.0697
     37 H           5.1644   -3.1647   -4.3456 H       1  UNL1        0.0697
     38 H           6.1815   -2.6555   -6.8802 H       1  UNL1        0.0654
     39 H           4.9179   -2.1015   -8.8879 H       1  UNL1        0.0619
     40 H           3.4060   -0.1610   -8.9410 H       1  UNL1        0.0622
     41 H           4.6297    0.8208   -4.8969 H       1  UNL1        0.0659
     42 H           3.3336    2.4725   -6.3329 H       1  UNL1        0.0867
     43 H           2.7421    1.9857   -7.9300 H       1  UNL1        0.0867
     44 H           2.2953    1.3385   -4.3333 H       1  UNL1        0.0814
     45 H           2.1295   -0.2995   -5.0574 H       1  UNL1        0.0814
     46 H           0.4387    0.1094   -3.2751 H       1  UNL1        0.0317
     47 H          -0.2692   -0.2685   -4.8434 H       1  UNL1        0.0317
     48 H          -1.4374    1.6469   -3.7684 H       1  UNL1        0.0269
     49 H           0.0821    2.5392   -3.6704 H       1  UNL1        0.0269
     50 H          -1.2583    1.5708   -6.2499 H       1  UNL1        0.0317
     51 H          -1.2381    3.2315   -5.6621 H       1  UNL1        0.0317
     52 H           0.5173    2.7761   -7.4241 H       1  UNL1        0.0814
     53 H           1.2168    3.3517   -5.8837 H       1  UNL1        0.0814
     54 H           1.1336    0.5883   -6.9278 H       1  UNL1        0.2037
@<TRIPOS>UNITY_ATOM_ATTR
20 1
charge 1
@<TRIPOS>BOND
     1     1     2    1
     2     1    26    1
     3     1    27    1
     4     1    28    1
     5     2     3    2
     6     2     4    1
     7     4     5    1
     8     5     6    1
     9     5    29    1
    10     5    30    1
    11     6     7    2
    12     6     8   am
    13     8     9    1
    14     8    31    1
    15     9    10    1
    16     9    32    1
    17     9    33    1
    18    10    11    1
    19    10    34    1
    20    10    35    1
    21    11    12    1
    22    11    36    1
    23    11    37    1
    24    12    13    1
    25    13    18   ar
    26    13    14   ar
    27    14    15   ar
    28    14    38    1
    29    15    16   ar
    30    15    39    1
    31    16    17   ar
    32    16    40    1
    33    17    18   ar
    34    17    19    1
    35    18    41    1
    36    19    20    1
    37    19    42    1
    38    19    43    1
    39    20    25    1
    40    20    21    1
    41    20    54    1
    42    21    22    1
    43    21    44    1
    44    21    45    1
    45    22    23    1
    46    22    46    1
    47    22    47    1
    48    23    24    1
    49    23    48    1
    50    23    49    1
    51    24    25    1
    52    24    50    1
    53    24    51    1
    54    25    52    1
    55    25    53    1
