@<TRIPOS>MOLECULE
ZINC01530568
 52 53 0 0 0
SMALL
GASTEIGER

@<TRIPOS>ATOM
      1 C           4.5302   -4.0274   -1.2275 C.3     1  UNL1       -0.0219
      2 C           4.3414   -4.8094   -2.5190 C.3     1  UNL1       -0.0283
      3 C           5.1175   -6.1232   -2.4790 C.3     1  UNL1       -0.0219
      4 N           2.9039   -5.1475   -2.7218 N.4     1  UNL1        0.2307
      5 C           1.9095   -4.0240   -2.9046 C.3     1  UNL1       -0.0035
      6 C           0.5401   -4.6887   -3.1065 C.3     1  UNL1        0.1285
      7 H           0.5799   -5.3304   -3.9954 H       1  UNL1        0.0681
      8 C          -0.5986   -3.6869   -3.3026 C.3     1  UNL1        0.1204
      9 O          -0.7026   -2.8269   -2.1653 O.3     1  UNL1       -0.4892
     10 C          -1.3199   -1.6303   -2.4389 C.ar    1  UNL1        0.1206
     11 C          -2.2570   -1.4367   -3.4582 C.ar    1  UNL1       -0.0197
     12 C          -2.7043   -0.1502   -3.7701 C.ar    1  UNL1       -0.0550
     13 C          -2.2543    0.9574   -3.0429 C.ar    1  UNL1       -0.0450
     14 C          -1.3915    0.7390   -1.9589 C.ar    1  UNL1       -0.0550
     15 C          -0.9354   -0.5476   -1.6524 C.ar    1  UNL1       -0.0197
     16 C          -2.5894    2.3725   -3.4670 C.3     1  UNL1       -0.0041
     17 C          -4.0713    2.6869   -3.6726 C.3     1  UNL1        0.0516
     18 O          -4.7712    2.6442   -2.4294 O.3     1  UNL1       -0.3792
     19 C          -6.1613    2.9046   -2.6211 C.3     1  UNL1        0.0505
     20 C          -6.8592    2.8353   -1.3021 C.3     1  UNL1       -0.0175
     21 C          -8.1656    2.0898   -1.1795 C.3     1  UNL1       -0.0478
     22 C          -6.9279    1.5464   -0.5224 C.3     1  UNL1       -0.0478
     23 O           0.3362   -5.5655   -1.9857 O.3     1  UNL1       -0.3831
     24 H           4.1067   -4.5593   -0.3684 H       1  UNL1        0.0284
     25 H           4.0591   -3.0414   -1.2861 H       1  UNL1        0.0284
     26 H           5.5955   -3.8631   -1.0300 H       1  UNL1        0.0284
     27 H           4.6577   -4.2158   -3.3840 H       1  UNL1        0.0845
     28 H           4.7799   -6.7635   -1.6568 H       1  UNL1        0.0284
     29 H           4.9925   -6.6832   -3.4138 H       1  UNL1        0.0284
     30 H           6.1895   -5.9403   -2.3451 H       1  UNL1        0.0284
     31 H           2.8232   -5.7796   -3.5322 H       1  UNL1        0.2017
     32 H           1.9324   -3.4351   -1.9840 H       1  UNL1        0.0841
     33 H           2.2263   -3.4273   -3.7641 H       1  UNL1        0.0841
     34 H          -0.3860   -3.1149   -4.2152 H       1  UNL1        0.0725
     35 H          -1.5430   -4.2324   -3.4117 H       1  UNL1        0.0725
     36 H          -2.6444   -2.2634   -4.0435 H       1  UNL1        0.0654
     37 H          -3.3901   -0.0225   -4.6053 H       1  UNL1        0.0621
     38 H          -1.0500    1.5779   -1.3553 H       1  UNL1        0.0621
     39 H          -0.2539   -0.6864   -0.8175 H       1  UNL1        0.0654
     40 H          -2.1817    3.0769   -2.7313 H       1  UNL1        0.0335
     41 H          -2.0583    2.5569   -4.4093 H       1  UNL1        0.0335
     42 H          -4.1552    3.7013   -4.0810 H       1  UNL1        0.0563
     43 H          -4.5302    1.9935   -4.3862 H       1  UNL1        0.0563
     44 H          -6.2908    3.9061   -3.0474 H       1  UNL1        0.0562
     45 H          -6.5753    2.1704   -3.3225 H       1  UNL1        0.0562
     46 H          -6.7322    3.7493   -0.7333 H       1  UNL1        0.0323
     47 H          -8.9353    2.5149   -0.5459 H       1  UNL1        0.0269
     48 H          -8.5503    1.5541   -2.0405 H       1  UNL1        0.0269
     49 H          -6.4567    0.6677   -0.9471 H       1  UNL1        0.0269
     50 H          -6.8588    1.6084    0.5581 H       1  UNL1        0.0269
     51 H          -0.5009   -5.3080   -1.5450 H       1  UNL1        0.2102
     52 H           2.5337   -5.7113   -1.9326 H       1  UNL1        0.2017
@<TRIPOS>UNITY_ATOM_ATTR
4 1
charge 1
@<TRIPOS>BOND
     1     1     2    1
     2     1    24    1
     3     1    25    1
     4     1    26    1
     5     2     3    1
     6     2     4    1
     7     2    27    1
     8     3    28    1
     9     3    29    1
    10     3    30    1
    11     4     5    1
    12     4    31    1
    13     4    52    1
    14     5    32    1
    15     5    33    1
    16     6     8    1
    17     6    23    1
    18     8     9    1
    19     8    34    1
    20     8    35    1
    21     9    10    1
    22    10    15   ar
    23    10    11   ar
    24    11    12   ar
    25    11    36    1
    26    12    13   ar
    27    12    37    1
    28    13    14   ar
    29    13    16    1
    30    14    15   ar
    31    14    38    1
    32    15    39    1
    33    16    17    1
    34    16    40    1
    35    16    41    1
    36    17    18    1
    37    17    42    1
    38    17    43    1
    39    18    19    1
    40    19    20    1
    41    19    44    1
    42    19    45    1
    43    20    22    1
    44    20    21    1
    45    20    46    1
    46    21    22    1
    47    21    47    1
    48    21    48    1
    49    22    49    1
    50    22    50    1
    51    23    51    1
    52     6     7    1
    53     6     5    1
