@<TRIPOS>MOLECULE
ZINC00896849
 49 51 0 0 0
SMALL
GASTEIGER

@<TRIPOS>ATOM
      1 C          -1.0045   -0.9276    0.4699 C.3     1  UNL1       -0.0582
      2 C           0.4612   -0.7928    0.8413 C.3     1  UNL1        0.0076
      3 C           1.0619   -2.0762    1.3976 C.2     1  UNL1        0.1630
      4 O           0.4225   -3.1219    1.5163 O.2     1  UNL1       -0.2921
      5 C           2.5058   -2.0810    1.7804 C.ar    1  UNL1        0.0192
      6 C           3.3231   -0.9641    1.5985 C.ar    1  UNL1       -0.0501
      7 C           4.6606   -1.0131    1.9842 C.ar    1  UNL1       -0.0455
      8 C           5.1938   -2.1749    2.5605 C.ar    1  UNL1        0.0341
      9 C           4.3960   -3.3240    2.7370 C.ar    1  UNL1        0.0487
     10 C           3.0493   -3.2506    2.3436 C.ar    1  UNL1       -0.0288
     11 N           4.9226   -4.4788    3.3720 N.pl3   1  UNL1       -0.2929
     12 C           5.9649   -4.4162    4.3327 C.ar    1  UNL1        0.0480
     13 C           6.0169   -5.3176    5.4128 C.ar    1  UNL1       -0.0393
     14 C           7.0002   -5.2146    6.4010 C.ar    1  UNL1       -0.0599
     15 C           7.9577   -4.2081    6.3323 C.ar    1  UNL1       -0.0606
     16 C           7.9182   -3.2909    5.2867 C.ar    1  UNL1       -0.0462
     17 C           6.9209   -3.3777    4.3040 C.ar    1  UNL1        0.0341
     18 S           6.9191   -2.1425    3.0161 S.3     1  UNL1       -0.0857
     19 C           4.5376   -5.8148    2.8662 C.3     1  UNL1        0.0599
     20 C           4.9206   -6.0339    1.3671 C.3     1  UNL1       -0.0078
     21 H           4.4173   -5.2867    0.7416 H       1  UNL1        0.0864
     22 C           6.4232   -5.9166    1.1007 C.3     1  UNL1       -0.0201
     23 N           4.4355   -7.3944    0.8044 N.4     1  UNL1        0.2340
     24 C           5.0245   -8.6262    1.4442 C.3     1  UNL1       -0.0430
     25 C           2.9330   -7.4940    0.6940 C.3     1  UNL1       -0.0430
     26 H          -1.1899   -1.8260   -0.1279 H       1  UNL1        0.0234
     27 H          -1.3265   -0.0588   -0.1121 H       1  UNL1        0.0234
     28 H          -1.6292   -0.9836    1.3682 H       1  UNL1        0.0234
     29 H           1.0200   -0.5224   -0.0615 H       1  UNL1        0.0342
     30 H           0.5684    0.0058    1.5835 H       1  UNL1        0.0342
     31 H           2.9497   -0.0385    1.1730 H       1  UNL1        0.0625
     32 H           5.2845   -0.1302    1.8440 H       1  UNL1        0.0629
     33 H           2.3802   -4.0896    2.5292 H       1  UNL1        0.0643
     34 H           5.2488   -6.0746    5.5448 H       1  UNL1        0.0636
     35 H           7.0026   -5.9053    7.2416 H       1  UNL1        0.0618
     36 H           8.7154   -4.1195    7.1065 H       1  UNL1        0.0618
     37 H           8.6599   -2.4958    5.2553 H       1  UNL1        0.0629
     38 H           5.0194   -6.6117    3.4424 H       1  UNL1        0.0524
     39 H           3.4630   -5.9640    3.0100 H       1  UNL1        0.0524
     40 H           7.0039   -6.6030    1.7239 H       1  UNL1        0.0285
     41 H           6.6535   -6.1275    0.0513 H       1  UNL1        0.0285
     42 H           6.7811   -4.9046    1.3082 H       1  UNL1        0.0285
     43 H           4.7726   -8.6316    2.5046 H       1  UNL1        0.0777
     44 H           4.5957   -9.5017    0.9478 H       1  UNL1        0.0777
     45 H           6.1019   -8.6185    1.2868 H       1  UNL1        0.0777
     46 H           2.5555   -6.5624    0.2639 H       1  UNL1        0.0777
     47 H           2.7080   -8.3322    0.0288 H       1  UNL1        0.0777
     48 H           2.5202   -7.6703    1.6918 H       1  UNL1        0.0777
     49 H           4.7661   -7.4074   -0.1701 H       1  UNL1        0.2031
@<TRIPOS>UNITY_ATOM_ATTR
23 1
charge 1
@<TRIPOS>BOND
     1     1     2    1
     2     1    26    1
     3     1    27    1
     4     1    28    1
     5     2     3    1
     6     2    29    1
     7     2    30    1
     8     3     4    2
     9     3     5    1
    10     5    10   ar
    11     5     6   ar
    12     6     7   ar
    13     6    31    1
    14     7     8   ar
    15     7    32    1
    16     8    18    1
    17     8     9   ar
    18     9    10   ar
    19     9    11    1
    20    10    33    1
    21    11    12    1
    22    11    19    1
    23    12    17   ar
    24    12    13   ar
    25    13    14   ar
    26    13    34    1
    27    14    15   ar
    28    14    35    1
    29    15    16   ar
    30    15    36    1
    31    16    17   ar
    32    16    37    1
    33    17    18    1
    34    19    20    1
    35    19    38    1
    36    19    39    1
    37    20    21    1
    38    20    22    1
    39    20    23    1
    40    22    40    1
    41    22    41    1
    42    22    42    1
    43    23    24    1
    44    23    25    1
    45    23    49    1
    46    24    43    1
    47    24    44    1
    48    24    45    1
    49    25    46    1
    50    25    47    1
    51    25    48    1
