@<TRIPOS>MOLECULE
ZINC00057198
 46 48 0 0 0
SMALL
GASTEIGER

@<TRIPOS>ATOM
      1 C           1.4603   -0.1477    0.5363 C.3     1  UNL1       -0.0014
      2 C           0.4826   -1.1986    0.0801 C.2     1  UNL1        0.1602
      3 O          -0.6973   -1.1698    0.4254 O.2     1  UNL1       -0.2924
      4 C           0.9572   -2.2966   -0.8196 C.ar    1  UNL1        0.0189
      5 C           2.2687   -2.3658   -1.2899 C.ar    1  UNL1       -0.0501
      6 C           2.6750   -3.4601   -2.0573 C.ar    1  UNL1       -0.0455
      7 C           1.7841   -4.4996   -2.3404 C.ar    1  UNL1        0.0341
      8 C           0.4415   -4.4259   -1.9091 C.ar    1  UNL1        0.0485
      9 C           0.0461   -3.3111   -1.1525 C.ar    1  UNL1       -0.0288
     10 N          -0.4446   -5.5039   -2.1263 N.pl3   1  UNL1       -0.2981
     11 C          -0.0005   -6.8413   -2.1241 C.ar    1  UNL1        0.0479
     12 C          -0.7645   -7.8476   -1.5123 C.ar    1  UNL1       -0.0393
     13 C          -0.2942   -9.1593   -1.4398 C.ar    1  UNL1       -0.0599
     14 C           0.9321   -9.4928   -2.0078 C.ar    1  UNL1       -0.0606
     15 C           1.7169   -8.5043   -2.6011 C.ar    1  UNL1       -0.0462
     16 C           1.2771   -7.1767   -2.6217 C.ar    1  UNL1        0.0341
     17 S           2.3701   -5.9158   -3.2725 S.3     1  UNL1       -0.0857
     18 C          -1.7981   -5.2140   -2.6244 C.3     1  UNL1        0.0221
     19 C          -1.7813   -4.5889   -4.0310 C.3     1  UNL1        0.0036
     20 C          -1.1324   -5.4114   -5.1457 C.3     1  UNL1       -0.0309
     21 N          -1.7673   -6.7675   -5.3710 N.4     1  UNL1        0.2309
     22 C          -3.2092   -6.7071   -5.7915 C.3     1  UNL1       -0.0433
     23 C          -0.9666   -7.5805   -6.3622 C.3     1  UNL1       -0.0433
     24 H           0.9779    0.4926    1.2823 H       1  UNL1        0.0309
     25 H           1.7604    0.4736   -0.3109 H       1  UNL1        0.0309
     26 H           2.3305   -0.6093    1.0101 H       1  UNL1        0.0309
     27 H           3.0012   -1.5977   -1.0561 H       1  UNL1        0.0625
     28 H           3.7117   -3.5138   -2.3974 H       1  UNL1        0.0629
     29 H          -0.9598   -3.2638   -0.7409 H       1  UNL1        0.0643
     30 H          -1.6883   -7.5966   -0.9955 H       1  UNL1        0.0636
     31 H          -0.8656   -9.9131   -0.9009 H       1  UNL1        0.0618
     32 H           1.3024  -10.5137   -1.9426 H       1  UNL1        0.0618
     33 H           2.6925   -8.7702   -3.0027 H       1  UNL1        0.0629
     34 H          -2.4209   -6.1151   -2.6542 H       1  UNL1        0.0470
     35 H          -2.3191   -4.5352   -1.9403 H       1  UNL1        0.0470
     36 H          -2.8107   -4.3397   -4.3131 H       1  UNL1        0.0332
     37 H          -1.2556   -3.6263   -3.9895 H       1  UNL1        0.0332
     38 H          -1.1968   -4.8719   -6.0988 H       1  UNL1        0.0815
     39 H          -0.0753   -5.5865   -4.9380 H       1  UNL1        0.0815
     40 H          -3.2779   -6.1328   -6.7203 H       1  UNL1        0.0777
     41 H          -3.5645   -7.7302   -5.9407 H       1  UNL1        0.0777
     42 H          -3.7867   -6.2369   -4.9941 H       1  UNL1        0.0777
     43 H           0.0712   -7.6179   -6.0231 H       1  UNL1        0.0777
     44 H          -1.3861   -8.5904   -6.3855 H       1  UNL1        0.0777
     45 H          -1.0430   -7.1053   -7.3449 H       1  UNL1        0.0777
     46 H          -1.7060   -7.2876   -4.4838 H       1  UNL1        0.2028
@<TRIPOS>UNITY_ATOM_ATTR
21 1
charge 1
@<TRIPOS>BOND
     1     1     2    1
     2     1    24    1
     3     1    25    1
     4     1    26    1
     5     2     3    2
     6     2     4    1
     7     4     9   ar
     8     4     5   ar
     9     5     6   ar
    10     5    27    1
    11     6     7   ar
    12     6    28    1
    13     7    17    1
    14     7     8   ar
    15     8     9   ar
    16     8    10    1
    17     9    29    1
    18    10    11    1
    19    10    18    1
    20    11    16   ar
    21    11    12   ar
    22    12    13   ar
    23    12    30    1
    24    13    14   ar
    25    13    31    1
    26    14    15   ar
    27    14    32    1
    28    15    16   ar
    29    15    33    1
    30    16    17    1
    31    18    19    1
    32    18    34    1
    33    18    35    1
    34    19    20    1
    35    19    36    1
    36    19    37    1
    37    20    21    1
    38    20    38    1
    39    20    39    1
    40    21    22    1
    41    21    23    1
    42    21    46    1
    43    22    40    1
    44    22    41    1
    45    22    42    1
    46    23    43    1
    47    23    44    1
    48    23    45    1
