@<TRIPOS>MOLECULE
ZINC01482113
 18 17 0 0 0
SMALL
GASTEIGER

@<TRIPOS>ATOM
      1 CB          0.9380    0.0374   -0.1330 C.3     1  GLU1        0.0111
      2 CG          0.6027   -0.2029   -1.6139 C.3     1  GLU1        0.0548
      3 CD         -0.9067   -0.1966   -1.7865 C.2     1  GLU1        0.3562
      4 OE1        -1.4683    0.9259   -1.7536 O.co2   1  GLU1       -0.2464
      5 OE2        -1.4370   -1.3494   -1.6854 O.co2   1  GLU1       -0.2464
      6 CA          0.4487   -1.0438    0.8408 C.3     1  GLU1        0.0790
      7 HA          0.8591   -2.0199    0.5505 H       1  GLU1        0.0970
      8 C           0.8669   -0.8179    2.3317 C.2     1  GLU1        0.4026
      9 O           1.9929   -0.3130    2.5570 O.co2   1  GLU1       -0.2400
     10 OXT        -0.0521   -1.1972    3.1304 O.co2   1  GLU1       -0.2400
     11 N          -1.0457   -1.2053    0.7510 N.4     1  GLU1        0.2289
     12 HB1         0.5455    1.0131    0.1817 H       1  GLU1        0.0331
     13 HB2         2.0298    0.1135   -0.0532 H       1  GLU1        0.0331
     14 HG1         1.0424    0.5857   -2.2326 H       1  GLU1        0.0381
     15 HG2         1.0221   -1.1592   -1.9516 H       1  GLU1        0.0381
     16 H1         -1.5043   -0.2870    0.7632 H       1  GLU1        0.2002
     17 H2         -1.3556   -1.6639   -0.1354 H       1  GLU1        0.2002
     18 H3         -1.3348   -1.7031    1.6041 H       1  GLU1        0.2002
@<TRIPOS>UNITY_ATOM_ATTR
11 1
charge 1
@<TRIPOS>BOND
     1     1     2    1
     2     1     6    1
     3     1    12    1
     4     1    13    1
     5     2     3    1
     6     2    14    1
     7     2    15    1
     8     3     4   ar
     9     3     5   ar
    10     6     7    1
    11     6     8    1
    12     6    11    1
    13     8     9   ar
    14     8    10   ar
    15    11    16    1
    16    11    17    1
    17    11    18    1
