@<TRIPOS>MOLECULE
ZINC01530968
 27 28 0 0 0
SMALL
GASTEIGER

@<TRIPOS>ATOM
      1 C           0.3704   -1.2235    0.0191 C.ar    1  UNL1       -0.0200
      2 C           1.3969   -0.4048   -0.4218 C.ar    1  UNL1        0.0840
      3 C           1.2399    0.9880   -0.4187 C.ar    1  UNL1        0.1400
      4 C           0.0682    1.6151    0.0497 C.ar    1  UNL1        0.0196
      5 C          -0.9936    0.7611    0.4354 C.ar    1  UNL1        0.0663
      6 C          -0.8279   -0.6440    0.4278 C.ar    1  UNL1        0.0611
      7 CL         -2.0849   -1.7373    0.9117 Cl      1  UNL1       -0.0820
      8 CL         -2.5535    1.3998    0.8446 Cl      1  UNL1       -0.0816
      9 C          -0.0064    3.1467    0.1248 C.3     1  UNL1        0.0075
     10 C           0.5151    3.7462    1.4317 C.ar    1  UNL1        0.0196
     11 C          -0.3589    3.9424    2.5179 C.ar    1  UNL1        0.1400
     12 C           0.1066    4.3052    3.7892 C.ar    1  UNL1        0.0840
     13 C           1.4604    4.5010    4.0083 C.ar    1  UNL1       -0.0200
     14 C           2.3385    4.4221    2.9299 C.ar    1  UNL1        0.0611
     15 C           1.8703    4.0954    1.6389 C.ar    1  UNL1        0.0663
     16 CL          2.9565    4.2932    0.2988 Cl      1  UNL1       -0.0816
     17 CL          4.0089    4.7416    3.2636 Cl      1  UNL1       -0.0820
     18 CL         -0.9965    4.5193    5.0983 Cl      1  UNL1       -0.0797
     19 O          -1.7069    3.8359    2.3052 O.3     1  UNL1       -0.5050
     20 O           2.2411    1.7642   -0.9354 O.3     1  UNL1       -0.5050
     21 CL          2.8621   -1.1217   -0.9819 Cl      1  UNL1       -0.0797
     22 H           0.4882   -2.3032    0.0111 H       1  UNL1        0.0648
     23 H           0.5244    3.5792   -0.7313 H       1  UNL1        0.0365
     24 H          -1.0348    3.4809   -0.0543 H       1  UNL1        0.0365
     25 H           1.8264    4.7550    4.9993 H       1  UNL1        0.0648
     26 H          -2.1706    4.0247    3.1432 H       1  UNL1        0.2922
     27 H           2.9885    1.1884   -1.1865 H       1  UNL1        0.2922
@<TRIPOS>BOND
     1     1     6   ar
     2     1     2   ar
     3     1    22    1
     4     2     3   ar
     5     2    21    1
     6     3     4   ar
     7     3    20    1
     8     4     5   ar
     9     4     9    1
    10     5     6   ar
    11     5     8    1
    12     6     7    1
    13     9    10    1
    14     9    23    1
    15     9    24    1
    16    10    15   ar
    17    10    11   ar
    18    11    12   ar
    19    11    19    1
    20    12    13   ar
    21    12    18    1
    22    13    14   ar
    23    13    25    1
    24    14    15   ar
    25    14    17    1
    26    15    16    1
    27    19    26    1
    28    20    27    1
