@<TRIPOS>MOLECULE
ZINC01532734
 44 43 0 0 0
SMALL
GASTEIGER

@<TRIPOS>ATOM
      1 C           1.1379   -0.1368   -0.0055 C.3     1  UNL1       -0.0078
      2 C           0.6702    1.3277    0.0232 C.3     1  UNL1       -0.0078
      3 C          -0.8390    1.5854    0.0307 C.3     1  UNL1       -0.0335
      4 N          -1.5485    1.0418    1.2338 N.4     1  UNL1        0.2271
      5 C          -1.1581    1.5110    2.6125 C.3     1  UNL1       -0.0288
      6 C          -1.3699    3.0196    2.7960 C.3     1  UNL1        0.0275
      7 C          -1.0295    3.4671    4.2263 C.3     1  UNL1       -0.0305
      8 N          -1.2448    4.9239    4.3896 N.4     1  UNL1        0.2187
      9 C           0.7945   -0.9543   -1.2563 C.3     1  UNL1       -0.0335
     10 N           1.4009   -0.4196   -2.5178 N.4     1  UNL1        0.2271
     11 C           2.8998   -0.3192   -2.6460 C.3     1  UNL1       -0.0288
     12 C           3.5835   -1.6894   -2.5440 C.3     1  UNL1        0.0275
     13 C           5.1000   -1.5742   -2.7425 C.3     1  UNL1       -0.0305
     14 N           5.7451   -2.9071   -2.6526 N.4     1  UNL1        0.2187
     15 H           0.7243   -0.6543    0.8686 H       1  UNL1        0.0319
     16 H           2.2256   -0.1510    0.1390 H       1  UNL1        0.0319
     17 H           1.1183    1.8084    0.9054 H       1  UNL1        0.0319
     18 H           1.1057    1.8502   -0.8370 H       1  UNL1        0.0319
     19 H          -1.0463    2.6586   -0.0073 H       1  UNL1        0.0814
     20 H          -1.3125    1.1226   -0.8407 H       1  UNL1        0.0814
     21 H          -2.5585    1.2421    1.1075 H       1  UNL1        0.2013
     22 H          -1.7934    0.9442    3.3025 H       1  UNL1        0.0816
     23 H          -0.1183    1.2140    2.7768 H       1  UNL1        0.0816
     24 H          -0.7397    3.5720    2.0890 H       1  UNL1        0.0369
     25 H          -2.4121    3.2731    2.5677 H       1  UNL1        0.0369
     26 H          -1.6599    2.9640    4.9627 H       1  UNL1        0.0815
     27 H           0.0251    3.2730    4.4559 H       1  UNL1        0.0815
     28 H          -2.2280    5.2160    4.2760 H       1  UNL1        0.1994
     29 H          -0.9980    5.2224    5.3512 H       1  UNL1        0.1994
     30 H           1.1356   -1.9885   -1.1470 H       1  UNL1        0.0814
     31 H          -0.2871   -0.9743   -1.4189 H       1  UNL1        0.0814
     32 H           1.0581   -1.0110   -3.2967 H       1  UNL1        0.2013
     33 H           3.0788    0.1295   -3.6293 H       1  UNL1        0.0816
     34 H           3.2480    0.3777   -1.8788 H       1  UNL1        0.0816
     35 H           3.3838   -2.1327   -1.5616 H       1  UNL1        0.0369
     36 H           3.1599   -2.3654   -3.2966 H       1  UNL1        0.0369
     37 H           5.3457   -1.1675   -3.7273 H       1  UNL1        0.0815
     38 H           5.5532   -0.9499   -1.9658 H       1  UNL1        0.0815
     39 H           5.4355   -3.5729   -3.3786 H       1  UNL1        0.1994
     40 H           6.7686   -2.8275   -2.7932 H       1  UNL1        0.1994
     41 H          -0.6737    5.5200    3.7714 H       1  UNL1        0.1994
     42 H           1.0015    0.5037   -2.7521 H       1  UNL1        0.2013
     43 H          -1.5283    0.0099    1.2341 H       1  UNL1        0.2013
     44 H           5.6378   -3.3768   -1.7409 H       1  UNL1        0.1994
@<TRIPOS>UNITY_ATOM_ATTR
4 1
charge 1
8 1
charge 1
10 1
charge 1
14 1
charge 1
@<TRIPOS>BOND
     1     1     2    1
     2     1     9    1
     3     1    15    1
     4     1    16    1
     5     2     3    1
     6     2    17    1
     7     2    18    1
     8     3     4    1
     9     3    19    1
    10     3    20    1
    11     4     5    1
    12     4    21    1
    13     4    43    1
    14     5     6    1
    15     5    22    1
    16     5    23    1
    17     6     7    1
    18     6    24    1
    19     6    25    1
    20     7     8    1
    21     7    26    1
    22     7    27    1
    23     8    28    1
    24     8    29    1
    25     8    41    1
    26     9    10    1
    27     9    30    1
    28     9    31    1
    29    10    11    1
    30    10    32    1
    31    10    42    1
    32    11    12    1
    33    11    33    1
    34    11    34    1
    35    12    13    1
    36    12    35    1
    37    12    36    1
    38    13    14    1
    39    13    37    1
    40    13    38    1
    41    14    39    1
    42    14    40    1
    43    14    44    1
