@<TRIPOS>MOLECULE
ZINC01530788
 48 51 0 0 0
SMALL
GASTEIGER

@<TRIPOS>ATOM
      1 C           2.6146    7.0807   -0.4766 C.ar    1  UNL1       -0.0548
      2 C           2.2641    7.3366    0.8511 C.ar    1  UNL1       -0.0184
      3 C           1.1919    6.6487    1.4132 C.ar    1  UNL1        0.1431
      4 C           0.4517    5.7689    0.6237 C.ar    1  UNL1        0.1055
      5 C           0.9242    5.3256   -0.6161 C.ar    1  UNL1        0.1350
      6 C           1.9864    6.0395   -1.1812 C.ar    1  UNL1       -0.0190
      7 O           0.4160    4.3147   -1.3890 O.3     1  UNL1       -0.4885
      8 C          -0.1803    3.1688   -0.7359 C.3     1  UNL1        0.1186
      9 C          -1.4030    2.6894   -1.5534 C.3     1  UNL1        0.1229
     10 C          -2.1638    1.5378   -0.8784 C.3     1  UNL1        0.1186
     11 O          -1.3689    0.3506   -0.8801 O.3     1  UNL1       -0.4885
     12 C          -1.2810   -0.3786    0.2738 C.ar    1  UNL1        0.1350
     13 C          -1.1901    0.2415    1.5284 C.ar    1  UNL1       -0.0190
     14 C          -1.0378   -0.5155    2.6935 C.ar    1  UNL1       -0.0548
     15 C          -0.9468   -1.8947    2.6127 C.ar    1  UNL1       -0.0184
     16 C          -1.0359   -2.5340    1.3676 C.ar    1  UNL1        0.1431
     17 C          -1.1810   -1.7838    0.1946 C.ar    1  UNL1        0.1055
     18 C          -1.2144   -2.5363   -1.0846 C.ar    1  UNL1        0.1968
     19 O          -1.2118   -2.0082   -2.1893 O.2     1  UNL1       -0.2869
     20 C          -1.2482   -4.0071   -0.9800 C.ar    1  UNL1        0.0355
     21 C          -1.1270   -4.5927    0.2176 C.ar    1  UNL1        0.2197
     22 O          -0.9560   -3.9021    1.4002 O.2     1  UNL1       -0.4477
     23 C          -1.1522   -6.1442    0.3158 C.2     1  UNL1        0.4211
     24 O          -1.6727   -6.7482   -0.6691 O.co2   1  UNL1       -0.2371
     25 O          -0.6541   -6.6328    1.3711 O.co2   1  UNL1       -0.2371
     26 O          -2.3392    3.7506   -1.7971 O.3     1  UNL1       -0.3850
     27 C          -0.9447    5.5693    1.0418 C.ar    1  UNL1        0.1968
     28 O          -1.8549    5.3339    0.2599 O.2     1  UNL1       -0.2869
     29 C          -1.2047    5.6871    2.4708 C.ar    1  UNL1        0.0355
     30 C          -0.2860    6.2807    3.2343 C.ar    1  UNL1        0.2197
     31 O           0.8631    6.9029    2.7319 O.2     1  UNL1       -0.4477
     32 C          -0.5603    6.3040    4.7531 C.2     1  UNL1        0.4211
     33 O           0.1606    7.1142    5.4076 O.co2   1  UNL1       -0.2371
     34 O          -1.4711    5.5255    5.1711 O.co2   1  UNL1       -0.2371
     35 H           3.3808    7.6830   -0.9595 H       1  UNL1        0.0620
     36 H           2.7783    8.1039    1.4247 H       1  UNL1        0.0654
     37 H           2.3088    5.8150   -2.1946 H       1  UNL1        0.0654
     38 H           0.5727    2.3723   -0.6907 H       1  UNL1        0.0724
     39 H          -0.4710    3.3540    0.2995 H       1  UNL1        0.0724
     40 H          -1.0395    2.3607   -2.5333 H       1  UNL1        0.0661
     41 H          -2.5388    1.8479    0.1045 H       1  UNL1        0.0724
     42 H          -3.0705    1.3291   -1.4625 H       1  UNL1        0.0724
     43 H          -1.2063    1.3239    1.6298 H       1  UNL1        0.0654
     44 H          -0.9509   -0.0106    3.6554 H       1  UNL1        0.0620
     45 H          -0.8250   -2.4902    3.5141 H       1  UNL1        0.0654
     46 H          -1.3715   -4.5740   -1.8966 H       1  UNL1        0.0695
     47 H          -2.3896    4.2961   -0.9796 H       1  UNL1        0.2101
     48 H          -2.1330    5.2821    2.8492 H       1  UNL1        0.0695
@<TRIPOS>BOND
     1     1     6   ar
     2     1     2   ar
     3     1    35    1
     4     2     3   ar
     5     2    36    1
     6     3    31   ar
     7     3     4   ar
     8     4     5   ar
     9     4    27   ar
    10     5     6   ar
    11     5     7    1
    12     6    37    1
    13     7     8    1
    14     8     9    1
    15     8    38    1
    16     8    39    1
    17     9    10    1
    18     9    26    1
    19     9    40    1
    20    10    11    1
    21    10    41    1
    22    10    42    1
    23    11    12    1
    24    12    17   ar
    25    12    13   ar
    26    13    14   ar
    27    13    43    1
    28    14    15   ar
    29    14    44    1
    30    15    16   ar
    31    15    45    1
    32    16    22   ar
    33    16    17   ar
    34    17    18   ar
    35    18    19    2
    36    18    20   ar
    37    20    21   ar
    38    20    46    1
    39    21    22   ar
    40    21    23    1
    41    23    24   ar
    42    23    25   ar
    43    26    47    1
    44    27    28    2
    45    27    29   ar
    46    29    30   ar
    47    29    48    1
    48    30    31   ar
    49    30    32    1
    50    32    33   ar
    51    32    34   ar
