@<TRIPOS>MOLECULE
ZINC03581355
 22 21 0 0 0
SMALL
GASTEIGER

@<TRIPOS>ATOM
      1 CD1         0.7762    2.3170   -3.6271 C.3     1  ILE1       -0.0648
      2 CG1         0.4673    1.5818   -2.3290 C.3     1  ILE1       -0.0477
      3 CB          1.0841    2.2111   -1.0566 C.3     1  ILE1        0.0095
      4 HB          0.7529    1.5916   -0.2107 H       1  ILE1        0.0358
      5 CG2         0.4950    3.6108   -0.8270 C.3     1  ILE1       -0.0568
      6 CA          2.6275    2.2426   -1.0482 C.3     1  ILE1        0.0811
      7 HA          3.0417    2.8695   -1.8440 H       1  ILE1        0.0972
      8 C           3.1768    2.6980    0.3433 C.2     1  ILE1        0.4029
      9 O           3.4161    1.6795    1.0733 O.co2   1  ILE1       -0.2400
     10 OXT         3.4417    3.9098    0.4756 O.co2   1  ILE1       -0.2400
     11 N           3.1547    0.8379   -1.3035 N.4     1  ILE1        0.2291
     12 HD11        0.3467    3.3232   -3.6288 H       1  ILE1        0.0230
     13 HD12        0.3414    1.7762   -4.4740 H       1  ILE1        0.0230
     14 HD13        1.8522    2.3977   -3.8020 H       1  ILE1        0.0230
     15 HG11       -0.6231    1.5384   -2.2096 H       1  ILE1        0.0267
     16 HG12        0.7892    0.5392   -2.4273 H       1  ILE1        0.0267
     17 HG21        0.7968    4.0189    0.1416 H       1  ILE1        0.0234
     18 HG22        0.8152    4.3160   -1.6001 H       1  ILE1        0.0234
     19 HG23       -0.5998    3.5738   -0.8298 H       1  ILE1        0.0234
     20 H1          2.8679    0.3032   -0.4639 H       1  ILE1        0.2003
     21 H2          2.9003    0.3912   -2.1800 H       1  ILE1        0.2003
     22 H3          4.1746    0.8822   -1.1765 H       1  ILE1        0.2003
@<TRIPOS>UNITY_ATOM_ATTR
11 1
charge 1
@<TRIPOS>BOND
     1     1     2    1
     2     1    12    1
     3     1    13    1
     4     1    14    1
     5     2    15    1
     6     2    16    1
     7     3     5    1
     8     3     6    1
     9     5    17    1
    10     5    18    1
    11     5    19    1
    12     6     7    1
    13     6     8    1
    14     6    11    1
    15     8     9   ar
    16     8    10   ar
    17    11    20    1
    18    11    21    1
    19    11    22    1
    20     3     4    1
    21     3     2    1
