@<TRIPOS>MOLECULE
ZINC01530697
 52 55 0 0 0
SMALL
GASTEIGER

@<TRIPOS>ATOM
      1 C          -1.6097    1.2873   -2.3094 C.3     1  UNL1       -0.0428
      2 N          -2.3446    2.4161   -1.6161 N.4     1  UNL1        0.2353
      3 C          -3.7252    2.5365   -2.2323 C.3     1  UNL1       -0.0319
      4 C          -4.4068    3.7823   -1.7101 C.3     1  UNL1       -0.0123
      5 C          -4.5552    3.7191   -0.2019 C.3     1  UNL1       -0.0432
      6 C          -3.2365    3.4283    0.5090 C.3     1  UNL1       -0.0094
      7 C          -2.3709    2.2955   -0.0800 C.3     1  UNL1       -0.0197
      8 H          -2.8258    1.3214    0.1388 H       1  UNL1        0.0851
      9 C          -0.9209    2.3619    0.4740 C.3     1  UNL1        0.0064
     10 C          -0.8252    2.2891    2.0126 C.3     1  UNL1        0.0224
     11 N           0.5882    2.3036    2.4535 N.pl3   1  UNL1       -0.2981
     12 C           1.2542    3.5570    2.6166 C.ar    1  UNL1        0.0479
     13 C           0.5815    4.7296    3.0100 C.ar    1  UNL1       -0.0393
     14 C           1.2795    5.8999    3.3472 C.ar    1  UNL1       -0.0599
     15 C           2.6633    5.9353    3.3022 C.ar    1  UNL1       -0.0606
     16 C           3.3590    4.8145    2.8659 C.ar    1  UNL1       -0.0462
     17 C           2.6636    3.6471    2.5118 C.ar    1  UNL1        0.0341
     18 S           3.6351    2.2925    1.8813 S.3     1  UNL1       -0.0857
     19 C           2.6442    0.9377    2.4795 C.ar    1  UNL1        0.0342
     20 C           1.2487    1.0653    2.6750 C.ar    1  UNL1        0.0489
     21 C           0.5898   -0.0629    3.2082 C.ar    1  UNL1       -0.0258
     22 C           1.2748   -1.2516    3.5253 C.ar    1  UNL1        0.0094
     23 C           2.6402   -1.3489    3.2720 C.ar    1  UNL1       -0.0472
     24 C           3.3254   -0.2570    2.7560 C.ar    1  UNL1       -0.0451
     25 S           0.3673   -2.6198    4.2284 S.3     1  UNL1       -0.1285
     26 C           1.3556   -2.9423    5.7222 C.3     1  UNL1       -0.0135
     27 H          -2.1163    0.3470   -2.0709 H       1  UNL1        0.0778
     28 H          -1.6349    1.4783   -3.3854 H       1  UNL1        0.0778
     29 H          -0.5705    1.2807   -1.9815 H       1  UNL1        0.0778
     30 H          -3.6003    2.6053   -3.3184 H       1  UNL1        0.0814
     31 H          -4.2827    1.6256   -1.9863 H       1  UNL1        0.0814
     32 H          -5.3970    3.8811   -2.1713 H       1  UNL1        0.0317
     33 H          -3.8344    4.6729   -1.9971 H       1  UNL1        0.0317
     34 H          -5.2936    2.9521    0.0592 H       1  UNL1        0.0269
     35 H          -4.9558    4.6741    0.1599 H       1  UNL1        0.0269
     36 H          -3.4774    3.1832    1.5516 H       1  UNL1        0.0320
     37 H          -2.6509    4.3550    0.5365 H       1  UNL1        0.0320
     38 H          -0.3347    1.5272    0.0741 H       1  UNL1        0.0335
     39 H          -0.4380    3.2805    0.1198 H       1  UNL1        0.0335
     40 H          -1.3927    3.1030    2.4676 H       1  UNL1        0.0470
     41 H          -1.3544    1.3897    2.3374 H       1  UNL1        0.0470
     42 H          -0.4929    4.7595    3.1440 H       1  UNL1        0.0636
     43 H           0.7319    6.7767    3.6915 H       1  UNL1        0.0618
     44 H           3.2073    6.8260    3.6092 H       1  UNL1        0.0618
     45 H           4.4459    4.8444    2.8260 H       1  UNL1        0.0629
     46 H          -0.4610   -0.0155    3.4724 H       1  UNL1        0.0647
     47 H           3.1906   -2.2626    3.4828 H       1  UNL1        0.0629
     48 H           4.3982   -0.3349    2.5903 H       1  UNL1        0.0630
     49 H           2.3956   -3.1735    5.4776 H       1  UNL1        0.0344
     50 H           1.3243   -2.0788    6.3927 H       1  UNL1        0.0344
     51 H           0.9341   -3.8043    6.2468 H       1  UNL1        0.0344
     52 H          -1.8348    3.2803   -1.8483 H       1  UNL1        0.2033
@<TRIPOS>UNITY_ATOM_ATTR
2 1
charge 1
@<TRIPOS>BOND
     1     1     2    1
     2     1    27    1
     3     1    28    1
     4     1    29    1
     5     2     7    1
     6     2     3    1
     7     2    52    1
     8     3     4    1
     9     3    30    1
    10     3    31    1
    11     4     5    1
    12     4    32    1
    13     4    33    1
    14     5     6    1
    15     5    34    1
    16     5    35    1
    17     6     7    1
    18     6    36    1
    19     6    37    1
    20     7     8    1
    21     7     9    1
    22     9    10    1
    23     9    38    1
    24     9    39    1
    25    10    11    1
    26    10    40    1
    27    10    41    1
    28    11    20    1
    29    11    12    1
    30    12    17   ar
    31    12    13   ar
    32    13    14   ar
    33    13    42    1
    34    14    15   ar
    35    14    43    1
    36    15    16   ar
    37    15    44    1
    38    16    17   ar
    39    16    45    1
    40    17    18    1
    41    18    19    1
    42    19    24   ar
    43    19    20   ar
    44    20    21   ar
    45    21    22   ar
    46    21    46    1
    47    22    23   ar
    48    22    25    1
    49    23    24   ar
    50    23    47    1
    51    24    48    1
    52    25    26    1
    53    26    49    1
    54    26    50    1
    55    26    51    1
