@<TRIPOS>MOLECULE
ZINC00113382
 32 32 0 0 0
SMALL
GASTEIGER

@<TRIPOS>ATOM
      1 C           2.1164   -4.6463    1.6685 C.ar    1  UNL1       -0.0540
      2 C           2.2011   -5.1130    2.9813 C.ar    1  UNL1       -0.0352
      3 C           1.3799   -4.5536    3.9669 C.ar    1  UNL1        0.0751
      4 C           0.4420   -3.5715    3.6296 C.ar    1  UNL1       -0.0352
      5 C           0.3776   -3.1016    2.3120 C.ar    1  UNL1       -0.0540
      6 C           1.2418   -3.5976    1.3198 C.ar    1  UNL1       -0.0172
      7 C           1.3312   -2.8853   -0.0248 C.3     1  UNL1        0.1006
      8 H           1.0436   -1.8415    0.1310 H       1  UNL1        0.0663
      9 CA          0.5614   -3.4491   -1.2647 C.3     1  UNL1        0.0762
     10 HA          0.8237   -2.7707   -2.0911 H       1  UNL1        0.0550
     11 C           1.0841   -4.8442   -1.6752 C.3     1  UNL1        0.0653
     12 O           2.4361   -4.8255   -2.1200 O.3     1  UNL1       -0.3931
     13 N          -0.9078   -3.4584   -1.2575 N.am    1  UNL1       -0.3052
     14 C          -1.7032   -2.3801   -0.8853 C.2     1  UNL1        0.2462
     15 O          -1.2707   -1.4379   -0.2239 O.2     1  UNL1       -0.2729
     16 C          -3.1785   -2.4735   -1.3043 C.3     1  UNL1        0.1830
     17 CL         -3.3212   -3.2103   -2.9239 Cl      1  UNL1       -0.0945
     18 CL         -4.0586   -3.4425   -0.1104 Cl      1  UNL1       -0.0945
     19 O           2.7324   -2.8044   -0.3978 O.3     1  UNL1       -0.3853
     20 N           1.5429   -4.9593    5.3692 N.pl3   1  UNL1       -0.1866
     21 O           2.4353   -5.7750    5.6329 O.2     1  UNL1       -0.1726
     22 O           0.7903   -4.4447    6.2095 O.co2   1  UNL1       -0.7770
     23 H           2.7979   -5.0621    0.9221 H       1  UNL1        0.0622
     24 H           2.9310   -5.8825    3.2254 H       1  UNL1        0.0639
     25 H          -0.2133   -3.1333    4.3811 H       1  UNL1        0.0639
     26 H          -0.3160   -2.2926    2.0792 H       1  UNL1        0.0622
     27 H1          0.9848   -5.5628   -0.8564 H       1  UNL1        0.0576
     28 H2          0.4911   -5.2355   -2.5091 H       1  UNL1        0.0576
     29 H           2.8813   -4.0681   -1.6820 H       1  UNL1        0.2095
     30 H          -1.3235   -4.0090   -2.0059 H       1  UNL1        0.1492
     31 H          -3.6157   -1.4720   -1.3570 H       1  UNL1        0.0732
     32 H           3.2408   -2.6919    0.4273 H       1  UNL1        0.2103
@<TRIPOS>UNITY_ATOM_ATTR
22 1
charge -1
@<TRIPOS>BOND
     1     1     6   ar
     2     1     2   ar
     3     1    23    1
     4     2     3   ar
     5     2    24    1
     6     3     4   ar
     7     3    20    1
     8     4     5   ar
     9     4    25    1
    10     5     6   ar
    11     5    26    1
    12     7     9    1
    13     7    19    1
    14     9    10    1
    15     9    11    1
    16     9    13    1
    17    11    12    1
    18    11    27    1
    19    11    28    1
    20    12    29    1
    21    13    14   am
    22    13    30    1
    23    14    15    2
    24    14    16    1
    25    16    17    1
    26    16    18    1
    27    16    31    1
    28    19    32    1
    29    20    21    2
    30    20    22    1
    31     7     8    1
    32     7     6    1
