@<TRIPOS>MOLECULE
ZINC01999542
 56 58 0 0 0
SMALL
GASTEIGER

@<TRIPOS>ATOM
      1 C           9.0286   -2.7964    2.4116 C.3     1  UNL1       -0.0530
      2 C           8.3487   -4.1633    2.4286 C.3     1  UNL1       -0.0528
      3 C           7.2651   -4.2367    1.3536 C.3     1  UNL1       -0.0499
      4 C           6.1573   -3.1923    1.5428 C.3     1  UNL1       -0.0378
      5 C           6.8872   -1.8082    1.4930 C.3     1  UNL1       -0.0499
      6 C           8.0076   -1.6680    2.5271 C.3     1  UNL1       -0.0528
      7 C           5.1493   -3.3437    2.7728 C.3     1  UNL1       -0.0303
      8 C           4.1469   -2.1302    2.6915 C.3     1  UNL1       -0.0064
      9 C           2.8479   -2.0852    3.5169 C.3     1  UNL1       -0.0224
     10 H           2.1707   -2.8699    3.1647 H       1  UNL1        0.0850
     11 C           2.9689   -2.1674    5.0367 C.3     1  UNL1       -0.0095
     12 C           3.5793   -0.9272    5.6810 C.3     1  UNL1       -0.0432
     13 C           2.9010    0.3664    5.2411 C.3     1  UNL1       -0.0124
     14 C           2.7158    0.4712    3.7376 C.3     1  UNL1       -0.0334
     15 N           2.1176   -0.7890    3.1948 N.4     1  UNL1        0.2292
     16 C           4.4132   -4.7344    2.9396 C.3     1  UNL1       -0.0378
     17 C           3.5716   -5.1800    1.7274 C.3     1  UNL1       -0.0499
     18 C           2.9068   -6.5480    1.9386 C.3     1  UNL1       -0.0528
     19 C           3.9147   -7.6154    2.3388 C.3     1  UNL1       -0.0530
     20 C           4.6225   -7.2106    3.6234 C.3     1  UNL1       -0.0528
     21 C           5.3315   -5.8671    3.4600 C.3     1  UNL1       -0.0499
     22 H           9.5886   -2.6840    1.4735 H       1  UNL1        0.0265
     23 H           9.7619   -2.7251    3.2237 H       1  UNL1        0.0265
     24 H           9.1012   -4.9412    2.2564 H       1  UNL1        0.0265
     25 H           7.9232   -4.3465    3.4244 H       1  UNL1        0.0265
     26 H           6.8582   -5.2389    1.2410 H       1  UNL1        0.0268
     27 H           7.7528   -4.0558    0.3841 H       1  UNL1        0.0268
     28 H           5.5388   -3.2369    0.6372 H       1  UNL1        0.0304
     29 H           6.1967   -0.9669    1.5820 H       1  UNL1        0.0268
     30 H           7.3336   -1.6940    0.4950 H       1  UNL1        0.0268
     31 H           7.5873   -1.6540    3.5389 H       1  UNL1        0.0265
     32 H           8.5178   -0.7077    2.3834 H       1  UNL1        0.0265
     33 H           5.7277   -3.1990    3.6952 H       1  UNL1        0.0308
     34 H           4.7227   -1.2393    2.9585 H       1  UNL1        0.0323
     35 H           3.8586   -2.0075    1.6378 H       1  UNL1        0.0323
     36 H           3.5458   -3.0479    5.3337 H       1  UNL1        0.0320
     37 H           1.9614   -2.3097    5.4527 H       1  UNL1        0.0320
     38 H           3.5006   -1.0169    6.7717 H       1  UNL1        0.0269
     39 H           4.6478   -0.8826    5.4449 H       1  UNL1        0.0269
     40 H           1.9233    0.4469    5.7321 H       1  UNL1        0.0317
     41 H           3.4923    1.2203    5.5937 H       1  UNL1        0.0317
     42 H           2.0237    1.2823    3.4867 H       1  UNL1        0.0814
     43 H           3.6587    0.6522    3.2140 H       1  UNL1        0.0814
     44 H           1.1519   -0.8635    3.5438 H       1  UNL1        0.2016
     45 H           3.6905   -4.6044    3.7545 H       1  UNL1        0.0304
     46 H           2.7782   -4.4478    1.5347 H       1  UNL1        0.0268
     47 H           4.1905   -5.2229    0.8251 H       1  UNL1        0.0268
     48 H           2.3919   -6.8535    1.0180 H       1  UNL1        0.0265
     49 H           2.1349   -6.4714    2.7170 H       1  UNL1        0.0265
     50 H           4.6465   -7.7543    1.5326 H       1  UNL1        0.0265
     51 H           3.4095   -8.5802    2.4768 H       1  UNL1        0.0265
     52 H           5.3543   -7.9809    3.8937 H       1  UNL1        0.0265
     53 H           3.8982   -7.1546    4.4435 H       1  UNL1        0.0265
     54 H           6.1666   -6.0551    2.7919 H       1  UNL1        0.0268
     55 H           5.7678   -5.5748    4.4212 H       1  UNL1        0.0268
     56 H           2.0254   -0.6950    2.1737 H       1  UNL1        0.2016
@<TRIPOS>UNITY_ATOM_ATTR
15 1
charge 1
@<TRIPOS>BOND
     1     1     6    1
     2     1     2    1
     3     1    22    1
     4     1    23    1
     5     2     3    1
     6     2    24    1
     7     2    25    1
     8     3     4    1
     9     3    26    1
    10     3    27    1
    11     4     5    1
    12     4     7    1
    13     4    28    1
    14     5     6    1
    15     5    29    1
    16     5    30    1
    17     6    31    1
    18     6    32    1
    19     7     8    1
    20     7    16    1
    21     7    33    1
    22     8    34    1
    23     8    35    1
    24     9    15    1
    25     9    11    1
    26    11    12    1
    27    11    36    1
    28    11    37    1
    29    12    13    1
    30    12    38    1
    31    12    39    1
    32    13    14    1
    33    13    40    1
    34    13    41    1
    35    14    15    1
    36    14    42    1
    37    14    43    1
    38    15    44    1
    39    15    56    1
    40    16    21    1
    41    16    17    1
    42    16    45    1
    43    17    18    1
    44    17    46    1
    45    17    47    1
    46    18    19    1
    47    18    48    1
    48    18    49    1
    49    19    20    1
    50    19    50    1
    51    19    51    1
    52    20    21    1
    53    20    52    1
    54    20    53    1
    55    21    54    1
    56    21    55    1
    57     9    10    1
    58     9     8    1
