@<TRIPOS>MOLECULE
ZINC01530660
 29 29 0 0 0
SMALL
GASTEIGER

@<TRIPOS>ATOM
      1 C           0.7885    1.2679   -0.2750 C.3     1  UNL1       -0.0157
      2 C          -0.5952    1.3368    0.3681 C.3     1  UNL1        0.0096
      3 N          -1.4519    0.2205   -0.0371 N.3     1  UNL1       -0.2285
      4 P          -0.7886   -1.2824   -0.1766 P.3     1  UNL1        0.2802
      5 O          -0.9393   -2.1814    1.0063 O.3     1  UNL1       -0.1524
      6 O           0.7622   -1.0752   -0.5648 O.3     1  UNL1       -0.3149
      7 C           1.4579   -0.0398    0.0896 C.3     1  UNL1        0.0574
      8 N          -1.4374   -1.8118   -1.5853 N.3     1  UNL1       -0.2421
      9 C          -0.9906   -3.1079   -2.0913 C.3     1  UNL1        0.0178
     10 C          -1.5644   -3.4147   -3.4751 C.3     1  UNL1        0.0356
     11 CL         -1.0295   -2.2102   -4.6817 Cl      1  UNL1       -0.1241
     12 C          -2.7320    0.2516    0.7047 C.3     1  UNL1        0.0209
     13 C          -3.6553    1.3994    0.2940 C.3     1  UNL1        0.0358
     14 CL         -5.2109    1.2932    1.1574 Cl      1  UNL1       -0.1241
     15 H           1.3940    2.1139    0.0656 H       1  UNL1        0.0300
     16 H           0.6855    1.3430   -1.3659 H       1  UNL1        0.0300
     17 H          -0.4754    1.3563    1.4599 H       1  UNL1        0.0432
     18 H          -1.0489    2.2858    0.0658 H       1  UNL1        0.0432
     19 H           2.4948   -0.0499   -0.2635 H       1  UNL1        0.0565
     20 H           1.4669   -0.2146    1.1730 H       1  UNL1        0.0565
     21 H          -1.2707   -1.1177   -2.3088 H       1  UNL1        0.1316
     22 H           0.1033   -3.1344   -2.1418 H       1  UNL1        0.0440
     23 H          -1.3064   -3.8916   -1.3949 H       1  UNL1        0.0440
     24 H          -1.2240   -4.3958   -3.8205 H       1  UNL1        0.0442
     25 H          -2.6587   -3.4104   -3.4635 H       1  UNL1        0.0442
     26 H          -3.2693   -0.6872    0.5179 H       1  UNL1        0.0443
     27 H          -2.5385    0.2777    1.7852 H       1  UNL1        0.0443
     28 H          -3.2271    2.3746    0.5359 H       1  UNL1        0.0442
     29 H          -3.8688    1.3643   -0.7778 H       1  UNL1        0.0442
@<TRIPOS>BOND
     1     1     7    1
     2     1     2    1
     3     1    15    1
     4     1    16    1
     5     2     3    1
     6     2    17    1
     7     2    18    1
     8     3     4    1
     9     3    12    1
    10     4     6    1
    11     6     7    1
    12     7    19    1
    13     7    20    1
    14     8     9    1
    15     8    21    1
    16     9    10    1
    17     9    22    1
    18     9    23    1
    19    10    11    1
    20    10    24    1
    21    10    25    1
    22    12    13    1
    23    12    26    1
    24    12    27    1
    25    13    14    1
    26    13    28    1
    27    13    29    1
    28     4     8    1
    29     4     5    2
