@<TRIPOS>MOLECULE
ZINC00014257
 28 29 0 0 0
SMALL
GASTEIGER

@<TRIPOS>ATOM
      1 C           3.1391    0.0499   -1.5381 C.3     1  UNL1       -0.0467
      2 C           2.5427    0.0150   -0.1138 C.3     1  UNL1        0.0778
      3 C           3.1147    1.1763    0.7178 C.3     1  UNL1        0.0423
      4 C           4.3173    0.5790    1.3863 C.2     1  UNL1        0.2229
      5 O           5.2105    1.2247    1.9128 O.2     1  UNL1       -0.2752
      6 N           4.2104   -0.7783    1.3423 N.am    1  UNL1       -0.2445
      7 C           3.1733   -1.2034    0.5565 C.2     1  UNL1        0.2323
      8 O           2.8528   -2.3687    0.3659 O.2     1  UNL1       -0.2742
      9 C           5.1373   -1.6625    2.0079 C.3     1  UNL1        0.0108
     10 C           1.0138    0.0462   -0.0733 C.ar    1  UNL1       -0.0322
     11 C           0.2626    0.7090   -1.0605 C.ar    1  UNL1       -0.0576
     12 C          -1.1330    0.7728   -0.9906 C.ar    1  UNL1       -0.0615
     13 C          -1.8085    0.1860    0.0741 C.ar    1  UNL1       -0.0617
     14 C          -1.0878   -0.4647    1.0694 C.ar    1  UNL1       -0.0615
     15 C           0.3073   -0.5298    0.9998 C.ar    1  UNL1       -0.0576
     16 H           2.7687   -0.7882   -2.1401 H       1  UNL1        0.0243
     17 H           2.9005    0.9794   -2.0652 H       1  UNL1        0.0243
     18 H           4.2334   -0.0278   -1.5184 H       1  UNL1        0.0243
     19 H           3.4026    2.0349    0.1032 H       1  UNL1        0.0372
     20 H           2.4341    1.5156    1.5077 H       1  UNL1        0.0372
     21 H           6.1163   -1.5648    1.5294 H       1  UNL1        0.0433
     22 H           5.2324   -1.3574    3.0540 H       1  UNL1        0.0433
     23 H           4.8036   -2.7015    1.9517 H       1  UNL1        0.0433
     24 H           0.7419    1.1930   -1.9075 H       1  UNL1        0.0621
     25 H          -1.6914    1.2839   -1.7707 H       1  UNL1        0.0618
     26 H          -2.8924    0.2368    0.1278 H       1  UNL1        0.0618
     27 H          -1.6108   -0.9250    1.9039 H       1  UNL1        0.0618
     28 H           0.8282   -1.0468    1.8024 H       1  UNL1        0.0621
@<TRIPOS>BOND
     1     1    16    1
     2     1    17    1
     3     1    18    1
     4     2     7    1
     5     2     3    1
     6     3     4    1
     7     3    19    1
     8     3    20    1
     9     4     5    2
    10     4     6   am
    11     6     7   am
    12     6     9    1
    13     7     8    2
    14     9    21    1
    15     9    22    1
    16     9    23    1
    17    10    15   ar
    18    10    11   ar
    19    11    12   ar
    20    11    24    1
    21    12    13   ar
    22    12    25    1
    23    13    14   ar
    24    13    26    1
    25    14    15   ar
    26    14    27    1
    27    15    28    1
    28     2    10    1
    29     2     1    1
