@<TRIPOS>MOLECULE
ZINC01530805
 21 21 0 0 0
SMALL
GASTEIGER

@<TRIPOS>ATOM
      1 C           0.9029    2.3124   -0.4568 C.3     1  UNL1       -0.0643
      2 C           0.4792    1.2545    0.5550 C.3     1  UNL1       -0.0417
      3 C           1.0442    1.4674    1.9683 C.3     1  UNL1        0.0525
      4 C           0.4993    2.7297    2.6570 C.3     1  UNL1        0.0380
      5 C           0.3414    2.2998    4.0889 C.2     1  UNL1        0.2202
      6 O           0.1748    3.0407    5.0425 O.2     1  UNL1       -0.2754
      7 N           0.3462    0.9434    4.1294 N.am    1  UNL1       -0.2559
      8 C           0.5744    0.3768    2.9153 C.2     1  UNL1        0.2256
      9 O           0.4821   -0.8124    2.6692 O.2     1  UNL1       -0.2748
     10 C           2.5813    1.4660    1.9901 C.3     1  UNL1       -0.0508
     11 H           0.4078    2.1330   -1.4168 H       1  UNL1        0.0230
     12 H           1.9817    2.2828   -0.6372 H       1  UNL1        0.0230
     13 H           0.6347    3.3189   -0.1226 H       1  UNL1        0.0230
     14 H          -0.6177    1.2315    0.5979 H       1  UNL1        0.0273
     15 H           0.7826    0.2698    0.1765 H       1  UNL1        0.0273
     16 H           1.1753    3.5850    2.5777 H       1  UNL1        0.0368
     17 H          -0.4931    3.0084    2.2836 H       1  UNL1        0.0368
     18 H           0.1148    0.4135    4.9553 H       1  UNL1        0.1575
     19 H           2.9770    0.5338    1.5720 H       1  UNL1        0.0240
     20 H           2.9953    2.3024    1.4178 H       1  UNL1        0.0240
     21 H           2.9711    1.5497    3.0117 H       1  UNL1        0.0240
@<TRIPOS>BOND
     1     1     2    1
     2     1    11    1
     3     1    12    1
     4     1    13    1
     5     2    14    1
     6     2    15    1
     7     3     2    1
     8     3     8    1
     9     3     4    1
    10     3    10    1
    11     4     5    1
    12     4    16    1
    13     4    17    1
    14     5     6    2
    15     5     7   am
    16     7     8   am
    17     7    18    1
    18     8     9    2
    19    10    19    1
    20    10    20    1
    21    10    21    1
