@<TRIPOS>MOLECULE
ZINC00896918
 22 22 0 0 0
SMALL
GASTEIGER

@<TRIPOS>ATOM
      1 C          -2.5692    0.7020    0.0554 C.ar    1  UNL1       -0.0075
      2 C          -2.5582   -0.6930    0.0795 C.ar    1  UNL1        0.1083
      3 C          -1.3530   -1.3942    0.0958 C.ar    1  UNL1       -0.0155
      4 C          -0.1444   -0.6941    0.0708 C.ar    1  UNL1        0.0630
      5 C          -0.1258    0.7117    0.0283 C.ar    1  UNL1        0.0856
      6 C          -1.3496    1.4008    0.0125 C.ar    1  UNL1        0.1265
      7 S          -1.4046    3.1591   -0.1999 S.O2    1  UNL1        0.0574
      8 O          -0.5839    3.5192   -1.3250 O.2     1  UNL1       -0.1532
      9 O          -2.7772    3.5882   -0.0952 O.2     1  UNL1       -0.1532
     10 N          -0.6572    3.7478    1.1792 N.3     1  UNL1       -0.2035
     11 CL          1.4010    1.5381    0.0108 Cl      1  UNL1       -0.0800
     12 CL          1.3020   -1.6467    0.0688 Cl      1  UNL1       -0.0819
     13 S          -4.0752   -1.6050    0.0898 S.O2    1  UNL1        0.0561
     14 O          -3.8367   -2.8978    0.6847 O.2     1  UNL1       -0.1533
     15 O          -5.1422   -0.7331    0.5160 O.2     1  UNL1       -0.1533
     16 N          -4.3056   -1.8732   -1.5491 N.3     1  UNL1       -0.2035
     17 H          -3.5183    1.2381    0.0399 H       1  UNL1        0.0657
     18 H          -1.3520   -2.4829    0.1168 H       1  UNL1        0.0652
     19 H           0.3010    4.0374    0.9702 H       1  UNL1        0.1442
     20 H          -1.2240    4.5059    1.5704 H       1  UNL1        0.1442
     21 H          -4.1958   -2.8646   -1.7681 H       1  UNL1        0.1442
     22 H          -5.2080   -1.4921   -1.8398 H       1  UNL1        0.1442
@<TRIPOS>BOND
     1     1     6   ar
     2     1     2   ar
     3     1    17    1
     4     2     3   ar
     5     2    13    1
     6     3     4   ar
     7     3    18    1
     8     4     5   ar
     9     4    12    1
    10     5     6   ar
    11     5    11    1
    12     6     7    1
    13     7     8    2
    14     7     9    2
    15     7    10    1
    16    10    19    1
    17    10    20    1
    18    13    14    2
    19    13    15    2
    20    13    16    1
    21    16    21    1
    22    16    22    1
