@<TRIPOS>MOLECULE
ZINC00902159
 24 24 0 0 0
SMALL
GASTEIGER

@<TRIPOS>ATOM
      1 C          -0.7956    1.1987    0.0649 C.ar    1  UNL1        0.0049
      2 C           0.5436    1.2145    0.0725 C.ar    1  UNL1        0.0086
      3 N           1.3506    0.0794    0.0323 N.ar    1  UNL1       -0.3439
      4 C           0.7167   -1.1606    0.0029 C.ar    1  UNL1        0.0503
      5 C          -0.6100   -1.3347   -0.0244 C.ar    1  UNL1        0.1801
      6 C          -1.4713   -0.1158   -0.0061 C.ar    1  UNL1        0.2228
      7 O          -2.6944   -0.2247   -0.0275 O.2     1  UNL1       -0.2839
      8 O          -1.2047   -2.5773   -0.0776 O.3     1  UNL1       -0.5022
      9 C           2.8031    0.2033   -0.1807 C.3     1  UNL1        0.0762
     10 CA          3.2864   -0.4087   -1.5028 C.3     1  UNL1        0.0966
     11 HA          3.0638   -1.4748   -1.5974 H       1  UNL1        0.0988
     12 C           2.6692    0.4265   -2.6480 C.2     1  UNL1        0.4044
     13 O           3.4620    1.3839   -2.9465 O.co2   1  UNL1       -0.2399
     14 OXT         1.6518   -0.0257   -3.2127 O.co2   1  UNL1       -0.2399
     15 N           4.8129   -0.2911   -1.5864 N.4     1  UNL1        0.2302
     16 H          -1.4085    2.0871    0.0872 H       1  UNL1        0.0671
     17 H           1.0748    2.1635    0.0953 H       1  UNL1        0.0810
     18 H           1.3713   -2.0256   -0.0318 H       1  UNL1        0.0847
     19 H          -2.1632   -2.3806   -0.1433 H       1  UNL1        0.2923
     20 H           3.1108    1.2560   -0.1192 H       1  UNL1        0.0553
     21 H           3.3100   -0.2988    0.6542 H       1  UNL1        0.0553
     22 H1          4.9573    0.7227   -1.7829 H       1  UNL1        0.2003
     23 H2          5.3456   -0.6210   -0.7811 H       1  UNL1        0.2003
     24 H3          5.1120   -0.7311   -2.4616 H       1  UNL1        0.2003
@<TRIPOS>UNITY_ATOM_ATTR
15 1
charge 1
@<TRIPOS>BOND
     1     1     6   ar
     2     1     2   ar
     3     1    16    1
     4     2     3   ar
     5     2    17    1
     6     3     4   ar
     7     3     9    1
     8     4     5   ar
     9     4    18    1
    10     5     6   ar
    11     5     8    1
    12     6     7    2
    13     8    19    1
    14     9    10    1
    15     9    20    1
    16     9    21    1
    17    10    11    1
    18    10    12    1
    19    10    15    1
    20    12    13   ar
    21    12    14   ar
    22    15    22    1
    23    15    23    1
    24    15    24    1
