@<TRIPOS>MOLECULE
ZINC00016154
 40 41 0 0 0
SMALL
GASTEIGER

@<TRIPOS>ATOM
      1 C           3.3059   -0.7409    0.7112 C.3     1  UNL1       -0.0305
      2 C           3.0193    0.3661   -0.2890 C.3     1  UNL1        0.0913
      3 O           3.3284    1.6561    0.2663 O.3     1  UNL1       -0.4504
      4 C           2.3612    2.2009    1.0553 C.2     1  UNL1        0.4046
      5 O           1.2922    1.6546    1.2887 O.2     1  UNL1       -0.2261
      6 N           2.7835    3.4252    1.4836 N.am    1  UNL1       -0.2494
      7 C           2.1573    4.3344    2.3716 C.ar    1  UNL1        0.0572
      8 C           2.6534    5.6462    2.3387 C.ar    1  UNL1       -0.0369
      9 C           2.1370    6.6356    3.1818 C.ar    1  UNL1       -0.0390
     10 C           1.1096    6.3539    4.0829 C.ar    1  UNL1        0.0292
     11 C           0.6396    5.0404    4.1364 C.ar    1  UNL1       -0.0184
     12 C           1.1169    4.0281    3.2754 C.ar    1  UNL1        0.0479
     13 N           0.7189    2.7093    3.5782 N.pl3   1  UNL1       -0.3565
     14 N           0.6589    7.3865    4.9026 N.pl3   1  UNL1       -0.3397
     15 C          -0.6304    7.2933    5.5770 C.3     1  UNL1        0.0344
     16 C          -1.0392    8.6809    6.0320 C.ar    1  UNL1       -0.0302
     17 C          -1.3620    8.9448    7.3711 C.ar    1  UNL1       -0.0544
     18 C          -1.7382   10.2347    7.7613 C.ar    1  UNL1       -0.0261
     19 C          -1.7919   11.2534    6.8174 C.ar    1  UNL1        0.1234
     20 C          -1.4837   11.0113    5.4835 C.ar    1  UNL1       -0.0261
     21 C          -1.1125    9.7274    5.0918 C.ar    1  UNL1       -0.0544
     22 F          -2.1470   12.4895    7.1958 F       1  UNL1       -0.2055
     23 H           4.3342   -0.6729    1.0802 H       1  UNL1        0.0262
     24 H           3.1590   -1.7232    0.2524 H       1  UNL1        0.0262
     25 H           2.6482   -0.6674    1.5831 H       1  UNL1        0.0262
     26 H           3.6579    0.2365   -1.1685 H       1  UNL1        0.0695
     27 H           1.9813    0.3270   -0.6404 H       1  UNL1        0.0695
     28 H           3.6275    3.7332    1.0218 H       1  UNL1        0.1582
     29 H           3.4413    5.9281    1.6449 H       1  UNL1        0.0637
     30 H           2.5318    7.6475    3.1185 H       1  UNL1        0.0637
     31 H          -0.1020    4.7661    4.8814 H       1  UNL1        0.0655
     32 H          -0.2192    2.6474    3.9573 H       1  UNL1        0.1424
     33 H           0.8006    2.0928    2.7619 H       1  UNL1        0.1424
     34 H           1.3940    7.6986    5.5347 H       1  UNL1        0.1464
     35 H          -1.4088    6.9225    4.8979 H       1  UNL1        0.0511
     36 H          -0.5660    6.6092    6.4313 H       1  UNL1        0.0511
     37 H          -1.3259    8.1577    8.1181 H       1  UNL1        0.0622
     38 H          -1.9885   10.4526    8.7939 H       1  UNL1        0.0646
     39 H          -1.5302   11.8183    4.7617 H       1  UNL1        0.0646
     40 H          -0.8648    9.5325    4.0504 H       1  UNL1        0.0622
@<TRIPOS>BOND
     1     1     2    1
     2     1    23    1
     3     1    24    1
     4     1    25    1
     5     2     3    1
     6     2    26    1
     7     2    27    1
     8     3     4    1
     9     4     5    2
    10     4     6   am
    11     6     7    1
    12     6    28    1
    13     7    12   ar
    14     7     8   ar
    15     8     9   ar
    16     8    29    1
    17     9    10   ar
    18     9    30    1
    19    10    11   ar
    20    10    14    1
    21    11    12   ar
    22    11    31    1
    23    12    13    1
    24    13    32    1
    25    13    33    1
    26    14    15    1
    27    14    34    1
    28    15    16    1
    29    15    35    1
    30    15    36    1
    31    16    21   ar
    32    16    17   ar
    33    17    18   ar
    34    17    37    1
    35    18    19   ar
    36    18    38    1
    37    19    20   ar
    38    19    22    1
    39    20    21   ar
    40    20    39    1
    41    21    40    1
