@<TRIPOS>MOLECULE
ZINC01542930
 63 65 0 0 0
SMALL
GASTEIGER

@<TRIPOS>ATOM
      1 C          -5.6692    3.8488   -6.1951 C.3     1  UNL1       -0.0653
      2 C          -4.1691    4.0861   -6.3126 C.3     1  UNL1       -0.0559
      3 C          -3.5831    4.6427   -5.0092 C.3     1  UNL1       -0.0533
      4 C          -2.0716    4.8885   -5.1130 C.3     1  UNL1       -0.0530
      5 C          -1.4506    5.5666   -3.8736 C.3     1  UNL1       -0.0523
      6 C          -1.5668    4.7270   -2.5934 C.3     1  UNL1       -0.0439
      7 C          -0.8795    5.3036   -1.3034 C.3     1  UNL1       -0.0096
      8 C          -1.5273    6.6611   -0.9448 C.3     1  UNL1       -0.0558
      9 C          -1.2463    4.3342   -0.1409 C.3     1  UNL1       -0.0558
     10 C           0.6663    5.3483   -1.3923 C.ar    1  UNL1       -0.0348
     11 C           1.3550    4.1732   -1.7086 C.ar    1  UNL1       -0.0160
     12 C           2.7497    4.0975   -1.6522 C.ar    1  UNL1        0.1241
     13 C           3.5331    5.1847   -1.2580 C.ar    1  UNL1        0.0395
     14 C           2.8689    6.4057   -1.0737 C.ar    1  UNL1        0.1285
     15 C           1.4544    6.4775   -1.1094 C.ar    1  UNL1       -0.0157
     16 O           3.5224    7.6004   -0.8490 O.3     1  UNL1       -0.4855
     17 C           4.9591    7.5987   -1.0636 C.3     1  UNL1        0.1085
     18 C           5.5542    6.3530   -0.3553 C.3     1  UNL1        0.0062
     19 H           5.1427    6.3390    0.6678 H       1  UNL1        0.0345
     20 C           5.0432    5.0822   -1.0819 C.3     1  UNL1        0.0042
     21 H           5.4850    5.0507   -2.0867 H       1  UNL1        0.0359
     22 C           5.5258    3.8252   -0.3362 C.3     1  UNL1        0.0132
     23 C           7.0227    3.8629   -0.1459 C.2     1  UNL1        0.1340
     24 O           7.7406    2.9050   -0.4282 O.2     1  UNL1       -0.2974
     25 C           7.5744    5.0918    0.5189 C.3     1  UNL1        0.0062
     26 C           7.0879    6.3375   -0.2114 C.3     1  UNL1       -0.0394
     27 C           5.4930    8.9001   -0.4349 C.3     1  UNL1       -0.0249
     28 C           5.2491    7.6822   -2.5770 C.3     1  UNL1       -0.0249
     29 O           3.3481    2.9234   -2.0062 O.3     1  UNL1       -0.5064
     30 H          -5.8929    3.1294   -5.4007 H       1  UNL1        0.0230
     31 H          -6.0686    3.4500   -7.1335 H       1  UNL1        0.0230
     32 H          -6.1984    4.7811   -5.9726 H       1  UNL1        0.0230
     33 H          -3.6778    3.1407   -6.5712 H       1  UNL1        0.0263
     34 H          -3.9829    4.7843   -7.1370 H       1  UNL1        0.0263
     35 H          -4.0900    5.5816   -4.7574 H       1  UNL1        0.0265
     36 H          -3.7908    3.9320   -4.2017 H       1  UNL1        0.0265
     37 H          -1.5591    3.9380   -5.3058 H       1  UNL1        0.0265
     38 H          -1.8777    5.5306   -5.9817 H       1  UNL1        0.0265
     39 H          -0.3934    5.7597   -4.0881 H       1  UNL1        0.0266
     40 H          -1.9332    6.5394   -3.7309 H       1  UNL1        0.0266
     41 H          -2.6346    4.5973   -2.3729 H       1  UNL1        0.0274
     42 H          -1.1891    3.7193   -2.8037 H       1  UNL1        0.0274
     43 H          -2.6194    6.5694   -0.8874 H       1  UNL1        0.0238
     44 H          -1.1884    7.0217    0.0342 H       1  UNL1        0.0238
     45 H          -1.2984    7.4372   -1.6814 H       1  UNL1        0.0238
     46 H          -0.8428    3.3275   -0.2995 H       1  UNL1        0.0238
     47 H          -0.8587    4.6937    0.8192 H       1  UNL1        0.0238
     48 H          -2.3331    4.2263   -0.0417 H       1  UNL1        0.0238
     49 H           0.7983    3.2794   -1.9746 H       1  UNL1        0.0657
     50 H           0.9965    7.4396   -0.8886 H       1  UNL1        0.0657
     51 H           5.3174    2.9119   -0.8987 H       1  UNL1        0.0348
     52 H           5.0497    3.7301    0.6448 H       1  UNL1        0.0348
     53 H           7.2446    5.0875    1.5637 H       1  UNL1        0.0342
     54 H           8.6678    5.0484    0.5087 H       1  UNL1        0.0342
     55 H           7.4294    7.2065    0.3621 H       1  UNL1        0.0273
     56 H           7.5619    6.3904   -1.1974 H       1  UNL1        0.0273
     57 H           6.5630    9.0381   -0.6281 H       1  UNL1        0.0268
     58 H           4.9721    9.7739   -0.8434 H       1  UNL1        0.0268
     59 H           5.3290    8.9166    0.6475 H       1  UNL1        0.0268
     60 H           4.7404    6.9001   -3.1485 H       1  UNL1        0.0268
     61 H           4.8758    8.6270   -2.9887 H       1  UNL1        0.0268
     62 H           6.3211    7.6204   -2.7882 H       1  UNL1        0.0268
     63 H           2.6715    2.2653   -2.2186 H       1  UNL1        0.2921
@<TRIPOS>BOND
     1     1     2    1
     2     1    30    1
     3     1    31    1
     4     1    32    1
     5     2     3    1
     6     2    33    1
     7     2    34    1
     8     3     4    1
     9     3    35    1
    10     3    36    1
    11     4     5    1
    12     4    37    1
    13     4    38    1
    14     5     6    1
    15     5    39    1
    16     5    40    1
    17     6     7    1
    18     6    41    1
    19     6    42    1
    20     7     8    1
    21     7     9    1
    22     7    10    1
    23     8    43    1
    24     8    44    1
    25     8    45    1
    26     9    46    1
    27     9    47    1
    28     9    48    1
    29    10    15   ar
    30    10    11   ar
    31    11    12   ar
    32    11    49    1
    33    12    13   ar
    34    12    29    1
    35    13    20    1
    36    13    14   ar
    37    14    15   ar
    38    14    16    1
    39    15    50    1
    40    16    17    1
    41    17    18    1
    42    17    27    1
    43    17    28    1
    44    18    19    1
    45    18    26    1
    46    18    20    1
    47    20    21    1
    48    20    22    1
    49    22    23    1
    50    22    51    1
    51    22    52    1
    52    23    24    2
    53    23    25    1
    54    25    26    1
    55    25    53    1
    56    25    54    1
    57    26    55    1
    58    26    56    1
    59    27    57    1
    60    27    58    1
    61    27    59    1
    62    28    60    1
    63    28    61    1
    64    28    62    1
    65    29    63    1
