@<TRIPOS>MOLECULE
ZINC00057409
 33 33 0 0 0
SMALL
GASTEIGER

@<TRIPOS>ATOM
      1 C           1.2201    1.8850    0.7972 C.3     1  UNL1       -0.0190
      2 C          -0.2033    1.5941    0.3165 C.3     1  UNL1        0.0036
      3 H          -0.7213    2.5165    0.0316 H       1  UNL1        0.0876
      4 C          -1.0182    0.7249    1.3216 C.3     1  UNL1        0.1256
      5 H          -2.0094    0.5292    0.8826 H       1  UNL1        0.0702
      6 C          -1.2659    1.3092    2.6985 C.ar    1  UNL1        0.0313
      7 C          -1.2273    2.7051    2.8863 C.ar    1  UNL1       -0.0106
      8 C          -1.4570    3.2993    4.1281 C.ar    1  UNL1        0.1207
      9 C          -1.8055    2.4992    5.2082 C.ar    1  UNL1       -0.0165
     10 C          -1.9052    1.1114    5.0422 C.ar    1  UNL1       -0.0161
     11 C          -1.6108    0.5169    3.8099 C.ar    1  UNL1        0.1261
     12 O          -1.6449   -0.8410    3.5957 O.3     1  UNL1       -0.4947
     13 C          -1.6603   -1.6736    4.7593 C.3     1  UNL1        0.0788
     14 O          -1.2946    4.6546    4.1364 O.3     1  UNL1       -0.4951
     15 C          -1.4562    5.3224    5.3814 C.3     1  UNL1        0.0788
     16 O          -0.3262   -0.5421    1.3166 O.3     1  UNL1       -0.3815
     17 N          -0.0672    0.7840   -0.9481 N.4     1  UNL1        0.2226
     18 H           1.8485    2.2660   -0.0168 H       1  UNL1        0.0285
     19 H           1.7090    0.9878    1.1974 H       1  UNL1        0.0285
     20 H           1.2271    2.6404    1.5874 H       1  UNL1        0.0285
     21 H          -1.0131    3.3886    2.0718 H       1  UNL1        0.0659
     22 H          -2.0218    2.9172    6.1870 H       1  UNL1        0.0655
     23 H          -2.2143    0.5295    5.9044 H       1  UNL1        0.0655
     24 H          -1.4358   -2.6960    4.4372 H       1  UNL1        0.0660
     25 H          -0.8833   -1.3775    5.4717 H       1  UNL1        0.0660
     26 H          -2.6487   -1.6744    5.2258 H       1  UNL1        0.0660
     27 H          -2.4996    5.2754    5.7073 H       1  UNL1        0.0660
     28 H          -0.7820    4.9197    6.1433 H       1  UNL1        0.0660
     29 H          -1.1948    6.3741    5.2286 H       1  UNL1        0.0660
     30 H          -0.3830   -0.8965    2.2309 H       1  UNL1        0.2105
     31 H          -0.9595    0.6999   -1.4486 H       1  UNL1        0.1998
     32 H           0.6467    1.1361   -1.5839 H       1  UNL1        0.1998
     33 H           0.1956   -0.1695   -0.6505 H       1  UNL1        0.1998
@<TRIPOS>UNITY_ATOM_ATTR
17 1
charge 1
@<TRIPOS>BOND
     1     1    18    1
     2     1    19    1
     3     1    20    1
     4     2    17    1
     5     4     6    1
     6     4    16    1
     7     6    11   ar
     8     6     7   ar
     9     7     8   ar
    10     7    21    1
    11     8     9   ar
    12     8    14    1
    13     9    10   ar
    14     9    22    1
    15    10    11   ar
    16    10    23    1
    17    11    12    1
    18    12    13    1
    19    13    24    1
    20    13    25    1
    21    13    26    1
    22    14    15    1
    23    15    27    1
    24    15    28    1
    25    15    29    1
    26    16    30    1
    27    17    31    1
    28    17    32    1
    29    17    33    1
    30     2     3    1
    31     2     1    1
    32     4     5    1
    33     4     2    1
