@<TRIPOS>MOLECULE
ZINC03830990
 26 26 0 0 0
SMALL
GASTEIGER

@<TRIPOS>ATOM
      1 C           0.7999   -2.5447   -0.4338 C.3     1  UNL1       -0.0631
      2 C           0.3949   -2.2479   -1.8727 C.3     1  UNL1       -0.0286
      3 C           1.0602   -0.9878   -2.4635 C.3     1  UNL1        0.1017
      4 H           0.7494   -0.1250   -1.8581 H       1  UNL1        0.0596
      5 C           0.5432   -0.7009   -3.9037 C.2     1  UNL1        0.2310
      6 O           1.2566   -0.4962   -4.8803 O.2     1  UNL1       -0.2740
      7 N          -0.8125   -0.6409   -4.0688 N.am    1  UNL1       -0.3278
      8 N           2.5221   -1.0687   -2.3710 N.am    1  UNL1       -0.2899
      9 C           3.3610   -1.7085   -3.3612 C.3     1  UNL1        0.0159
     10 C           4.6724   -1.9236   -2.6324 C.3     1  UNL1       -0.0289
     11 C           4.7205   -0.7824   -1.6248 C.3     1  UNL1        0.0256
     12 C           3.2625   -0.5380   -1.3257 C.2     1  UNL1        0.2162
     13 O           2.8283    0.0452   -0.3474 O.2     1  UNL1       -0.2756
     14 H           1.8623   -2.7945   -0.3585 H       1  UNL1        0.0230
     15 H           0.2361   -3.4019   -0.0531 H       1  UNL1        0.0230
     16 H           0.5939   -1.6895    0.2177 H       1  UNL1        0.0230
     17 H           0.6259   -3.1191   -2.4971 H       1  UNL1        0.0285
     18 H          -0.6957   -2.1366   -1.8893 H       1  UNL1        0.0285
     19 H          -1.4809   -0.7108   -3.3140 H       1  UNL1        0.1450
     20 H          -1.1528   -0.4195   -4.9966 H       1  UNL1        0.1450
     21 H           3.5036   -1.0281   -4.2050 H       1  UNL1        0.0465
     22 H           2.9187   -2.6497   -3.6991 H       1  UNL1        0.0465
     23 H           5.5335   -1.9311   -3.3068 H       1  UNL1        0.0285
     24 H           4.6510   -2.8839   -2.1020 H       1  UNL1        0.0285
     25 H           5.1440    0.1270   -2.0619 H       1  UNL1        0.0359
     26 H           5.2696   -1.0637   -0.7239 H       1  UNL1        0.0359
@<TRIPOS>BOND
     1     1     2    1
     2     1    14    1
     3     1    15    1
     4     1    16    1
     5     2    17    1
     6     2    18    1
     7     3     5    1
     8     3     8    1
     9     5     6    2
    10     5     7   am
    11     7    19    1
    12     7    20    1
    13     8    12   am
    14     8     9    1
    15     9    10    1
    16     9    21    1
    17     9    22    1
    18    10    11    1
    19    10    23    1
    20    10    24    1
    21    11    12    1
    22    11    25    1
    23    11    26    1
    24    12    13    2
    25     3     4    1
    26     3     2    1
