@<TRIPOS>MOLECULE
ZINC03872738
 24 24 0 0 0
SMALL
GASTEIGER

@<TRIPOS>ATOM
      1 C          -0.0356   -2.1553    0.1244 C.ar    1  UNL1       -0.0590
      2 C          -1.0791   -1.4359    0.6971 C.ar    1  UNL1       -0.0430
      3 C          -1.0578   -0.0345    0.6939 C.ar    1  UNL1        0.0460
      4 C          -0.0002    0.6782    0.0971 C.ar    1  UNL1       -0.0005
      5 C           1.0566   -0.0721   -0.4542 C.ar    1  UNL1        0.0460
      6 C           1.0343   -1.4739   -0.4442 C.ar    1  UNL1       -0.0430
      7 CL          2.4402    0.6798   -1.1695 Cl      1  UNL1       -0.0832
      8 C           0.0273    2.1958    0.0924 C.3     1  UNL1        0.0702
      9 C           0.7177    2.8051    1.3036 C.2     1  UNL1        0.3141
     10 O           1.1557    2.1263    2.2325 O.2     1  UNL1       -0.2538
     11 N           0.7988    4.1795    1.2411 N.am    1  UNL1       -0.0046
     12 C           0.7916    4.8497    2.3436 C.2     1  UNL1        0.3745
     13 N           0.6746    4.3890    3.6117 N.pl3   1  UNL1       -0.2907
     14 N           0.8437    6.1991    2.3149 N.pl3   1  UNL1       -0.2907
     15 CL         -2.3858    0.7657    1.4617 Cl      1  UNL1       -0.0832
     16 H          -0.0515   -3.2438    0.1312 H       1  UNL1        0.0618
     17 H          -1.9087   -1.9718    1.1531 H       1  UNL1        0.0632
     18 H           1.8565   -2.0381   -0.8792 H       1  UNL1        0.0632
     19 H           0.5188    2.5645   -0.8150 H       1  UNL1        0.0424
     20 H          -0.9908    2.5982    0.0417 H       1  UNL1        0.0424
     21 H           1.2256    4.8685    4.3085 H       1  UNL1        0.2545
     22 H           0.8211    3.3790    3.6727 H       1  UNL1        0.2545
     23 H           1.1308    6.5914    1.4262 H       1  UNL1        0.2545
     24 H           1.1830    6.6923    3.1261 H       1  UNL1        0.2545
@<TRIPOS>BOND
     1     1     6   ar
     2     1     2   ar
     3     1    16    1
     4     2     3   ar
     5     2    17    1
     6     3     4   ar
     7     3    15    1
     8     4     5   ar
     9     4     8    1
    10     5     6   ar
    11     5     7    1
    12     6    18    1
    13     8     9    1
    14     8    19    1
    15     8    20    1
    16     9    10    2
    17     9    11    1
    18    11    12    2
    19    12    13    1
    20    12    14    1
    21    13    21    1
    22    13    22    1
    23    14    23    1
    24    14    24    1
