@<TRIPOS>MOLECULE
ZINC00125006
 25 26 0 0 0
SMALL
GASTEIGER

@<TRIPOS>ATOM
      1 C           1.3932   -0.2479    0.1305 C.ar    1  UNL1       -0.0617
      2 C           0.4918   -1.1648    0.6686 C.ar    1  UNL1       -0.0615
      3 C          -0.8803   -0.9192    0.5987 C.ar    1  UNL1       -0.0580
      4 C          -1.3601    0.2445   -0.0190 C.ar    1  UNL1       -0.0360
      5 C          -0.4433    1.1647   -0.5477 C.ar    1  UNL1       -0.0580
      6 C           0.9276    0.9151   -0.4728 C.ar    1  UNL1       -0.0615
      7 C          -2.8407    0.5356   -0.0608 C.3     1  UNL1        0.0715
      8 C          -3.3498    1.3141    1.0954 C.2     1  UNL1        0.2428
      9 N          -2.6037    1.7232    2.1046 N.2     1  UNL1       -0.2754
     10 C          -3.4513    2.3456    3.1302 C.3     1  UNL1        0.1197
     11 C          -4.7925    2.5132    2.3974 C.3     1  UNL1        0.1149
     12 N          -4.6185    1.6640    1.2071 N.pl3   1  UNL1       -0.2367
     13 H           2.4631   -0.4498    0.1731 H       1  UNL1        0.0618
     14 H           0.8610   -2.0776    1.1312 H       1  UNL1        0.0618
     15 H          -1.5633   -1.6539    1.0213 H       1  UNL1        0.0620
     16 H          -0.7819    2.0784   -1.0333 H       1  UNL1        0.0620
     17 H           1.6359    1.6237   -0.8991 H       1  UNL1        0.0618
     18 H          -3.0753    1.0766   -0.9867 H       1  UNL1        0.0434
     19 H          -3.3924   -0.4115   -0.1208 H       1  UNL1        0.0434
     20 H          -3.0260    3.2961    3.4639 H       1  UNL1        0.0782
     21 H          -3.5398    1.6528    3.9713 H       1  UNL1        0.0782
     22 H          -5.6458    2.1778    2.9921 H       1  UNL1        0.0764
     23 H          -4.9413    3.5450    2.0669 H       1  UNL1        0.0764
     24 H          -5.3074    1.4048    0.5086 H       1  UNL1        0.2910
     25 H          -1.6048    1.5339    2.1286 H       1  UNL1        0.3036
@<TRIPOS>BOND
     1     1     6   ar
     2     1     2   ar
     3     1    13    1
     4     2     3   ar
     5     2    14    1
     6     3     4   ar
     7     3    15    1
     8     4     5   ar
     9     4     7    1
    10     5     6   ar
    11     5    16    1
    12     6    17    1
    13     7     8    1
    14     7    18    1
    15     7    19    1
    16     8    12    1
    17     8     9    2
    18     9    10    1
    19     9    25    1
    20    10    11    1
    21    10    20    1
    22    10    21    1
    23    11    12    1
    24    11    22    1
    25    11    23    1
    26    12    24    1
