@<TRIPOS>MOLECULE
ZINC03830986
 40 42 0 0 0
SMALL
GASTEIGER

@<TRIPOS>ATOM
      1 C           4.3171    4.1150    2.2832 C.3     1  UNL1       -0.0348
      2 C           4.3918    4.4658    0.8175 C.2     1  UNL1        0.0085
      3 C           5.6564    5.0641    0.3232 C.2     1  UNL1        0.1232
      4 C           5.7121    5.5601   -0.9308 C.2     1  UNL1       -0.0199
      5 C           4.5567    5.4864   -1.7851 C.3     1  UNL1        0.0643
      6 N           3.4266    4.8741   -1.3208 N.pl3   1  UNL1       -0.3376
      7 C           3.3259    4.3555   -0.0317 C.2     1  UNL1        0.0236
      8 C           2.0014    3.7952    0.4517 C.3     1  UNL1        0.0690
      9 S           0.8115    3.0784   -0.7088 S.O     1  UNL1        0.0951
     10 O          -0.4013    2.6966    0.0989 O.2     1  UNL1       -0.2488
     11 C           1.5194    1.5578   -1.1749 C.ar    1  UNL1        0.1981
     12 N           0.9227    0.3520   -0.8842 N.ar    1  UNL1       -0.3310
     13 H           0.1410    0.2433   -0.2541 H       1  UNL1        0.1679
     14 C           1.3670   -0.5765   -1.7909 C.ar    1  UNL1        0.0669
     15 C           0.9844   -1.8964   -2.0645 C.ar    1  UNL1       -0.0362
     16 C           1.5869   -2.5128   -3.1649 C.ar    1  UNL1       -0.0597
     17 C           2.5458   -1.8464   -3.9323 C.ar    1  UNL1       -0.0596
     18 C           2.9425   -0.5387   -3.6111 C.ar    1  UNL1       -0.0342
     19 C           2.3277    0.1107   -2.5286 C.ar    1  UNL1        0.0900
     20 N           2.4655    1.4105   -2.0782 N.ar    1  UNL1       -0.2200
     21 O           6.6953    5.0546    1.2306 O.2     1  UNL1       -0.4830
     22 C           7.7180    6.0557    1.1079 C.3     1  UNL1        0.1842
     23 C           8.8792    5.7073    0.1805 C.3     1  UNL1        0.4236
     24 F           8.7818    4.4784   -0.3650 F       1  UNL1       -0.1671
     25 F           8.9567    6.5991   -0.8384 F       1  UNL1       -0.1671
     26 F          10.0602    5.7653    0.8424 F       1  UNL1       -0.1671
     27 H           3.3178    4.3035    2.6916 H       1  UNL1        0.0279
     28 H           4.9901    4.7244    2.8950 H       1  UNL1        0.0279
     29 H           4.5633    3.0612    2.4386 H       1  UNL1        0.0279
     30 H           6.6020    5.9935   -1.3642 H       1  UNL1        0.0627
     31 H           4.5415    5.9010   -2.7857 H       1  UNL1        0.0564
     32 H           2.1285    3.0689    1.2591 H       1  UNL1        0.0467
     33 H           1.4548    4.6507    0.8728 H       1  UNL1        0.0467
     34 H           0.2281   -2.4097   -1.4799 H       1  UNL1        0.0639
     35 H           1.2918   -3.5241   -3.4428 H       1  UNL1        0.0618
     36 H           2.9794   -2.3398   -4.8008 H       1  UNL1        0.0618
     37 H           3.6745   -0.0155   -4.2164 H       1  UNL1        0.0639
     38 H           7.2802    7.0280    0.8502 H       1  UNL1        0.0788
     39 H           8.1254    6.1795    2.1182 H       1  UNL1        0.0788
     40 H           2.6265    4.8391   -1.9396 H       1  UNL1        0.1465
@<TRIPOS>BOND
     1     1     2    1
     2     1    27    1
     3     1    28    1
     4     1    29    1
     5     2     7    2
     6     2     3    1
     7     3     4    2
     8     3    21    1
     9     4     5    1
    10     4    30    1
    11     5     6    1
    12     5    31    1
    13     6     7    1
    14     6    40    1
    15     7     8    1
    16     8    32    1
    17     8    33    1
    18     9    11    1
    19    11    20   ar
    20    11    12   ar
    21    12    13    1
    22    12    14   ar
    23    14    19   ar
    24    14    15   ar
    25    15    16   ar
    26    15    34    1
    27    16    17   ar
    28    16    35    1
    29    17    18   ar
    30    17    36    1
    31    18    19   ar
    32    18    37    1
    33    19    20   ar
    34    21    22    1
    35    22    23    1
    36    22    38    1
    37    22    39    1
    38    23    24    1
    39    23    25    1
    40    23    26    1
    41     9    10    2
    42     9     8    1
