@<TRIPOS>MOLECULE
ZINC03830417
 46 48 0 0 0
SMALL
GASTEIGER

@<TRIPOS>ATOM
      1 C           0.1304   -4.8266   -2.2009 C.3     1  UNL1        0.0346
      2 N          -0.3313   -3.6499   -2.8793 N.ar    1  UNL1       -0.2233
      3 C          -0.7885   -2.4588   -2.3980 C.ar    1  UNL1        0.2094
      4 N          -1.0540   -1.6732   -3.4188 N.ar    1  UNL1       -0.1015
      5 N          -0.7433   -2.3962   -4.5458 N.ar    1  UNL1       -0.0222
      6 N          -0.2887   -3.6008   -4.2274 N.ar    1  UNL1       -0.0435
      7 S          -0.7094   -1.9560   -0.7540 S.3     1  UNL1       -0.0801
      8 C          -2.0465   -2.8947    0.0792 C.3     1  UNL1        0.0253
      9 C          -2.3482   -2.3769    1.4941 C.2     1  UNL1       -0.0210
     10 C          -2.7426   -3.1864    2.5348 C.2     1  UNL1        0.1273
     11 N          -3.0884   -2.5916    3.7328 N.am    1  UNL1       -0.2438
     12 C          -3.5937   -1.2405    3.8030 C.3     1  UNL1        0.1322
     13 H          -4.5042   -1.0704    3.2177 H       1  UNL1        0.0672
     14 C          -3.8856   -1.4713    5.3321 C.3     1  UNL1        0.2424
     15 C          -3.1519   -2.8756    5.0552 C.2     1  UNL1        0.2746
     16 O          -2.7204   -3.7617    5.7577 O.2     1  UNL1       -0.2701
     17 N          -3.1924   -0.5148    6.2578 N.am    1  UNL1       -0.2773
     18 C          -3.4688    0.8396    6.1959 C.2     1  UNL1        0.2254
     19 O          -4.2845    1.3198    5.4114 O.2     1  UNL1       -0.2748
     20 C          -2.7300    1.7168    7.1528 C.3     1  UNL1        0.0712
     21 S          -1.0798    2.0797    6.5733 S.3     1  UNL1       -0.1365
     22 C          -1.1676    3.4682    5.0354 C.3     1  UNL1        0.0811
     23 C           0.3406    3.5877    5.1821 C.1     1  UNL1        0.0732
     24 N           1.5918    3.6869    5.3038 N.1     1  UNL1       -0.1957
     25 O          -5.3079   -1.6052    5.6337 O.3     1  UNL1       -0.3492
     26 C          -5.6579   -2.0082    6.9441 C.3     1  UNL1        0.0396
     27 S          -2.1824   -0.2043    3.3129 S.3     1  UNL1       -0.1285
     28 C          -2.2645   -0.8556    1.6285 C.3     1  UNL1        0.0197
     29 C          -2.9863   -4.7720    2.4177 C.2     1  UNL1        0.4006
     30 O          -3.8165   -5.2372    3.2514 O.co2   1  UNL1       -0.2392
     31 O          -2.4247   -5.3552    1.4480 O.co2   1  UNL1       -0.2392
     32 H          -0.5113   -5.6599   -2.4966 H       1  UNL1        0.0474
     33 H           1.1635   -5.0171   -2.5025 H       1  UNL1        0.0474
     34 H           0.0901   -4.6954   -1.1205 H       1  UNL1        0.0474
     35 H          -2.9620   -2.8448   -0.5203 H       1  UNL1        0.0427
     36 H          -1.6782   -3.9134    0.0671 H       1  UNL1        0.0427
     37 H          -2.3804   -0.8404    6.7762 H       1  UNL1        0.1520
     38 H          -3.2973    2.6165    7.4032 H       1  UNL1        0.0471
     39 H          -2.6115    1.1563    8.0903 H       1  UNL1        0.0471
     40 H          -1.5225    2.9316    4.1594 H       1  UNL1        0.0531
     41 H          -1.7464    4.3168    5.3929 H       1  UNL1        0.0531
     42 H          -4.9796   -2.7744    7.3267 H       1  UNL1        0.0524
     43 H          -5.6512   -1.1372    7.6062 H       1  UNL1        0.0524
     44 H          -6.6736   -2.4119    6.9177 H       1  UNL1        0.0524
     45 H          -3.1302   -0.4104    1.1261 H       1  UNL1        0.0423
     46 H          -1.3657   -0.4431    1.1754 H       1  UNL1        0.0423
@<TRIPOS>BOND
     1     1     2    1
     2     1    32    1
     3     1    33    1
     4     1    34    1
     5     2     6   ar
     6     2     3   ar
     7     3     4   ar
     8     3     7    1
     9     4     5   ar
    10     5     6   ar
    11     7     8    1
    12     8     9    1
    13     8    35    1
    14     8    36    1
    15     9    28    1
    16     9    10    2
    17    10    11    1
    18    10    29    1
    19    11    15   am
    20    11    12    1
    21    12    13    1
    22    12    14    1
    23    12    27    1
    24    14    15    1
    25    14    17    1
    26    14    25    1
    27    15    16    2
    28    17    18   am
    29    17    37    1
    30    18    19    2
    31    18    20    1
    32    20    21    1
    33    20    38    1
    34    20    39    1
    35    21    22    1
    36    22    23    1
    37    22    40    1
    38    22    41    1
    39    23    24    3
    40    25    26    1
    41    26    42    1
    42    26    43    1
    43    26    44    1
    44    27    28    1
    45    28    45    1
    46    28    46    1
    47    29    30   ar
    48    29    31   ar
