@<TRIPOS>MOLECULE
ZINC00002002
 46 47 0 0 0
SMALL
GASTEIGER

@<TRIPOS>ATOM
      1 C          -2.3866   -0.9008    3.6362 C.3     1  UNL1       -0.0433
      2 N          -3.1684   -1.4690    2.4897 N.4     1  UNL1        0.2318
      3 C          -4.6473   -1.3376    2.7285 C.3     1  UNL1       -0.0433
      4 C          -2.7758   -0.9231    1.1287 C.3     1  UNL1       -0.0193
      5 C          -1.3483   -1.3468    0.7104 C.3     1  UNL1        0.0417
      6 N          -0.9915   -2.7833    0.8346 N.3     1  UNL1       -0.2663
      7 C          -1.6144   -3.6119   -0.2340 C.3     1  UNL1        0.0266
      8 C          -3.0820   -3.9117   -0.0052 C.ar    1  UNL1       -0.0331
      9 C          -3.5014   -4.6373    1.1215 C.ar    1  UNL1       -0.0539
     10 C          -4.8527   -4.9365    1.3016 C.ar    1  UNL1       -0.0197
     11 C          -5.8080   -4.5297    0.3658 C.ar    1  UNL1        0.1201
     12 C          -5.3951   -3.8376   -0.7707 C.ar    1  UNL1       -0.0197
     13 C          -4.0401   -3.5391   -0.9579 C.ar    1  UNL1       -0.0539
     14 O          -7.0914   -4.8881    0.6640 O.3     1  UNL1       -0.4951
     15 C          -8.1292   -4.2992   -0.1155 C.3     1  UNL1        0.0788
     16 C           0.4484   -3.0270    0.8921 C.3     1  UNL1        0.1451
     17 C           1.4702   -1.9873    1.0704 C.2     1  UNL1       -0.0425
     18 C           2.7366   -2.3091    1.4071 C.2     1  UNL1       -0.0611
     19 C           3.1214   -3.6960    1.5689 C.2     1  UNL1       -0.0484
     20 C           2.2038   -4.6394    1.3263 C.2     1  UNL1       -0.0089
     21 N           0.9071   -4.3268    0.9740 N.pl3   1  UNL1       -0.3257
     22 H          -2.6249    0.1629    3.7267 H       1  UNL1        0.0777
     23 H          -1.3213   -1.0486    3.4549 H       1  UNL1        0.0777
     24 H          -2.6781   -1.4407    4.5415 H       1  UNL1        0.0777
     25 H          -4.8887   -0.2741    2.8229 H       1  UNL1        0.0777
     26 H          -5.1818   -1.7765    1.8845 H       1  UNL1        0.0777
     27 H          -4.8929   -1.8751    3.6479 H       1  UNL1        0.0777
     28 H          -3.5154   -1.2718    0.4059 H       1  UNL1        0.0827
     29 H          -2.8527    0.1681    1.1855 H       1  UNL1        0.0827
     30 H          -1.1515   -0.9877   -0.3082 H       1  UNL1        0.0480
     31 H          -0.7113   -0.7484    1.3683 H       1  UNL1        0.0480
     32 H          -1.4636   -3.1389   -1.2136 H       1  UNL1        0.0476
     33 H          -1.1537   -4.6034   -0.3297 H       1  UNL1        0.0476
     34 H          -2.7768   -4.9924    1.8516 H       1  UNL1        0.0622
     35 H          -5.1701   -5.5152    2.1693 H       1  UNL1        0.0654
     36 H          -6.0952   -3.5440   -1.5471 H       1  UNL1        0.0654
     37 H          -3.7346   -3.0292   -1.8705 H       1  UNL1        0.0622
     38 H          -8.1239   -3.2121    0.0011 H       1  UNL1        0.0660
     39 H          -8.0521   -4.5861   -1.1701 H       1  UNL1        0.0660
     40 H          -9.0838   -4.6779    0.2613 H       1  UNL1        0.0660
     41 H           1.2472   -0.9441    0.8991 H       1  UNL1        0.0608
     42 H           3.5003   -1.5493    1.5382 H       1  UNL1        0.0616
     43 H           4.1357   -3.9403    1.8717 H       1  UNL1        0.0630
     44 H           2.4192   -5.7021    1.4106 H       1  UNL1        0.0778
     45 H           0.2295   -5.0717    1.0474 H       1  UNL1        0.1477
     46 H          -2.9451   -2.4739    2.4427 H       1  UNL1        0.2028
@<TRIPOS>UNITY_ATOM_ATTR
2 1
charge 1
@<TRIPOS>BOND
     1     1     2    1
     2     1    22    1
     3     1    23    1
     4     1    24    1
     5     2     3    1
     6     2     4    1
     7     2    46    1
     8     3    25    1
     9     3    26    1
    10     3    27    1
    11     4     5    1
    12     4    28    1
    13     4    29    1
    14     5     6    1
    15     5    30    1
    16     5    31    1
    17     6     7    1
    18     6    16    1
    19     7     8    1
    20     7    32    1
    21     7    33    1
    22     8    13   ar
    23     8     9   ar
    24     9    10   ar
    25     9    34    1
    26    10    11   ar
    27    10    35    1
    28    11    12   ar
    29    11    14    1
    30    12    13   ar
    31    12    36    1
    32    13    37    1
    33    14    15    1
    34    15    38    1
    35    15    39    1
    36    15    40    1
    37    16    21    1
    38    16    17    1
    39    17    18    2
    40    17    41    1
    41    18    19    1
    42    18    42    1
    43    19    20    2
    44    19    43    1
    45    20    21    1
    46    20    44    1
    47    21    45    1
