@<TRIPOS>MOLECULE
ZINC01566899
 80 85 0 0 0
SMALL
GASTEIGER

@<TRIPOS>ATOM
      1 C           1.5543   -0.7248   -0.1851 C.3     1  UNL1       -0.0406
      2 N           0.7092   -0.4802    1.0654 N.4     1  UNL1        0.2477
      3 C           1.1852    0.8989    1.6413 C.3     1  UNL1       -0.0406
      4 C          -0.7262   -0.0895    0.5983 C.3     1  UNL1       -0.0297
      5 C          -1.7749   -1.0349    0.0266 C.3     1  UNL1       -0.0124
      6 C          -2.1348   -2.2963    0.7593 C.3     1  UNL1       -0.0481
      7 C          -3.0726   -2.4724    1.9835 C.3     1  UNL1       -0.0481
      8 C          -2.7330   -1.8740    3.3940 C.3     1  UNL1       -0.0124
      9 C          -2.8222   -0.3643    3.3061 C.3     1  UNL1       -0.0297
     10 N          -2.3912    0.6155    4.4032 N.4     1  UNL1        0.2477
     11 C          -1.0239    0.2402    4.9246 C.3     1  UNL1       -0.0406
     12 C          -2.3050    1.9898    3.6948 C.3     1  UNL1       -0.0406
     13 C          -3.3945    0.7755    5.6298 C.3     1  UNL1        0.0333
     14 C          -2.9509    1.7490    6.7693 C.ar    1  UNL1        0.0126
     15 C          -1.7994    1.8107    7.5522 C.ar    1  UNL1       -0.0523
     16 C          -1.6965    2.7734    8.5744 C.ar    1  UNL1       -0.0613
     17 C          -2.7668    3.6286    8.8611 C.ar    1  UNL1       -0.0612
     18 C          -3.9197    3.5811    8.0839 C.ar    1  UNL1       -0.0536
     19 C          -4.0020    2.6586    7.0381 C.ar    1  UNL1       -0.0086
     20 C          -5.0855    2.4397    6.1115 C.ar    1  UNL1       -0.0086
     21 C          -4.7683    1.3513    5.2586 C.ar    1  UNL1        0.0126
     22 C          -5.6735    0.9723    4.2829 C.ar    1  UNL1       -0.0523
     23 C          -6.8488    1.7048    4.1211 C.ar    1  UNL1       -0.0613
     24 C          -7.1584    2.7695    4.9723 C.ar    1  UNL1       -0.0612
     25 C          -6.2762    3.1441    5.9868 C.ar    1  UNL1       -0.0536
     26 C           1.1296   -1.6925    2.1905 C.3     1  UNL1        0.0333
     27 C           1.1523   -3.2185    1.8087 C.ar    1  UNL1        0.0126
     28 C           0.1736   -4.2040    1.6638 C.ar    1  UNL1       -0.0523
     29 C           0.4810   -5.5009    1.2207 C.ar    1  UNL1       -0.0613
     30 C           1.7975   -5.9217    1.1749 C.ar    1  UNL1       -0.0612
     31 C           2.7909   -5.0498    1.5907 C.ar    1  UNL1       -0.0536
     32 C           2.4658   -3.7183    1.8742 C.ar    1  UNL1       -0.0086
     33 C           3.3431   -2.7081    2.3840 C.ar    1  UNL1       -0.0086
     34 C           2.6209   -1.5287    2.6591 C.ar    1  UNL1        0.0126
     35 C           3.3124   -0.4614    3.2301 C.ar    1  UNL1       -0.0523
     36 C           4.7094   -0.5297    3.3529 C.ar    1  UNL1       -0.0613
     37 C           5.4021   -1.7036    3.0528 C.ar    1  UNL1       -0.0612
     38 C           4.7076   -2.8209    2.6177 C.ar    1  UNL1       -0.0536
     39 H           1.4273    0.1389   -0.8479 H       1  UNL1        0.0778
     40 H           1.1983   -1.6383   -0.6582 H       1  UNL1        0.0778
     41 H           2.6019   -0.7904    0.1068 H       1  UNL1        0.0778
     42 H           0.7298    1.7205    1.0745 H       1  UNL1        0.0778
     43 H           0.8400    0.9725    2.6759 H       1  UNL1        0.0778
     44 H           2.2634    1.0029    1.5385 H       1  UNL1        0.0778
     45 H          -1.1478    0.5608    1.3555 H       1  UNL1        0.0815
     46 H          -0.5640    0.6381   -0.2125 H       1  UNL1        0.0815
     47 H          -2.6936   -0.4703   -0.1889 H       1  UNL1        0.0317
     48 H          -1.3900   -1.3313   -0.9609 H       1  UNL1        0.0317
     49 H          -2.5095   -2.9974   -0.0019 H       1  UNL1        0.0267
     50 H          -1.1590   -2.6221    1.0091 H       1  UNL1        0.0267
     51 H          -4.0803   -2.1595    1.6902 H       1  UNL1        0.0267
     52 H          -3.1419   -3.5616    2.1349 H       1  UNL1        0.0267
     53 H          -3.4550   -2.2671    4.1191 H       1  UNL1        0.0317
     54 H          -1.7416   -2.2255    3.7014 H       1  UNL1        0.0317
     55 H          -2.0626   -0.1930    2.5813 H       1  UNL1        0.0815
     56 H          -3.7402   -0.0278    2.8321 H       1  UNL1        0.0815
     57 H          -0.4033   -0.0358    4.0784 H       1  UNL1        0.0778
     58 H          -0.5563    1.1144    5.3780 H       1  UNL1        0.0778
     59 H          -1.1108   -0.6062    5.6115 H       1  UNL1        0.0778
     60 H          -3.2247    2.1513    3.1218 H       1  UNL1        0.0778
     61 H          -2.1366    2.7790    4.4236 H       1  UNL1        0.0778
     62 H          -1.4628    1.9537    2.9971 H       1  UNL1        0.0778
     63 H          -3.5173   -0.2234    6.0526 H       1  UNL1        0.0958
     64 H          -0.9545    1.1449    7.4390 H       1  UNL1        0.0623
     65 H          -0.8033    2.8377    9.1861 H       1  UNL1        0.0618
     66 H          -2.6943    4.3459    9.6794 H       1  UNL1        0.0618
     67 H          -4.7504    4.2423    8.3164 H       1  UNL1        0.0624
     68 H          -5.5241    0.1172    3.6408 H       1  UNL1        0.0623
     69 H          -7.5528    1.4390    3.3340 H       1  UNL1        0.0618
     70 H          -8.0797    3.3214    4.8424 H       1  UNL1        0.0618
     71 H          -6.5167    3.9674    6.6464 H       1  UNL1        0.0624
     72 H           0.4632   -1.5459    3.0415 H       1  UNL1        0.0958
     73 H          -0.8664   -4.0897    1.9352 H       1  UNL1        0.0623
     74 H          -0.3158   -6.2002    0.9678 H       1  UNL1        0.0618
     75 H           2.0392   -6.9444    0.8922 H       1  UNL1        0.0618
     76 H           3.8036   -5.4257    1.7070 H       1  UNL1        0.0624
     77 H           2.8437    0.4593    3.5537 H       1  UNL1        0.0623
     78 H           5.2784    0.3381    3.6853 H       1  UNL1        0.0618
     79 H           6.4835   -1.7540    3.1672 H       1  UNL1        0.0618
     80 H           5.2402   -3.7524    2.4443 H       1  UNL1        0.0624
@<TRIPOS>UNITY_ATOM_ATTR
2 1
charge 1
10 1
charge 1
@<TRIPOS>BOND
     1     1     2    1
     2     1    39    1
     3     1    40    1
     4     1    41    1
     5     2     3    1
     6     2     4    1
     7     2    26    1
     8     3    42    1
     9     3    43    1
    10     3    44    1
    11     4     5    1
    12     4    45    1
    13     4    46    1
    14     5     6    1
    15     5    47    1
    16     5    48    1
    17     6     7    1
    18     6    49    1
    19     6    50    1
    20     7     8    1
    21     7    51    1
    22     7    52    1
    23     8     9    1
    24     8    53    1
    25     8    54    1
    26     9    10    1
    27     9    55    1
    28     9    56    1
    29    10    11    1
    30    10    12    1
    31    10    13    1
    32    11    57    1
    33    11    58    1
    34    11    59    1
    35    12    60    1
    36    12    61    1
    37    12    62    1
    38    13    21    1
    39    13    14    1
    40    13    63    1
    41    14    19   ar
    42    14    15   ar
    43    15    16   ar
    44    15    64    1
    45    16    17   ar
    46    16    65    1
    47    17    18   ar
    48    17    66    1
    49    18    19   ar
    50    18    67    1
    51    19    20    1
    52    20    25   ar
    53    20    21   ar
    54    21    22   ar
    55    22    23   ar
    56    22    68    1
    57    23    24   ar
    58    23    69    1
    59    24    25   ar
    60    24    70    1
    61    25    71    1
    62    26    34    1
    63    26    27    1
    64    26    72    1
    65    27    32   ar
    66    27    28   ar
    67    28    29   ar
    68    28    73    1
    69    29    30   ar
    70    29    74    1
    71    30    31   ar
    72    30    75    1
    73    31    32   ar
    74    31    76    1
    75    32    33    1
    76    33    38   ar
    77    33    34   ar
    78    34    35   ar
    79    35    36   ar
    80    35    77    1
    81    36    37   ar
    82    36    78    1
    83    37    38   ar
    84    37    79    1
    85    38    80    1
