@<TRIPOS>MOLECULE
ZINC00007563
 32 33 0 0 0
SMALL
GASTEIGER

@<TRIPOS>ATOM
      1 C           2.5542    0.0636   -0.0374 C.3     1  UNL1       -0.0397
      2 C           1.0580    0.0322   -0.0531 C.ar    1  UNL1       -0.0501
      3 C           0.3896   -1.1911   -0.0646 C.ar    1  UNL1       -0.0571
      4 C          -1.0036   -1.2262   -0.0624 C.ar    1  UNL1       -0.0400
      5 C          -1.7710   -0.0507   -0.0296 C.ar    1  UNL1        0.0352
      6 C          -1.1010    1.1879   -0.0387 C.ar    1  UNL1       -0.0152
      7 C           0.3072    1.2126   -0.0630 C.ar    1  UNL1       -0.0534
      8 C          -1.8377    2.5085   -0.0376 C.3     1  UNL1        0.0760
      9 C          -2.1519    2.9413   -1.4667 C.2     1  UNL1        0.3603
     10 O          -3.2171    2.4410   -1.9425 O.co2   1  UNL1       -0.2460
     11 O          -1.3520    3.7765   -1.9814 O.co2   1  UNL1       -0.2460
     12 N          -3.1792   -0.1112    0.0699 N.pl3   1  UNL1       -0.3109
     13 C          -3.9859   -1.0876    0.7028 C.ar    1  UNL1        0.0855
     14 C          -3.5201   -1.8363    1.8033 C.ar    1  UNL1        0.1458
     15 C          -4.2591   -2.8770    2.3705 C.ar    1  UNL1       -0.0245
     16 C          -5.5151   -3.1859    1.8700 C.ar    1  UNL1       -0.0576
     17 C          -6.0270   -2.4359    0.8115 C.ar    1  UNL1       -0.0414
     18 C          -5.2703   -1.3988    0.2362 C.ar    1  UNL1        0.0649
     19 CL         -5.9892   -0.5306   -1.0750 Cl      1  UNL1       -0.0815
     20 F          -2.3384   -1.5637    2.3797 F       1  UNL1       -0.2035
     21 H           2.9282   -0.4638    0.8463 H       1  UNL1        0.0278
     22 H           2.9504   -0.4176   -0.9372 H       1  UNL1        0.0278
     23 H           2.9355    1.0886   -0.0018 H       1  UNL1        0.0278
     24 H           0.9426   -2.1247   -0.0737 H       1  UNL1        0.0621
     25 H          -1.4974   -2.1924   -0.0907 H       1  UNL1        0.0636
     26 H           0.8107    2.1781   -0.0929 H       1  UNL1        0.0624
     27 H          -2.7674    2.4400    0.5422 H       1  UNL1        0.0428
     28 H          -1.2398    3.2788    0.4635 H       1  UNL1        0.0428
     29 H          -3.6379    0.5220   -0.5976 H       1  UNL1        0.1523
     30 H          -3.8346   -3.4294    3.2022 H       1  UNL1        0.0647
     31 H          -6.0908   -3.9987    2.3012 H       1  UNL1        0.0619
     32 H          -7.0181   -2.6648    0.4277 H       1  UNL1        0.0633
@<TRIPOS>BOND
     1     1     2    1
     2     1    21    1
     3     1    22    1
     4     1    23    1
     5     2     7   ar
     6     2     3   ar
     7     3     4   ar
     8     3    24    1
     9     4     5   ar
    10     4    25    1
    11     5     6   ar
    12     5    12    1
    13     6     7   ar
    14     6     8    1
    15     7    26    1
    16     8     9    1
    17     8    27    1
    18     8    28    1
    19     9    10   ar
    20     9    11   ar
    21    12    13    1
    22    12    29    1
    23    13    18   ar
    24    13    14   ar
    25    14    15   ar
    26    14    20    1
    27    15    16   ar
    28    15    30    1
    29    16    17   ar
    30    16    31    1
    31    17    18   ar
    32    17    32    1
    33    18    19    1
