@<TRIPOS>MOLECULE
ZINC00000056
 45 47 0 0 0
SMALL
GASTEIGER

@<TRIPOS>ATOM
      1 C          -3.3399    5.2373    3.8264 C.3     1  UNL1       -0.0426
      2 C          -2.9819    3.2228    5.3180 C.3     1  UNL1       -0.0173
      3 H          -2.9967    3.9833    6.1053 H       1  UNL1        0.0852
      4 C          -1.5611    2.8723    4.8621 C.3     1  UNL1       -0.0045
      5 C          -1.6385    2.7046    3.3469 C.3     1  UNL1       -0.0045
      6 C          -3.1172    2.8404    3.0008 C.3     1  UNL1       -0.0173
      7 H          -3.2846    3.2888    2.0156 H       1  UNL1        0.0852
      8 C          -3.8813    1.5183    3.1428 C.3     1  UNL1        0.0277
      9 C          -3.9425    0.9624    4.5837 C.3     1  UNL1        0.1133
     10 C          -3.8119    2.0031    5.7150 C.3     1  UNL1        0.0277
     11 O          -5.0866    0.0919    4.7908 O.3     1  UNL1       -0.4605
     12 C          -6.3376    0.6243    4.7124 C.2     1  UNL1        0.3171
     13 O          -6.5370    1.8090    4.4270 O.2     1  UNL1       -0.2501
     14 C          -7.4630   -0.3441    5.0557 C.3     1  UNL1        0.1044
     15 H          -8.2704   -0.1002    4.3467 H       1  UNL1        0.0485
     16 C          -8.0312    0.0145    6.4397 C.3     1  UNL1        0.0612
     17 O          -7.0504   -0.0525    7.4727 O.3     1  UNL1       -0.3939
     18 C          -7.1751   -1.8237    4.8186 C.ar    1  UNL1       -0.0315
     19 C          -6.6480   -2.6664    5.8086 C.ar    1  UNL1       -0.0577
     20 C          -6.4267   -4.0257    5.5550 C.ar    1  UNL1       -0.0615
     21 C          -6.7232   -4.5645    4.3058 C.ar    1  UNL1       -0.0617
     22 C          -7.2438   -3.7455    3.3095 C.ar    1  UNL1       -0.0615
     23 C          -7.4662   -2.3885    3.5617 C.ar    1  UNL1       -0.0577
     24 H          -3.8882    5.5424    2.9325 H       1  UNL1        0.0778
     25 H          -3.6955    5.7982    4.6947 H       1  UNL1        0.0778
     26 H          -2.2648    5.3846    3.6915 H       1  UNL1        0.0778
     27 H          -0.8706    3.6873    5.1042 H       1  UNL1        0.0322
     28 H          -1.1771    1.9703    5.3539 H       1  UNL1        0.0322
     29 H          -1.2080    1.7557    3.0098 H       1  UNL1        0.0322
     30 H          -1.0616    3.5027    2.8608 H       1  UNL1        0.0322
     31 H          -3.4119    0.7585    2.5024 H       1  UNL1        0.0356
     32 H          -4.8819    1.6448    2.7175 H       1  UNL1        0.0356
     33 H          -3.0766    0.2961    4.6881 H       1  UNL1        0.0738
     34 H          -3.3646    1.5191    6.5926 H       1  UNL1        0.0356
     35 H          -4.7947    2.3440    6.0590 H       1  UNL1        0.0356
     36 H          -8.4112    1.0423    6.4344 H       1  UNL1        0.0568
     37 H          -8.8617   -0.6512    6.7009 H       1  UNL1        0.0568
     38 H          -7.5355   -0.0515    8.3193 H       1  UNL1        0.2094
     39 H          -6.4069   -2.2912    6.7976 H       1  UNL1        0.0621
     40 H          -6.0282   -4.6646    6.3388 H       1  UNL1        0.0618
     41 H          -6.5556   -5.6233    4.1142 H       1  UNL1        0.0618
     42 H          -7.4866   -4.1678    2.3361 H       1  UNL1        0.0618
     43 H          -7.8938   -1.7816    2.7660 H       1  UNL1        0.0621
     44 N          -3.6265    3.7818    4.0681 N.4     1  UNL1        0.2376
     45 H          -4.6571    3.6963    4.1382 H       1  UNL1        0.2036
@<TRIPOS>UNITY_ATOM_ATTR
44 1
charge 1
@<TRIPOS>BOND
     1     1    24    1
     2     1    25    1
     3     1    26    1
     4     1    44    1
     5     2     3    1
     6     2    10    1
     7     2     4    1
     8     2    44    1
     9     4     5    1
    10     4    27    1
    11     4    28    1
    12     5     6    1
    13     5    29    1
    14     5    30    1
    15     6     7    1
    16     6     8    1
    17     6    44    1
    18     8     9    1
    19     8    31    1
    20     8    32    1
    21     9    10    1
    22    10    34    1
    23    10    35    1
    24    11    12    1
    25    12    13    2
    26    14    16    1
    27    14    18    1
    28    16    17    1
    29    16    36    1
    30    16    37    1
    31    17    38    1
    32    18    23   ar
    33    18    19   ar
    34    19    20   ar
    35    19    39    1
    36    20    21   ar
    37    20    40    1
    38    21    22   ar
    39    21    41    1
    40    22    23   ar
    41    22    42    1
    42    23    43    1
    43    44    45    1
    44    14    15    1
    45    14    12    1
    46     9    33    1
    47     9    11    1
