@<TRIPOS>MOLECULE
ZINC01530718
 45 45 0 0 0
SMALL
GASTEIGER

@<TRIPOS>ATOM
      1 C           3.0514    1.8961   -1.7109 C.3     1  UNL1       -0.0219
      2 C           2.0813    2.6433   -2.6140 C.3     1  UNL1       -0.0283
      3 C           2.0052    1.9956   -3.9938 C.3     1  UNL1       -0.0219
      4 N           0.7040    2.6224   -2.0380 N.4     1  UNL1        0.2307
      5 C           0.4586    3.3225   -0.7197 C.3     1  UNL1       -0.0035
      6 C          -1.0373    3.1544   -0.4197 C.3     1  UNL1        0.1285
      7 H          -1.6210    3.6210   -1.2235 H       1  UNL1        0.0681
      8 C          -1.4656    3.7904    0.9020 C.3     1  UNL1        0.1204
      9 O          -0.7302    3.2105    1.9829 O.3     1  UNL1       -0.4892
     10 C          -0.6755    4.0095    3.1001 C.ar    1  UNL1        0.1206
     11 C          -1.6304    4.9721    3.4328 C.ar    1  UNL1       -0.0197
     12 C          -1.4138    5.8385    4.5091 C.ar    1  UNL1       -0.0550
     13 C          -0.2611    5.7246    5.2920 C.ar    1  UNL1       -0.0450
     14 C           0.6486    4.6960    5.0029 C.ar    1  UNL1       -0.0550
     15 C           0.4369    3.8390    3.9191 C.ar    1  UNL1       -0.0197
     16 C           0.0475    6.7205    6.3903 C.3     1  UNL1       -0.0042
     17 C          -1.0677    6.9408    7.4144 C.3     1  UNL1        0.0513
     18 O          -1.3450    5.7187    8.0958 O.3     1  UNL1       -0.3826
     19 C          -2.3050    5.8975    9.1282 C.3     1  UNL1        0.0365
     20 O          -1.3172    1.7453   -0.4843 O.3     1  UNL1       -0.3831
     21 H           2.7033    0.8798   -1.4991 H       1  UNL1        0.0284
     22 H           3.1897    2.4167   -0.7584 H       1  UNL1        0.0284
     23 H           4.0368    1.8235   -2.1843 H       1  UNL1        0.0284
     24 H           2.3716    3.6949   -2.7128 H       1  UNL1        0.0845
     25 H           1.6609    0.9571   -3.9292 H       1  UNL1        0.0284
     26 H           1.3107    2.5387   -4.6453 H       1  UNL1        0.0284
     27 H           2.9859    1.9967   -4.4798 H       1  UNL1        0.0284
     28 H           0.0500    3.0112   -2.7292 H       1  UNL1        0.2017
     29 H           1.0760    2.8095    0.0238 H       1  UNL1        0.0841
     30 H           0.7587    4.3680   -0.8284 H       1  UNL1        0.0841
     31 H          -1.2820    4.8699    0.8311 H       1  UNL1        0.0725
     32 H          -2.5328    3.5980    1.0666 H       1  UNL1        0.0725
     33 H          -2.5520    5.0873    2.8708 H       1  UNL1        0.0654
     34 H          -2.1536    6.6063    4.7204 H       1  UNL1        0.0621
     35 H           1.5366    4.5645    5.6168 H       1  UNL1        0.0621
     36 H           1.1616    3.0562    3.7109 H       1  UNL1        0.0654
     37 H           0.9484    6.3965    6.9269 H       1  UNL1        0.0335
     38 H           0.2910    7.6777    5.9123 H       1  UNL1        0.0335
     39 H          -0.7382    7.6935    8.1413 H       1  UNL1        0.0563
     40 H          -1.9808    7.3075    6.9326 H       1  UNL1        0.0563
     41 H          -1.8475    6.4167    9.9754 H       1  UNL1        0.0523
     42 H          -3.1729    6.4584    8.7677 H       1  UNL1        0.0523
     43 H          -2.6401    4.9112    9.4596 H       1  UNL1        0.0523
     44 H          -1.6624    1.4651    0.3877 H       1  UNL1        0.2102
     45 H           0.3668    1.6505   -1.8974 H       1  UNL1        0.2017
@<TRIPOS>UNITY_ATOM_ATTR
4 1
charge 1
@<TRIPOS>BOND
     1     1     2    1
     2     1    21    1
     3     1    22    1
     4     1    23    1
     5     2     3    1
     6     2     4    1
     7     2    24    1
     8     3    25    1
     9     3    26    1
    10     3    27    1
    11     4     5    1
    12     4    28    1
    13     4    45    1
    14     5    29    1
    15     5    30    1
    16     6     8    1
    17     6    20    1
    18     8     9    1
    19     8    31    1
    20     8    32    1
    21     9    10    1
    22    10    15   ar
    23    10    11   ar
    24    11    12   ar
    25    11    33    1
    26    12    13   ar
    27    12    34    1
    28    13    14   ar
    29    13    16    1
    30    14    15   ar
    31    14    35    1
    32    15    36    1
    33    16    17    1
    34    16    37    1
    35    16    38    1
    36    17    18    1
    37    17    39    1
    38    17    40    1
    39    18    19    1
    40    19    41    1
    41    19    42    1
    42    19    43    1
    43    20    44    1
    44     6     7    1
    45     6     5    1
