@<TRIPOS>MOLECULE
ZINC00897236
 28 29 0 0 0
SMALL
GASTEIGER

@<TRIPOS>ATOM
      1 C           1.6422    0.9605   -0.1336 C.ar    1  UNL1       -0.0186
      2 C           0.2424    0.8931   -0.0928 C.ar    1  UNL1        0.0565
      3 C          -0.3289   -0.3791   -0.0368 C.ar    1  UNL1        0.1280
      4 C           0.4380   -1.5496   -0.0241 C.ar    1  UNL1       -0.0057
      5 C           1.8326   -1.4559   -0.0510 C.ar    1  UNL1        0.1252
      6 C           2.4405   -0.1984   -0.0871 C.ar    1  UNL1        0.0691
      7 CL          4.1512    0.0481   -0.0874 Cl      1  UNL1       -0.0815
      8 S           2.7743   -2.9509    0.0609 S.O2    1  UNL1        0.0574
      9 O           3.7317   -2.8182    1.1336 O.2     1  UNL1       -0.1532
     10 O           1.8770   -4.0703   -0.0093 O.2     1  UNL1       -0.1532
     11 N           3.6461   -2.9849   -1.3704 N.3     1  UNL1       -0.2035
     12 S          -2.0806   -0.5206    0.0134 S.O2    1  UNL1        0.0619
     13 O          -2.4635   -0.6296    1.4014 O.2     1  UNL1       -0.1529
     14 O          -2.4838   -1.4813   -0.9867 O.2     1  UNL1       -0.1529
     15 N          -2.5730    0.9746   -0.5399 N.3     1  UNL1       -0.1673
     16 C          -1.9048    2.0738    0.1396 C.3     1  UNL1        0.1215
     17 H          -1.9729    1.9481    1.2286 H       1  UNL1        0.0709
     18 N          -0.5019    2.0608   -0.2697 N.pl3   1  UNL1       -0.3238
     19 C          -2.6066    3.4272   -0.2001 C.3     1  UNL1        0.1405
     20 CL         -1.7976    4.7884    0.6366 Cl      1  UNL1       -0.1012
     21 CL         -2.6147    3.7590   -1.9637 Cl      1  UNL1       -0.1012
     22 H           2.1276    1.9345   -0.1951 H       1  UNL1        0.0652
     23 H          -0.0559   -2.5182    0.0187 H       1  UNL1        0.0658
     24 H           4.5819   -2.5956   -1.2362 H       1  UNL1        0.1442
     25 H           3.6756   -3.9546   -1.7074 H       1  UNL1        0.1442
     26 H          -2.5365    1.0244   -1.5583 H       1  UNL1        0.1502
     27 H          -0.0072    2.9089    0.0124 H       1  UNL1        0.1477
     28 H          -3.6506    3.4079    0.1270 H       1  UNL1        0.0667
@<TRIPOS>BOND
     1     1     6   ar
     2     1     2   ar
     3     1    22    1
     4     2    18    1
     5     2     3   ar
     6     3     4   ar
     7     3    12    1
     8     4     5   ar
     9     4    23    1
    10     5     6   ar
    11     5     8    1
    12     6     7    1
    13     8     9    2
    14     8    10    2
    15     8    11    1
    16    11    24    1
    17    11    25    1
    18    12    13    2
    19    12    14    2
    20    12    15    1
    21    15    16    1
    22    15    26    1
    23    16    17    1
    24    16    18    1
    25    16    19    1
    26    18    27    1
    27    19    20    1
    28    19    21    1
    29    19    28    1
