@<TRIPOS>MOLECULE
ZINC03812964
 12 11 0 0 0
SMALL
GASTEIGER

@<TRIPOS>ATOM
      1 C           1.0059   -0.0744   -0.0537 C.3     1  UNL1        0.2635
      2 H           0.5887    0.0212   -1.0602 H       1  UNL1        0.0914
      3 C           0.5993   -1.4259    0.5477 C.3     1  UNL1        0.4059
      4 O           1.0982   -1.6526    1.8470 O.3     1  UNL1       -0.2553
      5 C           0.6045   -2.8761    2.3302 C.3     1  UNL1        0.3509
      6 F           1.1826   -3.8864    1.6442 F       1  UNL1       -0.1782
      7 F           1.0266   -2.9939    3.6144 F       1  UNL1       -0.1782
      8 F          -0.7596   -1.5065    0.5954 F       1  UNL1       -0.1704
      9 F           1.0087   -2.4309   -0.2701 F       1  UNL1       -0.1704
     10 F           0.5114    0.9517    0.6956 F       1  UNL1       -0.2191
     11 CL          2.7722    0.1234   -0.1915 Cl      1  UNL1       -0.0763
     12 H          -0.4857   -2.9641    2.3098 H       1  UNL1        0.1362
@<TRIPOS>BOND
     1     1     2    1
     2     1     3    1
     3     1    10    1
     4     1    11    1
     5     3     4    1
     6     3     8    1
     7     3     9    1
     8     4     5    1
     9     5     6    1
    10     5     7    1
    11     5    12    1
