@<TRIPOS>MOLECULE
ZINC00020243
 25 26 0 0 0
SMALL
GASTEIGER

@<TRIPOS>ATOM
      1 C          -1.1741   -1.1819   -0.0237 C.ar    1  UNL1       -0.0505
      2 C           0.2235   -1.2136   -0.0321 C.ar    1  UNL1       -0.0188
      3 C           0.9602   -0.0263   -0.0290 C.ar    1  UNL1        0.1310
      4 C           0.3144    1.2099    0.0168 C.ar    1  UNL1        0.1050
      5 C          -1.1029    1.2076    0.0389 C.ar    1  UNL1       -0.0363
      6 C          -1.8777    0.0306    0.0090 C.ar    1  UNL1       -0.0141
      7 C          -3.3617    0.0768   -0.0098 C.ar    1  UNL1        0.0175
      8 C          -4.0476    1.1205   -0.6678 C.ar    1  UNL1       -0.0486
      9 C          -5.4460    1.1725   -0.7005 C.ar    1  UNL1       -0.0257
     10 C          -6.1830    0.1722   -0.0837 C.ar    1  UNL1        0.1262
     11 C          -5.5515   -0.8709    0.5708 C.ar    1  UNL1        0.0094
     12 C          -4.1585   -0.9091    0.6063 C.ar    1  UNL1        0.1338
     13 F          -3.5959   -1.9307    1.2717 F       1  UNL1       -0.2048
     14 F          -7.5214    0.2161   -0.1193 F       1  UNL1       -0.2054
     15 C           1.0263    2.5485    0.0439 C.2     1  UNL1        0.3901
     16 O           0.3720    3.5378   -0.4285 O.co2   1  UNL1       -0.2405
     17 O           2.1801    2.6256    0.5685 O.co2   1  UNL1       -0.2405
     18 O           2.3185   -0.1151   -0.1244 O.3     1  UNL1       -0.5059
     19 H          -1.7043   -2.1295   -0.0607 H       1  UNL1        0.0625
     20 H           0.7239   -2.1756   -0.0658 H       1  UNL1        0.0654
     21 H          -1.5909    2.1823    0.0841 H       1  UNL1        0.0633
     22 H          -3.4916    1.9090   -1.1755 H       1  UNL1        0.0625
     23 H          -5.9551    1.9876   -1.2051 H       1  UNL1        0.0646
     24 H          -6.1286   -1.6496    1.0542 H       1  UNL1        0.0675
     25 H           2.5997   -1.0155    0.0812 H       1  UNL1        0.2922
@<TRIPOS>BOND
     1     1     6   ar
     2     1     2   ar
     3     1    19    1
     4     2     3   ar
     5     2    20    1
     6     3     4   ar
     7     3    18    1
     8     4     5   ar
     9     4    15    1
    10     5     6   ar
    11     5    21    1
    12     6     7    1
    13     7    12   ar
    14     7     8   ar
    15     8     9   ar
    16     8    22    1
    17     9    10   ar
    18     9    23    1
    19    10    11   ar
    20    10    14    1
    21    11    12   ar
    22    11    24    1
    23    12    13    1
    24    15    16   ar
    25    15    17   ar
    26    18    25    1
