@<TRIPOS>MOLECULE
ZINC00001792
 35 35 0 0 0
SMALL
GASTEIGER

@<TRIPOS>ATOM
      1 C           1.1517   -0.3183    0.0510 C.3     1  UNL1        0.0060
      2 N           0.5088   -1.3367   -0.7580 N.am    1  UNL1       -0.2732
      3 C          -0.5446   -2.1461   -0.1749 C.3     1  UNL1        0.0060
      4 C           0.9402   -1.5095   -2.0619 C.2     1  UNL1        0.4077
      5 O           1.7994   -0.8025   -2.5836 O.2     1  UNL1       -0.2258
      6 O           0.3110   -2.5853   -2.7094 O.3     1  UNL1       -0.4112
      7 C           0.6592   -2.9384   -4.0337 C.ar    1  UNL1        0.1393
      8 C          -0.3557   -3.4520   -4.8346 C.ar    1  UNL1       -0.0188
      9 C          -0.0745   -3.7912   -6.1537 C.ar    1  UNL1       -0.0523
     10 C           1.2120   -3.5922   -6.6728 C.ar    1  UNL1        0.0039
     11 C           2.2445   -3.0825   -5.8668 C.ar    1  UNL1        0.1489
     12 C           1.9582   -2.8089   -4.5274 C.ar    1  UNL1        0.0460
     13 N           3.5904   -2.7327   -6.4851 N.pl3   1  UNL1       -0.3830
     14 C           4.5727   -2.1810   -5.4490 C.3     1  UNL1        0.0812
     15 C           3.3577   -1.6441   -7.5301 C.3     1  UNL1        0.0812
     16 C           4.2176   -3.9682   -7.1111 C.3     1  UNL1        0.0812
     17 H           0.7136   -0.2635    1.0504 H       1  UNL1        0.0429
     18 H           1.0482    0.6513   -0.4459 H       1  UNL1        0.0429
     19 H           2.2175   -0.5550    0.1345 H       1  UNL1        0.0429
     20 H          -1.4454   -2.0493   -0.7888 H       1  UNL1        0.0429
     21 H          -0.2287   -3.1930   -0.1687 H       1  UNL1        0.0429
     22 H          -0.7697   -1.8268    0.8460 H       1  UNL1        0.0429
     23 H          -1.3627   -3.5750   -4.4393 H       1  UNL1        0.0654
     24 H          -0.8646   -4.1863   -6.7918 H       1  UNL1        0.0621
     25 H           1.3692   -3.8308   -7.7206 H       1  UNL1        0.0681
     26 H           2.7226   -2.4613   -3.8440 H       1  UNL1        0.0718
     27 H           5.5266   -1.9881   -5.9510 H       1  UNL1        0.0931
     28 H           4.1815   -1.2414   -5.0454 H       1  UNL1        0.0931
     29 H           4.7268   -2.9316   -4.6658 H       1  UNL1        0.0931
     30 H           4.3324   -1.2683   -7.8568 H       1  UNL1        0.0931
     31 H           2.8283   -2.0728   -8.3860 H       1  UNL1        0.0931
     32 H           2.7775   -0.8348   -7.0744 H       1  UNL1        0.0931
     33 H           4.4463   -4.6881   -6.3194 H       1  UNL1        0.0931
     34 H           3.5384   -4.4015   -7.8492 H       1  UNL1        0.0931
     35 H           5.1396   -3.6577   -7.6149 H       1  UNL1        0.0931
@<TRIPOS>UNITY_ATOM_ATTR
13 1
charge 1
@<TRIPOS>BOND
     1     1     2    1
     2     1    17    1
     3     1    18    1
     4     1    19    1
     5     2     3    1
     6     2     4   am
     7     3    20    1
     8     3    21    1
     9     3    22    1
    10     4     5    2
    11     4     6    1
    12     6     7    1
    13     7    12   ar
    14     7     8   ar
    15     8     9   ar
    16     8    23    1
    17     9    10   ar
    18     9    24    1
    19    10    11   ar
    20    10    25    1
    21    11    12   ar
    22    11    13    1
    23    12    26    1
    24    13    14    1
    25    13    15    1
    26    13    16    1
    27    14    27    1
    28    14    28    1
    29    14    29    1
    30    15    30    1
    31    15    31    1
    32    15    32    1
    33    16    33    1
    34    16    34    1
    35    16    35    1
