@<TRIPOS>MOLECULE
ZINC00000693
 27 27 0 0 0
SMALL
GASTEIGER

@<TRIPOS>ATOM
      1 C          -0.5149    2.2108   -0.0369 C.3     1  UNL1       -0.0078
      2 C           0.5902    1.4336    0.6674 C.3     1  UNL1        0.0901
      3 C           1.0017    0.1142   -0.0034 C.3     1  UNL1        0.0287
      4 C           1.5014    0.1991   -1.4325 C.ar    1  UNL1       -0.0410
      5 C           0.6130    0.0001   -2.5013 C.ar    1  UNL1       -0.0549
      6 C           1.0776   -0.0465   -3.8190 C.ar    1  UNL1       -0.0199
      7 C           2.4342    0.1167   -4.0688 C.ar    1  UNL1        0.1169
      8 C           3.3266    0.3436   -3.0283 C.ar    1  UNL1       -0.0199
      9 C           2.8647    0.3828   -1.7103 C.ar    1  UNL1       -0.0549
     10 O           2.9406    0.0383   -5.3318 O.3     1  UNL1       -0.5068
     11 C           0.1079    1.0441    2.1091 C.2     1  UNL1        0.4057
     12 O           0.8771    1.5643    2.9775 O.co2   1  UNL1       -0.2396
     13 O          -0.9074    0.3221    2.2052 O.co2   1  UNL1       -0.2396
     14 N           1.7971    2.3560    0.7912 N.4     1  UNL1        0.2311
     15 H          -1.2468    1.5394   -0.4959 H       1  UNL1        0.0293
     16 H          -0.1171    2.8590   -0.8267 H       1  UNL1        0.0293
     17 H          -1.0647    2.8495    0.6657 H       1  UNL1        0.0293
     18 H           1.7810   -0.3773    0.5955 H       1  UNL1        0.0377
     19 H           0.1610   -0.5939    0.0117 H       1  UNL1        0.0377
     20 H          -0.4472   -0.1660   -2.3141 H       1  UNL1        0.0621
     21 H           0.3741   -0.2328   -4.6245 H       1  UNL1        0.0654
     22 H           4.3866    0.4518   -3.2421 H       1  UNL1        0.0654
     23 H           3.5875    0.5032   -0.9089 H       1  UNL1        0.0621
     24 H           2.2282   -0.2264   -5.9381 H       1  UNL1        0.2921
     25 H           2.4479    1.8724    1.4298 H       1  UNL1        0.2005
     26 H           2.2300    2.6505   -0.0856 H       1  UNL1        0.2005
     27 H           1.4953    3.1441    1.3822 H       1  UNL1        0.2005
@<TRIPOS>UNITY_ATOM_ATTR
14 1
charge 1
@<TRIPOS>BOND
     1     1    15    1
     2     1    16    1
     3     1    17    1
     4     2    11    1
     5     2    14    1
     6     3     4    1
     7     3    18    1
     8     3    19    1
     9     4     9   ar
    10     4     5   ar
    11     5     6   ar
    12     5    20    1
    13     6     7   ar
    14     6    21    1
    15     7     8   ar
    16     7    10    1
    17     8     9   ar
    18     8    22    1
    19     9    23    1
    20    10    24    1
    21    11    12   ar
    22    11    13   ar
    23    14    25    1
    24    14    26    1
    25    14    27    1
    26     2     3    1
    27     2     1    1
