@<TRIPOS>MOLECULE
ZINC03812888
 72 73 0 0 0
SMALL
GASTEIGER

@<TRIPOS>ATOM
      1 C          -1.1510   -8.0827   -1.8182 C.3     1  UNL1       -0.0609
      2 C          -1.7922   -7.9832   -3.2104 C.3     1  UNL1       -0.0242
      3 C          -1.3928   -9.2390   -4.0110 C.3     1  UNL1       -0.0609
      4 C          -3.3536   -7.6373   -3.2044 C.3     1  UNL1        0.0847
      5 C          -3.6015   -6.2283   -2.5586 C.3     1  UNL1       -0.0254
      6 C          -2.8359   -5.0341   -3.1756 C.3     1  UNL1       -0.0108
      7 C          -3.0852   -3.7471   -2.3812 C.3     1  UNL1       -0.0321
      8 N          -2.2222   -2.5865   -2.8708 N.4     1  UNL1        0.2333
      9 C          -2.2840   -1.4623   -1.8556 C.3     1  UNL1       -0.0431
     10 C          -2.5752   -2.1151   -4.2842 C.3     1  UNL1       -0.0281
     11 C          -1.5642   -1.0877   -4.8150 C.3     1  UNL1        0.0128
     12 C          -1.9037   -0.6233   -6.2077 C.ar    1  UNL1       -0.0387
     13 C          -2.7742    0.4522   -6.3932 C.ar    1  UNL1       -0.0547
     14 C          -3.0921    0.8937   -7.6794 C.ar    1  UNL1       -0.0160
     15 C          -2.5442    0.2805   -8.8141 C.ar    1  UNL1        0.1615
     16 C          -1.6761   -0.8098   -8.6398 C.ar    1  UNL1        0.1617
     17 C          -1.3684   -1.2513   -7.3391 C.ar    1  UNL1       -0.0129
     18 O          -1.0667   -1.5686   -9.6062 O.3     1  UNL1       -0.4914
     19 C          -0.9191   -1.0060  -10.9041 C.3     1  UNL1        0.0790
     20 O          -2.8989    0.6580  -10.0811 O.3     1  UNL1       -0.4915
     21 C          -3.2607    2.0232  -10.2694 C.3     1  UNL1        0.0790
     22 C          -3.7921   -7.6350   -4.6598 C.1     1  UNL1        0.0742
     23 N          -4.1558   -7.6332   -5.8671 N.1     1  UNL1       -0.1956
     24 C          -4.1617   -8.7557   -2.4884 C.ar    1  UNL1       -0.0236
     25 C          -4.6727   -9.8420   -3.2220 C.ar    1  UNL1       -0.0534
     26 C          -5.4826  -10.8127   -2.6342 C.ar    1  UNL1       -0.0160
     27 C          -5.8009  -10.7585   -1.2783 C.ar    1  UNL1        0.1615
     28 C          -5.2254   -9.7476   -0.4908 C.ar    1  UNL1        0.1618
     29 C          -4.4193   -8.7623   -1.1059 C.ar    1  UNL1       -0.0116
     30 O          -5.3456   -9.5483    0.8617 O.3     1  UNL1       -0.4914
     31 C          -6.1723  -10.4358    1.6047 C.3     1  UNL1        0.0790
     32 O          -6.6117  -11.7032   -0.7058 O.3     1  UNL1       -0.4915
     33 C          -7.6968  -12.1418   -1.5235 C.3     1  UNL1        0.0790
     34 H          -1.5161   -8.9537   -1.2658 H       1  UNL1        0.0233
     35 H          -1.3252   -7.1869   -1.2177 H       1  UNL1        0.0233
     36 H          -0.0635   -8.1940   -1.9106 H       1  UNL1        0.0233
     37 H          -1.2782   -7.1653   -3.7312 H       1  UNL1        0.0314
     38 H          -1.8157  -10.1506   -3.5841 H       1  UNL1        0.0233
     39 H          -1.6986   -9.1666   -5.0597 H       1  UNL1        0.0233
     40 H          -0.3019   -9.3518   -4.0156 H       1  UNL1        0.0233
     41 H          -4.6764   -6.0033   -2.5769 H       1  UNL1        0.0285
     42 H          -3.3254   -6.2603   -1.4979 H       1  UNL1        0.0285
     43 H          -1.7587   -5.2249   -3.1767 H       1  UNL1        0.0317
     44 H          -3.1554   -4.9134   -4.2131 H       1  UNL1        0.0317
     45 H          -4.1306   -3.4268   -2.4252 H       1  UNL1        0.0814
     46 H          -2.8048   -3.9126   -1.3333 H       1  UNL1        0.0814
     47 H          -1.9700   -1.8603   -0.8868 H       1  UNL1        0.0777
     48 H          -1.5892   -0.6742   -2.1486 H       1  UNL1        0.0777
     49 H          -3.3114   -1.0906   -1.8131 H       1  UNL1        0.0777
     50 H          -2.5617   -2.9970   -4.9303 H       1  UNL1        0.0817
     51 H          -3.5948   -1.7162   -4.2469 H       1  UNL1        0.0817
     52 H          -1.5346   -0.1987   -4.1759 H       1  UNL1        0.0365
     53 H          -0.5497   -1.5048   -4.7977 H       1  UNL1        0.0365
     54 H          -3.2199    0.9697   -5.5464 H       1  UNL1        0.0621
     55 H          -3.7970    1.7145   -7.7652 H       1  UNL1        0.0655
     56 H          -0.6819   -2.0906   -7.2344 H       1  UNL1        0.0658
     57 H          -1.8736   -0.9740  -11.4364 H       1  UNL1        0.0660
     58 H          -0.4391   -0.0222  -10.8633 H       1  UNL1        0.0660
     59 H          -0.2621   -1.6681  -11.4774 H       1  UNL1        0.0660
     60 H          -4.2083    2.2613   -9.7771 H       1  UNL1        0.0660
     61 H          -2.4606    2.6909   -9.9321 H       1  UNL1        0.0660
     62 H          -3.4077    2.1852  -11.3414 H       1  UNL1        0.0660
     63 H          -4.4824   -9.9696   -4.2877 H       1  UNL1        0.0622
     64 H          -5.8437  -11.6212   -3.2640 H       1  UNL1        0.0655
     65 H          -3.9951   -8.0037   -0.4522 H       1  UNL1        0.0658
     66 H          -7.2148  -10.3665    1.2781 H       1  UNL1        0.0660
     67 H          -5.7945  -11.4626    1.5683 H       1  UNL1        0.0660
     68 H          -6.1413  -10.1199    2.6520 H       1  UNL1        0.0660
     69 H          -8.2291  -11.2940   -1.9707 H       1  UNL1        0.0660
     70 H          -7.3525  -12.8393   -2.2935 H       1  UNL1        0.0660
     71 H          -8.4012  -12.6822   -0.8849 H       1  UNL1        0.0660
     72 H          -1.2465   -2.9141   -2.8919 H       1  UNL1        0.2031
@<TRIPOS>UNITY_ATOM_ATTR
8 1
charge 1
@<TRIPOS>BOND
     1     1     2    1
     2     1    34    1
     3     1    35    1
     4     1    36    1
     5     2     3    1
     6     2     4    1
     7     2    37    1
     8     3    38    1
     9     3    39    1
    10     3    40    1
    11     4     5    1
    12     4    22    1
    13     4    24    1
    14     5     6    1
    15     5    41    1
    16     5    42    1
    17     6     7    1
    18     6    43    1
    19     6    44    1
    20     7    45    1
    21     7    46    1
    22     8    10    1
    23     8    72    1
    24     9    47    1
    25     9    48    1
    26     9    49    1
    27    10    11    1
    28    10    50    1
    29    10    51    1
    30    11    12    1
    31    11    52    1
    32    11    53    1
    33    12    17   ar
    34    12    13   ar
    35    13    14   ar
    36    13    54    1
    37    14    15   ar
    38    14    55    1
    39    15    16   ar
    40    15    20    1
    41    16    17   ar
    42    16    18    1
    43    17    56    1
    44    18    19    1
    45    19    57    1
    46    19    58    1
    47    19    59    1
    48    20    21    1
    49    21    60    1
    50    21    61    1
    51    21    62    1
    52    22    23    3
    53    24    29   ar
    54    24    25   ar
    55    25    26   ar
    56    25    63    1
    57    26    27   ar
    58    26    64    1
    59    27    28   ar
    60    27    32    1
    61    28    29   ar
    62    28    30    1
    63    29    65    1
    64    30    31    1
    65    31    66    1
    66    31    67    1
    67    31    68    1
    68    32    33    1
    69    33    69    1
    70    33    70    1
    71    33    71    1
    72     8     9    1
    73     8     7    1
