@<TRIPOS>MOLECULE
ZINC00002041
 44 45 0 0 0
SMALL
GASTEIGER

@<TRIPOS>ATOM
      1 C           0.9743    0.0027    0.1289 C.3     1  UNL1       -0.0605
      2 C           0.5216    1.4452   -0.0365 C.3     1  UNL1       -0.0153
      3 C           0.9868    2.0890   -1.3415 C.3     1  UNL1       -0.0321
      4 N           0.5210    1.3574   -2.6036 N.4     1  UNL1        0.2354
      5 C          -1.0024    1.3475   -2.7094 C.3     1  UNL1       -0.0321
      6 C          -1.5530    0.6145   -3.9349 C.3     1  UNL1       -0.0153
      7 C          -1.1148   -0.8367   -4.0639 C.3     1  UNL1       -0.0605
      8 C           1.2049    1.9308   -3.8612 C.3     1  UNL1       -0.0278
      9 C           2.7271    1.7062   -3.8384 C.3     1  UNL1        0.0130
     10 C           3.4211    2.1339   -5.1036 C.ar    1  UNL1       -0.0370
     11 C           3.6285    1.1976   -6.1377 C.ar    1  UNL1       -0.0580
     12 C           4.3185    1.5382   -7.3135 C.ar    1  UNL1       -0.0597
     13 C           4.8178    2.8288   -7.5028 C.ar    1  UNL1       -0.0402
     14 C           4.6059    3.7366   -6.4892 C.ar    1  UNL1        0.0373
     15 C           3.9245    3.4166   -5.3096 C.ar    1  UNL1       -0.0141
     16 C           3.9189    4.6386   -4.4270 C.3     1  UNL1        0.0514
     17 C           4.6413    5.6809   -5.2854 C.2     1  UNL1        0.2216
     18 O           4.8472    6.8441   -4.9810 O.2     1  UNL1       -0.2751
     19 N           5.0131    5.0655   -6.4678 N.am    1  UNL1       -0.2850
     20 H           0.5186   -0.6513   -0.6190 H       1  UNL1        0.0232
     21 H           0.6853   -0.3702    1.1166 H       1  UNL1        0.0232
     22 H           2.0631   -0.0777    0.0440 H       1  UNL1        0.0232
     23 H          -0.5651    1.5132    0.0742 H       1  UNL1        0.0314
     24 H           0.9419    2.0297    0.7923 H       1  UNL1        0.0314
     25 H           0.6451    3.1270   -1.4195 H       1  UNL1        0.0814
     26 H           2.0783    2.0790   -1.3405 H       1  UNL1        0.0814
     27 H          -1.3814    0.8463   -1.8131 H       1  UNL1        0.0814
     28 H          -1.3379    2.3901   -2.6996 H       1  UNL1        0.0814
     29 H          -2.6482    0.6315   -3.8645 H       1  UNL1        0.0314
     30 H          -1.3148    1.1562   -4.8562 H       1  UNL1        0.0314
     31 H          -1.1943   -1.3672   -3.1103 H       1  UNL1        0.0232
     32 H          -1.7531   -1.3531   -4.7896 H       1  UNL1        0.0232
     33 H          -0.0836   -0.9133   -4.4211 H       1  UNL1        0.0232
     34 H           0.7874    1.4025   -4.7215 H       1  UNL1        0.0818
     35 H           0.9344    2.9898   -3.9258 H       1  UNL1        0.0818
     36 H           3.1993    2.2318   -3.0075 H       1  UNL1        0.0365
     37 H           2.9241    0.6381   -3.6685 H       1  UNL1        0.0365
     38 H           3.2828    0.1691   -6.0319 H       1  UNL1        0.0620
     39 H           4.4819    0.7876   -8.0842 H       1  UNL1        0.0618
     40 H           5.3602    3.0925   -8.4043 H       1  UNL1        0.0636
     41 H           4.4907    4.4746   -3.5100 H       1  UNL1        0.0408
     42 H           2.9017    4.9806   -4.2230 H       1  UNL1        0.0408
     43 H           5.5197    5.5376   -7.2030 H       1  UNL1        0.1548
     44 H           0.8186    0.3770   -2.5220 H       1  UNL1        0.2033
@<TRIPOS>UNITY_ATOM_ATTR
4 1
charge 1
@<TRIPOS>BOND
     1     1     2    1
     2     1    20    1
     3     1    21    1
     4     1    22    1
     5     2     3    1
     6     2    23    1
     7     2    24    1
     8     3     4    1
     9     3    25    1
    10     3    26    1
    11     4     5    1
    12     4     8    1
    13     4    44    1
    14     5     6    1
    15     5    27    1
    16     5    28    1
    17     6     7    1
    18     6    29    1
    19     6    30    1
    20     7    31    1
    21     7    32    1
    22     7    33    1
    23     8     9    1
    24     8    34    1
    25     8    35    1
    26     9    10    1
    27     9    36    1
    28     9    37    1
    29    10    15   ar
    30    10    11   ar
    31    11    12   ar
    32    11    38    1
    33    12    13   ar
    34    12    39    1
    35    13    14   ar
    36    13    40    1
    37    14    19    1
    38    14    15   ar
    39    15    16    1
    40    16    17    1
    41    16    41    1
    42    16    42    1
    43    17    18    2
    44    17    19   am
    45    19    43    1
