@<TRIPOS>MOLECULE
ZINC00057407
 33 33 0 0 0
SMALL
GASTEIGER

@<TRIPOS>ATOM
      1 C           1.2506    0.1189   -0.1291 C.3     1  UNL1       -0.0190
      2 C           0.5070    0.9116   -1.1993 C.3     1  UNL1        0.0036
      3 H           1.0902    1.7906   -1.4947 H       1  UNL1        0.0876
      4 C          -0.9099    1.3250   -0.7155 C.3     1  UNL1        0.1256
      5 H          -0.7991    1.8652    0.2336 H       1  UNL1        0.0702
      6 C          -1.5995    2.2363   -1.7120 C.ar    1  UNL1        0.0313
      7 C          -1.3928    3.6186   -1.5236 C.ar    1  UNL1       -0.0106
      8 C          -1.8407    4.5683   -2.4403 C.ar    1  UNL1        0.1207
      9 C          -2.5755    4.1531   -3.5433 C.ar    1  UNL1       -0.0165
     10 C          -2.7974    2.7767   -3.7528 C.ar    1  UNL1       -0.0161
     11 C          -2.2986    1.8271   -2.8556 C.ar    1  UNL1        0.1261
     12 O          -2.2603    0.5274   -3.2922 O.3     1  UNL1       -0.4947
     13 C          -3.2320   -0.3315   -2.6801 C.3     1  UNL1        0.0788
     14 O          -1.4601    5.8447   -2.1344 O.3     1  UNL1       -0.4951
     15 C          -1.7144    6.8607   -3.0955 C.3     1  UNL1        0.0788
     16 O          -1.6799    0.1701   -0.3988 O.3     1  UNL1       -0.3815
     17 N           0.4129    0.0352   -2.4146 N.4     1  UNL1        0.2226
     18 H           1.3302    0.6996    0.7971 H       1  UNL1        0.0285
     19 H           2.2661   -0.1224   -0.4570 H       1  UNL1        0.0285
     20 H           0.7444   -0.8247    0.1059 H       1  UNL1        0.0285
     21 H          -0.8188    3.9802   -0.6681 H       1  UNL1        0.0659
     22 H          -2.9612    4.8599   -4.2724 H       1  UNL1        0.0655
     23 H          -3.3360    2.4663   -4.6461 H       1  UNL1        0.0655
     24 H          -2.6910   -1.1172   -2.1424 H       1  UNL1        0.0660
     25 H          -3.9145    0.1837   -1.9958 H       1  UNL1        0.0660
     26 H          -3.8112   -0.8336   -3.4606 H       1  UNL1        0.0660
     27 H          -1.2098    6.6472   -4.0431 H       1  UNL1        0.0660
     28 H          -2.7902    7.0000   -3.2397 H       1  UNL1        0.0660
     29 H          -1.3042    7.7962   -2.7028 H       1  UNL1        0.0660
     30 H          -2.5046    0.4893    0.0344 H       1  UNL1        0.2105
     31 H          -0.1636    0.4819   -3.1458 H       1  UNL1        0.1998
     32 H           1.3279   -0.1879   -2.8181 H       1  UNL1        0.1998
     33 H          -0.0834   -0.8308   -2.1775 H       1  UNL1        0.1998
@<TRIPOS>UNITY_ATOM_ATTR
17 1
charge 1
@<TRIPOS>BOND
     1     1    18    1
     2     1    19    1
     3     1    20    1
     4     2     4    1
     5     2    17    1
     6     4     5    1
     7     4     6    1
     8     4    16    1
     9     6    11   ar
    10     6     7   ar
    11     7     8   ar
    12     7    21    1
    13     8     9   ar
    14     8    14    1
    15     9    10   ar
    16     9    22    1
    17    10    11   ar
    18    10    23    1
    19    11    12    1
    20    12    13    1
    21    13    24    1
    22    13    25    1
    23    13    26    1
    24    14    15    1
    25    15    27    1
    26    15    28    1
    27    15    29    1
    28    16    30    1
    29    17    31    1
    30    17    32    1
    31    17    33    1
    32     2     3    1
    33     2     1    1
