@<TRIPOS>MOLECULE
ZINC00057532
 41 42 0 0 0
SMALL
GASTEIGER

@<TRIPOS>ATOM
      1 C           1.4334   -0.2343   -1.3533 C.3     1  UNL1       -0.0493
      2 C           0.4855   -1.2836   -0.7822 C.3     1  UNL1        0.0122
      3 N           1.0165   -2.5311   -0.1953 N.am    1  UNL1       -0.2969
      4 C          -0.0062   -3.5071    0.2193 C.3     1  UNL1        0.0398
      5 C          -0.9520   -3.0652    1.3153 C.ar    1  UNL1       -0.0273
      6 C          -0.6932   -3.4016    2.6482 C.ar    1  UNL1       -0.0389
      7 C          -1.6408   -3.0927    3.6148 C.ar    1  UNL1        0.0279
      8 N          -2.8029   -2.4580    3.3542 N.ar    1  UNL1       -0.2632
      9 C          -3.0255   -2.1116    2.0696 C.ar    1  UNL1        0.0279
     10 C          -2.1473   -2.3928    1.0317 C.ar    1  UNL1       -0.0389
     11 C           2.3711   -2.8556   -0.3340 C.2     1  UNL1        0.2255
     12 O           3.1796   -2.0698   -0.8459 O.2     1  UNL1       -0.2748
     13 C           2.9361   -4.1902    0.1890 C.3     1  UNL1        0.0838
     14 H           2.2215   -4.9874   -0.0333 H       1  UNL1        0.0466
     15 C           4.2043   -4.5437   -0.6283 C.3     1  UNL1        0.0593
     16 O           5.2667   -3.6001   -0.4848 O.3     1  UNL1       -0.3939
     17 C           3.2432   -4.1826    1.6813 C.ar    1  UNL1       -0.0334
     18 C           3.6284   -3.0118    2.3543 C.ar    1  UNL1       -0.0578
     19 C           3.9427   -3.0368    3.7144 C.ar    1  UNL1       -0.0615
     20 C           3.8932   -4.2349    4.4207 C.ar    1  UNL1       -0.0617
     21 C           3.5410   -5.4114    3.7639 C.ar    1  UNL1       -0.0615
     22 C           3.2202   -5.3874    2.4037 C.ar    1  UNL1       -0.0578
     23 H           2.1554    0.1081   -0.6054 H       1  UNL1        0.0245
     24 H           0.8700    0.6416   -1.6904 H       1  UNL1        0.0245
     25 H           1.9709   -0.6155   -2.2290 H       1  UNL1        0.0245
     26 H          -0.1039   -0.7870    0.0013 H       1  UNL1        0.0462
     27 H          -0.2038   -1.5774   -1.5807 H       1  UNL1        0.0462
     28 H          -0.5907   -3.7564   -0.6774 H       1  UNL1        0.0514
     29 H           0.4392   -4.4458    0.5367 H       1  UNL1        0.0514
     30 H           0.2138   -3.9234    2.9365 H       1  UNL1        0.0636
     31 H          -1.4912   -3.3711    4.6542 H       1  UNL1        0.0829
     32 H          -3.9657   -1.5967    1.8881 H       1  UNL1        0.0829
     33 H          -2.4093   -2.0986    0.0195 H       1  UNL1        0.0636
     34 H           4.5992   -5.5217   -0.3358 H       1  UNL1        0.0568
     35 H           3.9586   -4.5963   -1.6975 H       1  UNL1        0.0568
     36 H           4.8801   -2.7232   -0.7010 H       1  UNL1        0.2094
     37 H           3.7168   -2.0651    1.8241 H       1  UNL1        0.0621
     38 H           4.2448   -2.1204    4.2154 H       1  UNL1        0.0618
     39 H           4.1492   -4.2530    5.4768 H       1  UNL1        0.0618
     40 H           3.5333   -6.3519    4.3093 H       1  UNL1        0.0618
     41 H           2.9767   -6.3250    1.9086 H       1  UNL1        0.0621
@<TRIPOS>BOND
     1     1     2    1
     2     1    23    1
     3     1    24    1
     4     1    25    1
     5     2     3    1
     6     2    26    1
     7     2    27    1
     8     3     4    1
     9     3    11   am
    10     4     5    1
    11     4    28    1
    12     4    29    1
    13     5    10   ar
    14     5     6   ar
    15     6     7   ar
    16     6    30    1
    17     7     8   ar
    18     7    31    1
    19     8     9   ar
    20     9    10   ar
    21     9    32    1
    22    10    33    1
    23    11    12    2
    24    11    13    1
    25    13    14    1
    26    13    15    1
    27    13    17    1
    28    15    16    1
    29    15    34    1
    30    15    35    1
    31    16    36    1
    32    17    22   ar
    33    17    18   ar
    34    18    19   ar
    35    18    37    1
    36    19    20   ar
    37    19    38    1
    38    20    21   ar
    39    20    39    1
    40    21    22   ar
    41    21    40    1
    42    22    41    1
