@<TRIPOS>MOLECULE
ZINC01543873
 39 39 0 0 0
SMALL
GASTEIGER

@<TRIPOS>ATOM
      1 C          -4.4876    1.1470   -5.1614 C.ar    1  UNL1       -0.0616
      2 C          -3.4917    1.0046   -4.1994 C.ar    1  UNL1       -0.0600
      3 C          -3.4475    1.8542   -3.0875 C.ar    1  UNL1       -0.0405
      4 C          -4.4084    2.8486   -2.9163 C.ar    1  UNL1        0.0334
      5 C          -5.3838    3.0075   -3.9163 C.ar    1  UNL1       -0.0405
      6 C          -5.4289    2.1608   -5.0266 C.ar    1  UNL1       -0.0600
      7 N          -4.5149    3.7116   -1.8108 N.am    1  UNL1       -0.2855
      8 C          -3.8783    3.8334   -0.6135 C.2     1  UNL1        0.2172
      9 O          -4.3106    4.6963    0.1591 O.2     1  UNL1       -0.2755
     10 C          -2.7116    2.9493   -0.2246 C.3     1  UNL1        0.0243
     11 C          -2.1974    3.2571    1.1903 C.3     1  UNL1       -0.0448
     12 C          -1.0434    2.3330    1.5879 C.3     1  UNL1       -0.0526
     13 C          -0.4155    2.6722    2.9458 C.3     1  UNL1       -0.0526
     14 C          -1.3565    2.6342    4.1540 C.3     1  UNL1       -0.0447
     15 C          -2.0171    1.2742    4.3801 C.3     1  UNL1        0.0259
     16 C          -2.8353    1.2457    5.6558 C.2     1  UNL1        0.2354
     17 O          -2.4498    0.6470    6.6590 O.2     1  UNL1       -0.2737
     18 N          -4.0535    1.8688    5.6541 N.am    1  UNL1       -0.1975
     19 O          -4.3722    2.7789    4.6335 O.3     1  UNL1       -0.2952
     20 H          -4.5261    0.4730   -6.0127 H       1  UNL1        0.0618
     21 H          -2.7416    0.2232   -4.3108 H       1  UNL1        0.0618
     22 H          -2.6387    1.6938   -2.3899 H       1  UNL1        0.0636
     23 H          -6.1387    3.7863   -3.8359 H       1  UNL1        0.0636
     24 H          -6.2031    2.2894   -5.7782 H       1  UNL1        0.0618
     25 H          -5.2708    4.3874   -1.8576 H       1  UNL1        0.1548
     26 H          -3.0367    1.9043   -0.2589 H       1  UNL1        0.0358
     27 H          -1.8993    3.1188   -0.9382 H       1  UNL1        0.0358
     28 H          -1.8661    4.3018    1.2391 H       1  UNL1        0.0270
     29 H          -3.0229    3.1507    1.9030 H       1  UNL1        0.0270
     30 H          -1.3837    1.2912    1.5838 H       1  UNL1        0.0265
     31 H          -0.2547    2.4015    0.8278 H       1  UNL1        0.0265
     32 H           0.4177    1.9814    3.1250 H       1  UNL1        0.0265
     33 H           0.0249    3.6755    2.8892 H       1  UNL1        0.0265
     34 H          -0.7786    2.8975    5.0495 H       1  UNL1        0.0270
     35 H          -2.1056    3.4239    4.0506 H       1  UNL1        0.0270
     36 H          -2.6639    0.9917    3.5417 H       1  UNL1        0.0359
     37 H          -1.2487    0.4983    4.4637 H       1  UNL1        0.0359
     38 H          -4.4633    2.0426    6.5673 H       1  UNL1        0.1822
     39 H          -4.9936    2.2682    4.0808 H       1  UNL1        0.2414
@<TRIPOS>BOND
     1     1     6   ar
     2     1     2   ar
     3     1    20    1
     4     2     3   ar
     5     2    21    1
     6     3     4   ar
     7     3    22    1
     8     4     5   ar
     9     4     7    1
    10     5     6   ar
    11     5    23    1
    12     6    24    1
    13     7     8   am
    14     7    25    1
    15     8     9    2
    16     8    10    1
    17    10    11    1
    18    10    26    1
    19    10    27    1
    20    11    12    1
    21    11    28    1
    22    11    29    1
    23    12    13    1
    24    12    30    1
    25    12    31    1
    26    13    14    1
    27    13    32    1
    28    13    33    1
    29    14    15    1
    30    14    34    1
    31    14    35    1
    32    15    16    1
    33    15    36    1
    34    15    37    1
    35    16    17    2
    36    16    18   am
    37    18    19    1
    38    18    38    1
    39    19    39    1
