@<TRIPOS>MOLECULE
ZINC00602128
 52 54 0 0 0
SMALL
GASTEIGER

@<TRIPOS>ATOM
      1 C           3.1788    2.7896    1.0660 C.ar    1  UNL1       -0.0585
      2 C           3.9575    2.5346   -0.0527 C.ar    1  UNL1       -0.0436
      3 C           3.4136    1.8205   -1.1033 C.ar    1  UNL1        0.0280
      4 N           2.1719    1.3794   -1.0479 N.ar    1  UNL1       -0.2569
      5 C           1.4011    1.6074   -0.0027 C.ar    1  UNL1        0.0744
      6 C           1.8766    2.3145    1.0857 C.ar    1  UNL1       -0.0375
      7 C          -0.0127    1.0858    0.0080 C.3     1  UNL1        0.1257
      8 H           0.0021   -0.0041    0.0020 H       1  UNL1        0.0713
      9 C          -0.7416    1.5850   -1.2129 C.ar    1  UNL1       -0.0129
     10 C          -1.2571    2.8676   -1.2335 C.ar    1  UNL1       -0.0544
     11 C          -1.9208    3.3279   -2.3551 C.ar    1  UNL1       -0.0430
     12 C          -2.0789    2.5010   -3.4530 C.ar    1  UNL1        0.0410
     13 C          -1.5677    1.2156   -3.4296 C.ar    1  UNL1       -0.0430
     14 C          -0.8993    0.7583   -2.3096 C.ar    1  UNL1       -0.0544
     15 CL         -2.9191    3.0759   -4.8592 Cl      1  UNL1       -0.0835
     16 O          -0.6816    1.5467    1.1837 O.3     1  UNL1       -0.3622
     17 C          -0.5561    0.6699    2.3052 C.3     1  UNL1        0.0696
     18 C          -1.7102   -0.3364    2.2996 C.3     1  UNL1        0.0140
     19 C          -1.6055   -1.2320    3.5362 C.3     1  UNL1       -0.0295
     20 C          -0.5315    0.5361    4.7982 C.3     1  UNL1       -0.0295
     21 C          -0.6050    1.4855    3.6002 C.3     1  UNL1        0.0140
     22 C          -1.6984   -1.2417    5.9552 C.3     1  UNL1       -0.0314
     23 C          -2.7180   -2.3659    5.7622 C.3     1  UNL1       -0.0023
     24 C          -2.7603   -3.2374    7.0191 C.3     1  UNL1        0.0540
     25 C          -3.7646   -4.3447    6.8289 C.2     1  UNL1        0.3562
     26 O          -4.3831   -4.4283    5.7944 O.co2   1  UNL1       -0.2464
     27 H           3.5775    3.3448    1.9022 H       1  UNL1        0.0619
     28 H           4.9762    2.8900   -0.1025 H       1  UNL1        0.0633
     29 H           4.0135    1.6178   -1.9781 H       1  UNL1        0.0829
     30 H           1.2416    2.4948    1.9405 H       1  UNL1        0.0636
     31 H          -1.1374    3.5114   -0.3748 H       1  UNL1        0.0622
     32 H          -2.3196    4.3314   -2.3728 H       1  UNL1        0.0632
     33 H          -1.6912    0.5696   -4.2862 H       1  UNL1        0.0632
     34 H          -0.5005   -0.2452   -2.2911 H       1  UNL1        0.0622
     35 H           0.3926    0.1365    2.2462 H       1  UNL1        0.0600
     36 H          -2.6597    0.1987    2.3182 H       1  UNL1        0.0342
     37 H          -1.6546   -0.9489    1.3997 H       1  UNL1        0.0342
     38 H          -0.6625   -1.7779    3.5093 H       1  UNL1        0.0815
     39 H          -2.4347   -1.9395    3.5432 H       1  UNL1        0.0815
     40 H           0.4065   -0.0181    4.7655 H       1  UNL1        0.0815
     41 H          -0.5804    1.1126    5.7220 H       1  UNL1        0.0815
     42 H           0.2398    2.1737    3.6289 H       1  UNL1        0.0342
     43 H          -1.5362    2.0505    3.6395 H       1  UNL1        0.0342
     44 H          -0.7126   -1.6717    6.1325 H       1  UNL1        0.0814
     45 H          -1.9879   -0.6315    6.8108 H       1  UNL1        0.0814
     46 H          -3.7038   -1.9359    5.5849 H       1  UNL1        0.0322
     47 H          -2.4285   -2.9760    4.9066 H       1  UNL1        0.0322
     48 H          -1.7746   -3.6674    7.1964 H       1  UNL1        0.0381
     49 H          -3.0498   -2.6273    7.8747 H       1  UNL1        0.0381
     50 N          -1.6834   -0.3894    4.7484 N.4     1  UNL1        0.2354
     51 H          -2.5506    0.1595    4.7171 H       1  UNL1        0.2033
     52 O          -3.9721   -5.2382    7.8090 O.co2   1  UNL1       -0.2464
@<TRIPOS>UNITY_ATOM_ATTR
50 1
charge 1
@<TRIPOS>BOND
     1     1     6   ar
     2     1     2   ar
     3     1    27    1
     4     2     3   ar
     5     2    28    1
     6     3     4   ar
     7     3    29    1
     8     4     5   ar
     9     5     6   ar
    10     5     7    1
    11     6    30    1
    12     7     8    1
    13     7     9    1
    14     7    16    1
    15     9    14   ar
    16     9    10   ar
    17    10    11   ar
    18    10    31    1
    19    11    12   ar
    20    11    32    1
    21    12    13   ar
    22    12    15    1
    23    13    14   ar
    24    13    33    1
    25    14    34    1
    26    16    17    1
    27    17    21    1
    28    17    18    1
    29    17    35    1
    30    18    19    1
    31    18    36    1
    32    18    37    1
    33    19    38    1
    34    19    39    1
    35    19    50    1
    36    20    21    1
    37    20    40    1
    38    20    41    1
    39    20    50    1
    40    21    42    1
    41    21    43    1
    42    22    23    1
    43    22    44    1
    44    22    45    1
    45    22    50    1
    46    23    24    1
    47    23    46    1
    48    23    47    1
    49    24    25    1
    50    24    48    1
    51    24    49    1
    52    25    26   ar
    53    25    52   ar
    54    50    51    1
