@<TRIPOS>MOLECULE
ZINC00001261
 42 45 0 0 0
SMALL
GASTEIGER

@<TRIPOS>ATOM
      1 C          -3.6474   -0.0060    0.7102 C.ar    1  UNL1       -0.0433
      2 C          -2.8604    1.0091    0.1812 C.ar    1  UNL1       -0.0551
      3 C          -1.6408    0.6903   -0.4176 C.ar    1  UNL1       -0.0211
      4 C          -1.2623   -0.6542   -0.4558 C.ar    1  UNL1        0.0747
      5 N          -2.0239   -1.6665    0.0296 N.ar    1  UNL1       -0.2547
      6 C          -3.1914   -1.3121    0.6133 C.ar    1  UNL1        0.0283
      7 C           0.0422   -1.0263   -1.0624 C.2     1  UNL1        0.0076
      8 C           0.0407   -1.7241   -2.2352 C.2     1  UNL1       -0.0498
      9 C          -1.2163   -2.2489   -2.9307 C.3     1  UNL1        0.0097
     10 C          -1.1508   -3.7733   -3.0517 C.3     1  UNL1       -0.0299
     11 N           0.0986   -4.1699   -3.7949 N.4     1  UNL1        0.2274
     12 C           1.3582   -3.6375   -3.1716 C.3     1  UNL1       -0.0299
     13 C           1.2699   -2.1133   -3.0477 C.3     1  UNL1        0.0097
     14 C           1.3069   -0.5570   -0.4143 C.ar    1  UNL1       -0.0126
     15 C           2.2958   -1.5159   -0.1041 C.ar    1  UNL1       -0.0523
     16 C           3.5144   -1.1551    0.4746 C.ar    1  UNL1       -0.0428
     17 C           3.7432    0.1693    0.8108 C.ar    1  UNL1        0.0413
     18 C           2.7551    1.1238    0.5889 C.ar    1  UNL1       -0.0396
     19 C           1.5242    0.7839   -0.0204 C.ar    1  UNL1       -0.0379
     20 C           0.5173    1.9205   -0.1041 C.3     1  UNL1       -0.0230
     21 C          -0.7296    1.7510   -0.9702 C.3     1  UNL1       -0.0216
     22 CL          5.2358    0.6268    1.5286 Cl      1  UNL1       -0.0835
     23 H          -4.5914    0.2174    1.1967 H       1  UNL1        0.0633
     24 H          -3.1939    2.0429    0.2520 H       1  UNL1        0.0621
     25 H          -3.7763   -2.1317    1.0243 H       1  UNL1        0.0830
     26 H          -2.1500   -1.9773   -2.4356 H       1  UNL1        0.0362
     27 H          -1.2747   -1.8002   -3.9316 H       1  UNL1        0.0362
     28 H          -1.1162   -4.2704   -2.0763 H       1  UNL1        0.0817
     29 H          -1.9922   -4.1657   -3.6305 H       1  UNL1        0.0817
     30 H           0.0330   -3.8398   -4.7674 H       1  UNL1        0.2014
     31 H           2.1831   -3.9392   -3.8238 H       1  UNL1        0.0817
     32 H           1.4669   -4.1298   -2.1993 H       1  UNL1        0.0817
     33 H           1.1798   -1.6696   -4.0482 H       1  UNL1        0.0362
     34 H           2.2072   -1.7245   -2.6463 H       1  UNL1        0.0362
     35 H           2.1225   -2.5696   -0.3044 H       1  UNL1        0.0624
     36 H           4.2693   -1.9110    0.6738 H       1  UNL1        0.0632
     37 H           2.9346    2.1500    0.9088 H       1  UNL1        0.0635
     38 H           1.0469    2.8070   -0.4776 H       1  UNL1        0.0317
     39 H           0.2024    2.1492    0.9241 H       1  UNL1        0.0317
     40 H          -0.4619    1.5185   -2.0083 H       1  UNL1        0.0317
     41 H          -1.2656    2.7081   -1.0079 H       1  UNL1        0.0317
     42 H           0.1495   -5.1957   -3.8439 H       1  UNL1        0.2014
@<TRIPOS>UNITY_ATOM_ATTR
11 1
charge 1
@<TRIPOS>BOND
     1     1     6   ar
     2     1     2   ar
     3     1    23    1
     4     2     3   ar
     5     2    24    1
     6     3    21    1
     7     3     4   ar
     8     4     5   ar
     9     4     7    1
    10     5     6   ar
    11     6    25    1
    12     7     8    2
    13     7    14    1
    14     8    13    1
    15     8     9    1
    16     9    10    1
    17     9    26    1
    18     9    27    1
    19    10    11    1
    20    10    28    1
    21    10    29    1
    22    11    12    1
    23    11    30    1
    24    11    42    1
    25    12    13    1
    26    12    31    1
    27    12    32    1
    28    13    33    1
    29    13    34    1
    30    14    19   ar
    31    14    15   ar
    32    15    16   ar
    33    15    35    1
    34    16    17   ar
    35    16    36    1
    36    17    18   ar
    37    17    22    1
    38    18    19   ar
    39    18    37    1
    40    19    20    1
    41    20    21    1
    42    20    38    1
    43    20    39    1
    44    21    40    1
    45    21    41    1
