@<TRIPOS>MOLECULE
ZINC02011568
 46 50 0 0 0
SMALL
GASTEIGER

@<TRIPOS>ATOM
      1 C          -4.5006   -4.3232    5.8354 C.ar    1  UNL1       -0.0599
      2 C          -5.4273   -3.4719    6.4261 C.ar    1  UNL1       -0.0606
      3 C          -5.0468   -2.1793    6.7790 C.ar    1  UNL1       -0.0462
      4 C          -3.7350   -1.7363    6.5464 C.ar    1  UNL1        0.0341
      5 C          -2.7846   -2.5783    5.9249 C.ar    1  UNL1        0.0479
      6 C          -3.1979   -3.8789    5.5829 C.ar    1  UNL1       -0.0393
      7 N          -1.4369   -2.1727    5.7909 N.pl3   1  UNL1       -0.2978
      8 C          -0.8203   -1.2995    6.7214 C.ar    1  UNL1        0.0479
      9 C           0.5375   -1.4334    7.0653 C.ar    1  UNL1       -0.0393
     10 C           1.1640   -0.5274    7.9172 C.ar    1  UNL1       -0.0599
     11 C           0.4426    0.5311    8.4601 C.ar    1  UNL1       -0.0606
     12 C          -0.9204    0.6470    8.1915 C.ar    1  UNL1       -0.0462
     13 C          -1.5588   -0.2739    7.3505 C.ar    1  UNL1        0.0341
     14 S          -3.3088   -0.0716    7.0493 S.3     1  UNL1       -0.0857
     15 C          -0.6826   -2.5443    4.5747 C.3     1  UNL1        0.0252
     16 C          -0.8275   -1.5332    3.3973 C.3     1  UNL1        0.0184
     17 H          -1.8855   -1.5513    3.0955 H       1  UNL1        0.0371
     18 C          -0.4796   -0.0708    3.7374 C.3     1  UNL1       -0.0273
     19 N           0.7655    0.3398    2.9554 N.4     1  UNL1        0.2355
     20 C           1.8981   -0.6316    3.2138 C.3     1  UNL1       -0.0316
     21 C           1.5379   -1.9553    2.5351 C.3     1  UNL1       -0.0090
     22 C           0.0382   -1.9608    2.1648 C.3     1  UNL1       -0.0223
     23 C          -0.1354   -0.9088    1.0433 C.3     1  UNL1       -0.0090
     24 C           0.4620    0.4320    1.4782 C.3     1  UNL1       -0.0316
     25 H          -4.7809   -5.3480    5.5999 H       1  UNL1        0.0618
     26 H          -6.4351   -3.8223    6.6366 H       1  UNL1        0.0618
     27 H          -5.7749   -1.5293    7.2606 H       1  UNL1        0.0629
     28 H          -2.4930   -4.6074    5.1924 H       1  UNL1        0.0636
     29 H           1.1161   -2.2855    6.7197 H       1  UNL1        0.0636
     30 H           2.2137   -0.6576    8.1803 H       1  UNL1        0.0618
     31 H           0.9304    1.2432    9.1223 H       1  UNL1        0.0618
     32 H          -1.4832    1.4550    8.6551 H       1  UNL1        0.0629
     33 H           0.3728   -2.6827    4.8150 H       1  UNL1        0.0472
     34 H          -0.9926   -3.5268    4.2027 H       1  UNL1        0.0472
     35 H          -1.2782    0.6114    3.4226 H       1  UNL1        0.0818
     36 H          -0.2513    0.1366    4.7777 H       1  UNL1        0.0818
     37 H           2.8180   -0.1937    2.8149 H       1  UNL1        0.0814
     38 H           1.9973   -0.7367    4.2996 H       1  UNL1        0.0814
     39 H           1.8032   -2.8006    3.1781 H       1  UNL1        0.0320
     40 H           2.1439   -2.0754    1.6271 H       1  UNL1        0.0320
     41 H          -0.2662   -2.9474    1.8003 H       1  UNL1        0.0309
     42 H          -1.1961   -0.7824    0.7969 H       1  UNL1        0.0320
     43 H           0.3594   -1.2420    0.1225 H       1  UNL1        0.0320
     44 H          -0.2264    1.2692    1.3267 H       1  UNL1        0.0814
     45 H           1.4055    0.6528    0.9664 H       1  UNL1        0.0814
     46 H           1.0466    1.2705    3.2910 H       1  UNL1        0.2033
@<TRIPOS>UNITY_ATOM_ATTR
19 1
charge 1
@<TRIPOS>BOND
     1     1     6   ar
     2     1     2   ar
     3     1    25    1
     4     2     3   ar
     5     2    26    1
     6     3     4   ar
     7     3    27    1
     8     4    14    1
     9     4     5   ar
    10     5     6   ar
    11     5     7    1
    12     6    28    1
    13     7     8    1
    14     7    15    1
    15     8    13   ar
    16     8     9   ar
    17     9    10   ar
    18     9    29    1
    19    10    11   ar
    20    10    30    1
    21    11    12   ar
    22    11    31    1
    23    12    13   ar
    24    12    32    1
    25    13    14    1
    26    15    33    1
    27    15    34    1
    28    16    22    1
    29    16    18    1
    30    18    19    1
    31    18    35    1
    32    18    36    1
    33    19    24    1
    34    19    20    1
    35    19    46    1
    36    20    21    1
    37    20    37    1
    38    20    38    1
    39    21    22    1
    40    21    39    1
    41    21    40    1
    42    22    23    1
    43    22    41    1
    44    23    24    1
    45    23    42    1
    46    23    43    1
    47    24    44    1
    48    24    45    1
    49    16    17    1
    50    16    15    1
