@<TRIPOS>MOLECULE
ZINC00000023
 42 42 0 0 0
SMALL
GASTEIGER

@<TRIPOS>ATOM
      1 C           2.7956   -4.4768   -0.5138 C.3     1  UNL1       -0.0219
      2 C           1.4946   -5.2596   -0.4172 C.3     1  UNL1       -0.0283
      3 C           1.3599   -5.9192    0.9538 C.3     1  UNL1       -0.0219
      4 N           0.3165   -4.3557   -0.6175 N.4     1  UNL1        0.2307
      5 C           0.1515   -3.6744   -1.9650 C.3     1  UNL1       -0.0035
      6 C          -1.1949   -2.9295   -1.9399 C.3     1  UNL1        0.1285
      7 H          -2.0022   -3.6674   -1.8620 H       1  UNL1        0.0681
      8 C          -1.4619   -2.0576   -3.1810 C.3     1  UNL1        0.1204
      9 O          -0.5490   -0.9548   -3.2183 O.3     1  UNL1       -0.4889
     10 C           0.1341   -0.7303   -4.3869 C.ar    1  UNL1        0.1241
     11 C           0.6197   -1.7749   -5.1827 C.ar    1  UNL1       -0.0197
     12 C           1.4133   -1.5124   -6.2997 C.ar    1  UNL1       -0.0583
     13 C           1.7362   -0.2047   -6.6351 C.ar    1  UNL1       -0.0613
     14 C           1.2608    0.8443   -5.8535 C.ar    1  UNL1       -0.0548
     15 C           0.4661    0.6015   -4.7146 C.ar    1  UNL1       -0.0020
     16 C           0.0395    1.7910   -3.8797 C.3     1  UNL1       -0.0063
     17 C          -1.2330    2.5072   -4.2558 C.2     1  UNL1       -0.0867
     18 C          -1.9723    2.3842   -5.3691 C.2     1  UNL1       -0.1023
     19 O          -1.2206   -2.1718   -0.7161 O.3     1  UNL1       -0.3831
     20 H           2.8223   -3.6503    0.2041 H       1  UNL1        0.0284
     21 H           2.9426   -4.0664   -1.5171 H       1  UNL1        0.0284
     22 H           3.6505   -5.1298   -0.3050 H       1  UNL1        0.0284
     23 H           1.4438   -6.0252   -1.1992 H       1  UNL1        0.0845
     24 H           1.3589   -5.1765    1.7594 H       1  UNL1        0.0284
     25 H           0.4329   -6.4981    1.0264 H       1  UNL1        0.0284
     26 H           2.1931   -6.6068    1.1348 H       1  UNL1        0.0284
     27 H          -0.5450   -4.8803   -0.4158 H       1  UNL1        0.2017
     28 H           0.9916   -2.9817   -2.0614 H       1  UNL1        0.0841
     29 H           0.1872   -4.4463   -2.7389 H       1  UNL1        0.0841
     30 H          -1.4800   -2.6701   -4.0871 H       1  UNL1        0.0725
     31 H          -2.4632   -1.6201   -3.0847 H       1  UNL1        0.0725
     32 H           0.4256   -2.8147   -4.9519 H       1  UNL1        0.0654
     33 H           1.7950   -2.3338   -6.9045 H       1  UNL1        0.0619
     34 H           2.3721   -0.0003   -7.4944 H       1  UNL1        0.0618
     35 H           1.5288    1.8652   -6.1248 H       1  UNL1        0.0622
     36 H          -0.0358    1.4862   -2.8284 H       1  UNL1        0.0357
     37 H           0.8501    2.5350   -3.8951 H       1  UNL1        0.0357
     38 H          -1.5635    3.2366   -3.5228 H       1  UNL1        0.0570
     39 H          -2.8637    2.9939   -5.5077 H       1  UNL1        0.0532
     40 H          -1.7113    1.7064   -6.1725 H       1  UNL1        0.0532
     41 H          -1.6306   -1.3026   -0.9080 H       1  UNL1        0.2102
     42 H           0.2993   -3.5903    0.0801 H       1  UNL1        0.2017
@<TRIPOS>UNITY_ATOM_ATTR
4 1
charge 1
@<TRIPOS>BOND
     1     1     2    1
     2     1    20    1
     3     1    21    1
     4     1    22    1
     5     2     3    1
     6     2     4    1
     7     2    23    1
     8     3    24    1
     9     3    25    1
    10     3    26    1
    11     4     5    1
    12     4    27    1
    13     4    42    1
    14     5    28    1
    15     5    29    1
    16     6     8    1
    17     6    19    1
    18     8     9    1
    19     8    30    1
    20     8    31    1
    21     9    10    1
    22    10    15   ar
    23    10    11   ar
    24    11    12   ar
    25    11    32    1
    26    12    13   ar
    27    12    33    1
    28    13    14   ar
    29    13    34    1
    30    14    15   ar
    31    14    35    1
    32    15    16    1
    33    16    17    1
    34    16    36    1
    35    16    37    1
    36    17    18    2
    37    17    38    1
    38    18    39    1
    39    18    40    1
    40    19    41    1
    41     6     7    1
    42     6     5    1
