@<TRIPOS>MOLECULE
ZINC03873362
 56 60 0 0 0
SMALL
GASTEIGER

@<TRIPOS>ATOM
      1 C           3.5721    0.0309    0.5488 C.3     1  UNL1       -0.0567
      2 C           2.1599    0.1534   -0.0704 C.3     1  UNL1       -0.0004
      3 C           1.9811   -1.0682   -1.0029 C.3     1  UNL1       -0.0445
      4 C           0.5494   -1.2854   -1.4727 C.3     1  UNL1       -0.0488
      5 C          -0.4577   -1.4114   -0.3142 C.3     1  UNL1       -0.0319
      6 H          -1.1750   -0.5905   -0.4648 H       1  UNL1        0.0309
      7 C           0.1726   -1.1312    1.0726 C.3     1  UNL1       -0.0343
      8 H           0.8253   -1.9879    1.2995 H       1  UNL1        0.0306
      9 C           1.0869    0.1260    1.0842 C.3     1  UNL1       -0.0298
     10 H           1.5919    0.1170    2.0608 H       1  UNL1        0.0310
     11 C           0.3282    1.4601    0.9845 C.3     1  UNL1       -0.0468
     12 C           0.5274    1.9644   -0.4312 C.3     1  UNL1       -0.0235
     13 C           1.9569    1.5499   -0.7813 C.3     1  UNL1        0.0689
     14 C           2.1834    1.6284   -2.2933 C.3     1  UNL1       -0.0356
     15 O           2.8334    2.5447   -0.2297 O.3     1  UNL1       -0.3883
     16 C          -0.8916   -1.0921    2.2098 C.3     1  UNL1       -0.0494
     17 C          -2.2094   -1.8002    1.8582 C.3     1  UNL1       -0.0491
     18 C          -1.8485   -3.0650    1.0944 C.3     1  UNL1       -0.0296
     19 H          -1.0144   -3.4964    1.6645 H       1  UNL1        0.0310
     20 C          -1.2995   -2.7499   -0.3487 C.3     1  UNL1       -0.0217
     21 C          -0.4799   -4.0123   -0.7988 C.3     1  UNL1       -0.0186
     22 C          -1.1274   -5.2911   -0.3635 C.ar    1  UNL1       -0.0065
     23 C          -0.7357   -6.5961   -0.5373 C.ar    1  UNL1        0.0258
     24 N          -1.6657   -7.3555    0.1185 N.ar    1  UNL1       -0.2842
     25 H          -1.7038   -8.3622    0.2098 H       1  UNL1        0.1882
     26 N          -2.6146   -6.6313    0.7490 N.ar    1  UNL1       -0.1786
     27 C          -2.2750   -5.3720    0.4674 C.ar    1  UNL1        0.0662
     28 C          -2.9201   -4.1761    1.0895 C.3     1  UNL1       -0.0051
     29 C          -2.4370   -2.5109   -1.3806 C.3     1  UNL1       -0.0587
     30 H           3.7531    0.7915    1.3162 H       1  UNL1        0.0236
     31 H           3.7036   -0.9413    1.0392 H       1  UNL1        0.0236
     32 H           4.3487    0.1278   -0.2172 H       1  UNL1        0.0236
     33 H           2.3050   -1.9821   -0.4841 H       1  UNL1        0.0272
     34 H           2.6532   -0.9944   -1.8679 H       1  UNL1        0.0272
     35 H           0.2278   -0.4630   -2.1182 H       1  UNL1        0.0268
     36 H           0.5395   -2.1515   -2.1396 H       1  UNL1        0.0268
     37 H           0.7635    2.1694    1.6993 H       1  UNL1        0.0269
     38 H          -0.7380    1.4020    1.2114 H       1  UNL1        0.0269
     39 H          -0.2085    1.5092   -1.0992 H       1  UNL1        0.0293
     40 H           0.3882    3.0502   -0.4634 H       1  UNL1        0.0293
     41 H           1.7029    2.5284   -2.6984 H       1  UNL1        0.0257
     42 H           3.2479    1.7128   -2.5340 H       1  UNL1        0.0257
     43 H           1.7716    0.7894   -2.8557 H       1  UNL1        0.0257
     44 H           2.6626    2.6252    0.7227 H       1  UNL1        0.2102
     45 H          -0.4509   -1.5965    3.0826 H       1  UNL1        0.0268
     46 H          -1.1207   -0.0842    2.5604 H       1  UNL1        0.0268
     47 H          -2.7492   -2.0348    2.7806 H       1  UNL1        0.0268
     48 H          -2.8525   -1.1449    1.2616 H       1  UNL1        0.0268
     49 H          -0.3685   -4.0400   -1.8905 H       1  UNL1        0.0320
     50 H           0.5245   -3.9749   -0.3615 H       1  UNL1        0.0320
     51 H           0.1153   -7.0431   -1.0232 H       1  UNL1        0.0826
     52 H          -3.8195   -3.8832    0.5379 H       1  UNL1        0.0332
     53 H          -3.2250   -4.4046    2.1172 H       1  UNL1        0.0332
     54 H          -3.0682   -3.3907   -1.5335 H       1  UNL1        0.0235
     55 H          -2.0237   -2.2499   -2.3632 H       1  UNL1        0.0235
     56 H          -3.0898   -1.6856   -1.0747 H       1  UNL1        0.0235
@<TRIPOS>BOND
     1     1    30    1
     2     1    31    1
     3     1    32    1
     4     2     1    1
     5     2     9    1
     6     2    13    1
     7     2     3    1
     8     3     4    1
     9     3    33    1
    10     3    34    1
    11     4     5    1
    12     4    35    1
    13     4    36    1
    14     5     6    1
    15     5    20    1
    16     5     7    1
    17     7     8    1
    18     7     9    1
    19     7    16    1
    20     9    10    1
    21     9    11    1
    22    11    12    1
    23    11    37    1
    24    11    38    1
    25    12    13    1
    26    12    39    1
    27    12    40    1
    28    13    14    1
    29    13    15    1
    30    14    41    1
    31    14    42    1
    32    14    43    1
    33    15    44    1
    34    16    17    1
    35    16    45    1
    36    16    46    1
    37    17    18    1
    38    17    47    1
    39    17    48    1
    40    18    19    1
    41    18    28    1
    42    18    20    1
    43    20    21    1
    44    20    29    1
    45    21    22    1
    46    21    49    1
    47    21    50    1
    48    22    27   ar
    49    22    23   ar
    50    23    24   ar
    51    23    51    1
    52    24    25    1
    53    24    26   ar
    54    26    27   ar
    55    27    28    1
    56    28    52    1
    57    28    53    1
    58    29    54    1
    59    29    55    1
    60    29    56    1
