@<TRIPOS>MOLECULE
ZINC02015928
 39 42 0 0 0
SMALL
GASTEIGER

@<TRIPOS>ATOM
      1 C           2.3862   -0.0992   -0.1859 C.ar    1  UNL1        0.0988
      2 N           1.6728    1.0003   -0.2194 N.ar    1  UNL1       -0.2306
      3 C           0.3717    0.5672   -0.1006 C.ar    1  UNL1        0.1476
      4 C          -0.8418    1.2779   -0.1163 C.ar    1  UNL1        0.1518
      5 N          -1.9871    0.5615    0.0203 N.ar    1  UNL1       -0.1976
      6 C          -1.9194   -0.7731    0.1685 C.ar    1  UNL1        0.2162
      7 N          -0.8169   -1.5460    0.1449 N.ar    1  UNL1       -0.1949
      8 C           0.3035   -0.8170    0.0149 C.ar    1  UNL1        0.1677
      9 N           1.6098   -1.2328   -0.0662 N.ar    1  UNL1       -0.3079
     10 C           2.1850   -2.5615   -0.2150 C.3     1  UNL1        0.0560
     11 H           3.2399   -2.4572    0.0766 H       1  UNL1        0.0573
     12 C           2.1170   -3.0792   -1.6597 C.3     1  UNL1       -0.0201
     13 C           1.7495   -4.5720   -1.5851 C.3     1  UNL1        0.0025
     14 H           2.6000   -5.1776   -1.9259 H       1  UNL1        0.0366
     15 C           1.5065   -4.8011   -0.1190 C.2     1  UNL1       -0.0807
     16 C           1.6491   -3.6874    0.6040 C.2     1  UNL1       -0.0650
     17 C           0.5123   -4.9194   -2.4283 C.3     1  UNL1        0.0505
     18 O          -0.6509   -4.2126   -2.0088 O.3     1  UNL1       -0.3944
     19 N          -3.1370   -1.4061    0.3134 N.pl3   1  UNL1       -0.3274
     20 N          -0.8572    2.6812   -0.2717 N.pl3   1  UNL1       -0.3243
     21 C          -2.0375    3.3371   -0.8255 C.3     1  UNL1        0.0221
     22 C          -2.0008    4.7884   -1.2218 C.3     1  UNL1       -0.0329
     23 C          -2.0920    3.7255   -2.2770 C.3     1  UNL1       -0.0329
     24 H           3.4639   -0.1472   -0.2746 H       1  UNL1        0.1029
     25 H           1.4116   -2.5115   -2.2776 H       1  UNL1        0.0295
     26 H           3.1002   -2.9589   -2.1356 H       1  UNL1        0.0295
     27 H           1.2304   -5.7694    0.2817 H       1  UNL1        0.0573
     28 H           1.5107   -3.6403    1.6789 H       1  UNL1        0.0589
     29 H           0.6893   -4.6593   -3.4776 H       1  UNL1        0.0563
     30 H           0.2987   -5.9935   -2.3775 H       1  UNL1        0.0563
     31 H          -0.7295   -4.3107   -1.0391 H       1  UNL1        0.2094
     32 H          -3.0770   -2.3450   -0.0563 H       1  UNL1        0.1452
     33 H          -3.8614   -0.8096   -0.0655 H       1  UNL1        0.1452
     34 H           0.0697    3.0060   -0.5421 H       1  UNL1        0.1478
     35 H          -2.9628    3.0037   -0.3597 H       1  UNL1        0.0498
     36 H          -2.8845    5.3875   -1.0325 H       1  UNL1        0.0284
     37 H          -1.0693    5.3319   -1.1238 H       1  UNL1        0.0284
     38 H          -1.2190    3.5497   -2.8936 H       1  UNL1        0.0284
     39 H          -3.0351    3.5988   -2.7951 H       1  UNL1        0.0284
@<TRIPOS>BOND
     1     1     9   ar
     2     1     2   ar
     3     1    24    1
     4     2     3   ar
     5     3     8   ar
     6     3     4   ar
     7     4     5   ar
     8     4    20    1
     9     5     6   ar
    10     6     7   ar
    11     6    19    1
    12     7     8   ar
    13     8     9   ar
    14     9    10    1
    15    10    11    1
    16    10    16    1
    17    10    12    1
    18    12    13    1
    19    12    25    1
    20    12    26    1
    21    13    15    1
    22    15    16    2
    23    15    27    1
    24    16    28    1
    25    17    18    1
    26    17    29    1
    27    17    30    1
    28    18    31    1
    29    19    32    1
    30    19    33    1
    31    20    21    1
    32    20    34    1
    33    21    23    1
    34    21    22    1
    35    21    35    1
    36    22    23    1
    37    22    36    1
    38    22    37    1
    39    23    38    1
    40    23    39    1
    41    13    17    1
    42    13    14    1
