@<TRIPOS>MOLECULE
ZINC00002097
 30 31 0 0 0
SMALL
GASTEIGER

@<TRIPOS>ATOM
      1 C           1.2601    1.5509    4.5468 C.3     1  UNL1        0.0805
      2 O           1.7338    1.8496    3.2420 O.3     1  UNL1       -0.4773
      3 C           1.6814    0.7470    2.4118 C.ar    1  UNL1        0.2592
      4 C           2.5454    0.6889    1.3045 C.ar    1  UNL1        0.2246
      5 N           2.4757   -0.3479    0.4233 N.ar    1  UNL1       -0.2312
      6 C           1.5663   -1.3031    0.7026 C.ar    1  UNL1        0.0481
      7 C           0.7162   -1.2262    1.7902 C.ar    1  UNL1        0.0496
      8 N           0.7371   -0.2005    2.6639 N.ar    1  UNL1       -0.2168
      9 N           3.4404    1.6476    0.9954 N.pl3   1  UNL1       -0.0723
     10 S           4.9195    1.5364    1.5895 S.O2    1  UNL1        0.0931
     11 O           5.6543    2.8037    1.5963 O.2     1  UNL1       -0.1483
     12 O           5.0837    0.7628    2.8224 O.2     1  UNL1       -0.1483
     13 C           5.8724    0.5635    0.3835 C.ar    1  UNL1        0.1105
     14 C           6.5216    1.2148   -0.6667 C.ar    1  UNL1       -0.0333
     15 C           7.2563    0.4659   -1.5898 C.ar    1  UNL1       -0.0392
     16 C           7.3881   -0.9199   -1.4411 C.ar    1  UNL1        0.0247
     17 C           6.6904   -1.5594   -0.4087 C.ar    1  UNL1       -0.0392
     18 C           5.9526   -0.8200    0.5203 C.ar    1  UNL1       -0.0333
     19 N           8.0204   -1.6794   -2.4403 N.pl3   1  UNL1       -0.3580
     20 H           1.5618    2.3673    5.2101 H       1  UNL1        0.0660
     21 H           1.6981    0.6269    4.9425 H       1  UNL1        0.0660
     22 H           0.1660    1.4980    4.5594 H       1  UNL1        0.0660
     23 H           1.5397   -2.1406    0.0181 H       1  UNL1        0.0846
     24 H          -0.0162   -1.9982    1.9876 H       1  UNL1        0.0846
     25 H           6.4394    2.2928   -0.7701 H       1  UNL1        0.0638
     26 H           7.7235    0.9780   -2.4258 H       1  UNL1        0.0636
     27 H           6.7109   -2.6402   -0.3154 H       1  UNL1        0.0636
     28 H           5.4207   -1.3126    1.3289 H       1  UNL1        0.0638
     29 H           8.3456   -2.5771   -2.0981 H       1  UNL1        0.1423
     30 H           8.7441   -1.1594   -2.9248 H       1  UNL1        0.1423
@<TRIPOS>BOND
     1     1     2    1
     2     1    20    1
     3     1    21    1
     4     1    22    1
     5     2     3    1
     6     3     8   ar
     7     3     4   ar
     8     4     5   ar
     9     4     9    1
    10     5     6   ar
    11     6     7   ar
    12     6    23    1
    13     7     8   ar
    14     7    24    1
    15     9    10    1
    16    10    11    2
    17    10    12    2
    18    10    13    1
    19    13    18   ar
    20    13    14   ar
    21    14    15   ar
    22    14    25    1
    23    15    16   ar
    24    15    26    1
    25    16    17   ar
    26    16    19    1
    27    17    18   ar
    28    17    27    1
    29    18    28    1
    30    19    29    1
    31    19    30    1
