@<TRIPOS>MOLECULE
ZINC01280665
 44 48 0 0 0
SMALL
GASTEIGER

@<TRIPOS>ATOM
      1 C          -3.0157   11.2465   -0.8687 C.3     1  UNL1       -0.0428
      2 N          -2.1791   12.4698   -1.2341 N.4     1  UNL1        0.2357
      3 C          -2.2894   13.3777   -0.0177 C.3     1  UNL1       -0.0309
      4 C          -1.1848   14.3640    0.0031 C.3     1  UNL1        0.0015
      5 C           0.1611   13.6327   -0.1418 C.3     1  UNL1        0.0561
      6 C           0.4186   12.2605    0.4476 C.ar    1  UNL1        0.0121
      7 C           0.3696   11.0030   -0.1806 C.ar    1  UNL1       -0.0345
      8 C           0.9419    9.8946    0.4447 C.ar    1  UNL1       -0.0544
      9 C           1.3875   10.0144    1.7591 C.ar    1  UNL1       -0.0160
     10 C           1.3255   11.2511    2.3993 C.ar    1  UNL1        0.1618
     11 C           1.0138   12.3843    1.6699 C.ar    1  UNL1        0.1670
     12 O           1.2781   13.6889    1.9894 O.3     1  UNL1       -0.4765
     13 C           1.1769   14.4066    0.7179 C.3     1  UNL1        0.1680
     14 H           0.7837   15.3936    0.9815 H       1  UNL1        0.0823
     15 C           2.4841   14.7157    0.0059 C.2     1  UNL1        0.1744
     16 O           3.4086   15.2804    0.5951 O.2     1  UNL1       -0.2934
     17 C           2.5427   14.5280   -1.5023 C.3     1  UNL1        0.0101
     18 C           1.7901   13.2700   -1.9745 C.3     1  UNL1       -0.0373
     19 C           0.2816   13.4220   -1.6441 C.3     1  UNL1        0.0165
     20 H          -0.0457   14.2975   -2.2190 H       1  UNL1        0.0366
     21 C          -0.7438   12.2455   -1.9710 C.3     1  UNL1       -0.0132
     22 H          -1.0002   12.2453   -3.0359 H       1  UNL1        0.0857
     23 C          -0.1315   10.9010   -1.5849 C.3     1  UNL1        0.0162
     24 O           1.4748   11.2624    3.7599 O.3     1  UNL1       -0.4914
     25 C           0.2973   11.8310    4.3479 C.3     1  UNL1        0.0790
     26 H          -2.8523   10.4528   -1.5885 H       1  UNL1        0.0778
     27 H          -4.0677   11.5566   -0.8924 H       1  UNL1        0.0778
     28 H          -2.7599   10.9199    0.1492 H       1  UNL1        0.0778
     29 H          -3.2665   13.8747   -0.0610 H       1  UNL1        0.0815
     30 H          -2.2468   12.7843    0.9032 H       1  UNL1        0.0815
     31 H          -1.2581   14.9794    0.9054 H       1  UNL1        0.0327
     32 H          -1.3232   15.0843   -0.8198 H       1  UNL1        0.0327
     33 H           1.0437    8.9423   -0.0734 H       1  UNL1        0.0622
     34 H           1.7819    9.1427    2.2777 H       1  UNL1        0.0655
     35 H           3.5941   14.4563   -1.7871 H       1  UNL1        0.0343
     36 H           2.1162   15.4198   -1.9721 H       1  UNL1        0.0343
     37 H           1.9372   13.1298   -3.0498 H       1  UNL1        0.0274
     38 H           2.2522   12.4048   -1.4813 H       1  UNL1        0.0274
     39 H          -0.8301   10.0651   -1.6909 H       1  UNL1        0.0368
     40 H           0.7096   10.6836   -2.2533 H       1  UNL1        0.0368
     41 H           0.4429   12.9059    4.4886 H       1  UNL1        0.0660
     42 H           0.1291   11.3637    5.3212 H       1  UNL1        0.0660
     43 H          -0.6132   11.6560    3.7511 H       1  UNL1        0.0660
     44 H          -2.7153   12.9495   -1.9547 H       1  UNL1        0.2033
@<TRIPOS>UNITY_ATOM_ATTR
2 1
charge 1
@<TRIPOS>BOND
     1     1    26    1
     2     1    27    1
     3     1    28    1
     4     2    21    1
     5     2     3    1
     6     3     4    1
     7     4     5    1
     8     5    13    1
     9     5    19    1
    10     5     6    1
    11     6    11   ar
    12     6     7   ar
    13     7    23    1
    14     7     8   ar
    15     8     9   ar
    16     9    10   ar
    17    10    11   ar
    18    11    12    1
    19    12    13    1
    20    13    15    1
    21    15    17    1
    22    17    18    1
    23    18    19    1
    24    19    21    1
    25    21    23    1
    26    24    25    1
    27    25    41    1
    28    25    42    1
    29    25    43    1
    30     1     2    1
    31     2    44    1
    32     3    29    1
    33     3    30    1
    34     4    31    1
    35     4    32    1
    36     8    33    1
    37     9    34    1
    38    10    24    1
    39    13    14    1
    40    15    16    2
    41    17    35    1
    42    17    36    1
    43    18    37    1
    44    18    38    1
    45    19    20    1
    46    21    22    1
    47    23    39    1
    48    23    40    1
