@<TRIPOS>MOLECULE
ZINC00001408
 34 35 0 0 0
SMALL
GASTEIGER

@<TRIPOS>ATOM
      1 C           0.5914   -6.5578   -4.7417 C.3     1  UNL1       -0.0306
      2 C           1.9458   -7.1728   -4.4429 C.3     1  UNL1        0.0900
      3 O           2.3916   -6.7750   -3.1411 O.3     1  UNL1       -0.4604
      4 C           3.0242   -5.5690   -3.0241 C.2     1  UNL1        0.3574
      5 O           3.2636   -4.8106   -3.9522 O.2     1  UNL1       -0.2432
      6 C           3.3418   -5.3460   -1.6392 C.ar    1  UNL1        0.1468
      7 C           3.1593   -6.2166   -0.5759 C.ar    1  UNL1        0.0598
      8 N           3.5647   -5.6756    0.6070 N.ar    1  UNL1       -0.2432
      9 C           3.9889   -4.4754    0.2977 C.ar    1  UNL1        0.0970
     10 N           3.8851   -4.2149   -1.0481 N.ar    1  UNL1       -0.3178
     11 C           4.2506   -2.9407   -1.6929 C.3     1  UNL1        0.0582
     12 H           3.6212   -2.8476   -2.5854 H       1  UNL1        0.0575
     13 C           5.7084   -2.9577   -2.1668 C.3     1  UNL1       -0.0400
     14 C           3.8917   -1.7621   -0.7857 C.ar    1  UNL1       -0.0249
     15 C           4.8162   -1.1636    0.0894 C.ar    1  UNL1       -0.0566
     16 C           4.4028   -0.2062    1.0189 C.ar    1  UNL1       -0.0614
     17 C           3.0663    0.1790    1.0787 C.ar    1  UNL1       -0.0617
     18 C           2.1446   -0.3748    0.1946 C.ar    1  UNL1       -0.0614
     19 C           2.5535   -1.3366   -0.7320 C.ar    1  UNL1       -0.0566
     20 H          -0.1249   -6.7959   -3.9479 H       1  UNL1        0.0262
     21 H           0.1983   -6.9280   -5.6930 H       1  UNL1        0.0262
     22 H           0.6595   -5.4668   -4.7921 H       1  UNL1        0.0262
     23 H           1.8491   -8.2637   -4.4199 H       1  UNL1        0.0695
     24 H           2.6866   -6.9255   -5.2087 H       1  UNL1        0.0695
     25 H           2.7478   -7.2181   -0.6145 H       1  UNL1        0.0853
     26 H           4.3594   -3.7550    1.0152 H       1  UNL1        0.1029
     27 H           5.9585   -2.0257   -2.6874 H       1  UNL1        0.0253
     28 H           6.4143   -3.0800   -1.3382 H       1  UNL1        0.0253
     29 H           5.8877   -3.7864   -2.8608 H       1  UNL1        0.0253
     30 H           5.8617   -1.4630    0.1013 H       1  UNL1        0.0621
     31 H           5.1208    0.2216    1.7148 H       1  UNL1        0.0618
     32 H           2.7410    0.9030    1.8210 H       1  UNL1        0.0618
     33 H           1.1004   -0.0766    0.2415 H       1  UNL1        0.0618
     34 H           1.8080   -1.7775   -1.3912 H       1  UNL1        0.0621
@<TRIPOS>BOND
     1     1     2    1
     2     1    20    1
     3     1    21    1
     4     1    22    1
     5     2     3    1
     6     2    23    1
     7     2    24    1
     8     3     4    1
     9     4     5    2
    10     4     6    1
    11     6    10   ar
    12     6     7   ar
    13     7     8   ar
    14     7    25    1
    15     8     9   ar
    16     9    10   ar
    17     9    26    1
    18    11    13    1
    19    11    14    1
    20    13    27    1
    21    13    28    1
    22    13    29    1
    23    14    19   ar
    24    14    15   ar
    25    15    16   ar
    26    15    30    1
    27    16    17   ar
    28    16    31    1
    29    17    18   ar
    30    17    32    1
    31    18    19   ar
    32    18    33    1
    33    19    34    1
    34    11    12    1
    35    11    10    1
