@<TRIPOS>MOLECULE
ZINC00402848
 46 49 0 0 0
SMALL
GASTEIGER

@<TRIPOS>ATOM
      1 C           1.6815    0.9054    0.8353 C.3     1  UNL1       -0.0428
      2 N           0.8772    0.4419   -0.3315 N.4     1  UNL1        0.2357
      3 C          -0.5825    0.0858    0.0023 C.3     1  UNL1       -0.0311
      4 C          -1.6456    0.8631   -0.7951 C.3     1  UNL1       -0.0024
      5 C          -1.3010    1.1654   -2.2945 C.3     1  UNL1        0.0089
      6 C          -2.3228    0.6419   -3.3461 C.3     1  UNL1       -0.0427
      7 C          -2.1636   -0.8275   -3.7276 C.3     1  UNL1       -0.0522
      8 C          -0.7322   -1.2143   -4.1381 C.3     1  UNL1       -0.0526
      9 C           0.2942   -0.0646   -3.9690 C.3     1  UNL1       -0.0443
     10 C           0.0519    0.4776   -2.5711 C.3     1  UNL1        0.0122
     11 H          -0.0339   -0.5121   -2.1142 H       1  UNL1        0.0364
     12 C           1.1406    1.1178   -1.7186 C.3     1  UNL1       -0.0134
     13 H           2.1337    0.7581   -2.0029 H       1  UNL1        0.0857
     14 C           1.1688    2.6635   -1.6689 C.3     1  UNL1        0.0161
     15 C          -0.1138    3.3919   -1.9813 C.ar    1  UNL1       -0.0381
     16 C          -1.2697    2.7027   -2.3382 C.ar    1  UNL1       -0.0337
     17 C          -2.4574    3.4538   -2.5280 C.ar    1  UNL1       -0.0160
     18 C          -2.5102    4.8441   -2.3869 C.ar    1  UNL1        0.1204
     19 C          -1.3467    5.5265   -2.0844 C.ar    1  UNL1       -0.0197
     20 C          -0.1636    4.7994   -1.8776 C.ar    1  UNL1       -0.0546
     21 O          -3.7598    5.3845   -2.5466 O.3     1  UNL1       -0.4951
     22 C          -3.9147    6.7858   -2.3494 C.3     1  UNL1        0.0788
     23 H           1.5933    0.1476    1.6153 H       1  UNL1        0.0778
     24 H           1.2801    1.8639    1.1820 H       1  UNL1        0.0778
     25 H           2.7237    0.9888    0.5197 H       1  UNL1        0.0778
     26 H          -0.6803   -0.9855   -0.2212 H       1  UNL1        0.0815
     27 H          -0.7256    0.1916    1.0820 H       1  UNL1        0.0815
     28 H          -2.5948    0.3156   -0.7390 H       1  UNL1        0.0325
     29 H          -1.8199    1.7867   -0.2292 H       1  UNL1        0.0325
     30 H          -2.2068    1.2211   -4.2739 H       1  UNL1        0.0274
     31 H          -3.3536    0.8093   -3.0102 H       1  UNL1        0.0274
     32 H          -2.8413   -1.0529   -4.5595 H       1  UNL1        0.0266
     33 H          -2.4976   -1.4477   -2.8866 H       1  UNL1        0.0266
     34 H          -0.4349   -2.0519   -3.4724 H       1  UNL1        0.0265
     35 H          -0.7051   -1.6456   -5.1411 H       1  UNL1        0.0265
     36 H           1.2970   -0.4875   -4.0519 H       1  UNL1        0.0270
     37 H           0.1751    0.6910   -4.7607 H       1  UNL1        0.0270
     38 H           1.5391    3.0142   -0.6993 H       1  UNL1        0.0368
     39 H           1.9018    3.0065   -2.4098 H       1  UNL1        0.0368
     40 H          -3.4005    2.9602   -2.7432 H       1  UNL1        0.0657
     41 H          -1.3250    6.6046   -1.9775 H       1  UNL1        0.0654
     42 H           0.7354    5.3588   -1.6186 H       1  UNL1        0.0622
     43 H          -3.5732    7.0957   -1.3559 H       1  UNL1        0.0660
     44 H          -3.4066    7.3493   -3.1390 H       1  UNL1        0.0660
     45 H          -4.9842    7.0064   -2.4141 H       1  UNL1        0.0660
     46 H           1.2924   -0.4866   -0.4897 H       1  UNL1        0.2033
@<TRIPOS>UNITY_ATOM_ATTR
2 1
charge 1
@<TRIPOS>BOND
     1     1     2    1
     2     1    23    1
     3     1    24    1
     4     1    25    1
     5     2    12    1
     6     2     3    1
     7     2    46    1
     8     3     4    1
     9     3    26    1
    10     3    27    1
    11     4     5    1
    12     4    28    1
    13     4    29    1
    14     5    10    1
    15     5    16    1
    16     5     6    1
    17     6     7    1
    18     6    30    1
    19     6    31    1
    20     7     8    1
    21     7    32    1
    22     7    33    1
    23     8     9    1
    24     8    34    1
    25     8    35    1
    26     9    10    1
    27     9    36    1
    28     9    37    1
    29    10    11    1
    30    10    12    1
    31    12    13    1
    32    12    14    1
    33    14    15    1
    34    14    38    1
    35    14    39    1
    36    15    20   ar
    37    15    16   ar
    38    16    17   ar
    39    17    18   ar
    40    17    40    1
    41    18    19   ar
    42    18    21    1
    43    19    20   ar
    44    19    41    1
    45    20    42    1
    46    21    22    1
    47    22    43    1
    48    22    44    1
    49    22    45    1
