@<TRIPOS>MOLECULE
ZINC01531036
 27 26 0 0 0
SMALL
GASTEIGER

@<TRIPOS>ATOM
      1 C           0.9629    0.0324   -0.0177 C.3     1  UNL1       -0.0530
      2 C           0.4710    1.2385    0.7900 C.3     1  UNL1       -0.0526
      3 C          -1.0504    1.4094    0.8969 C.3     1  UNL1       -0.0428
      4 C          -1.7650    0.2430    1.5782 C.3     1  UNL1        0.0492
      5 C          -3.2719    0.4306    1.8049 C.2     1  UNL1        0.3560
      6 O          -3.8217   -0.5103    2.4516 O.co2   1  UNL1       -0.2464
      7 O          -3.7947    1.4834    1.3456 O.co2   1  UNL1       -0.2464
      8 C           0.5180   -0.0179   -1.4831 C.3     1  UNL1       -0.0526
      9 C           0.9377    1.1727   -2.3543 C.3     1  UNL1       -0.0428
     10 C           2.4425    1.4019   -2.4624 C.3     1  UNL1        0.0492
     11 C           3.2215    0.2743   -3.1461 C.2     1  UNL1        0.3560
     12 O           2.8021   -0.0705   -4.2864 O.co2   1  UNL1       -0.2464
     13 O           4.2316   -0.1387   -2.5087 O.co2   1  UNL1       -0.2464
     14 H           0.6345   -0.8902    0.4759 H       1  UNL1        0.0265
     15 H           2.0589    0.0107    0.0256 H       1  UNL1        0.0265
     16 H           0.8877    1.1636    1.8023 H       1  UNL1        0.0265
     17 H           0.8931    2.1554    0.3611 H       1  UNL1        0.0265
     18 H          -1.2424    2.3242    1.4731 H       1  UNL1        0.0270
     19 H          -1.4783    1.5812   -0.0964 H       1  UNL1        0.0270
     20 H          -1.6409   -0.6686    0.9827 H       1  UNL1        0.0379
     21 H          -1.3070    0.0596    2.5582 H       1  UNL1        0.0379
     22 H           0.9087   -0.9408   -1.9301 H       1  UNL1        0.0265
     23 H          -0.5741   -0.1072   -1.5230 H       1  UNL1        0.0265
     24 H           0.5208    1.0222   -3.3578 H       1  UNL1        0.0270
     25 H           0.4699    2.0872   -1.9693 H       1  UNL1        0.0270
     26 H           2.6126    2.3029   -3.0662 H       1  UNL1        0.0379
     27 H           2.8706    1.6132   -1.4764 H       1  UNL1        0.0379
@<TRIPOS>BOND
     1     1     2    1
     2     1     8    1
     3     1    14    1
     4     1    15    1
     5     2     3    1
     6     2    16    1
     7     2    17    1
     8     3     4    1
     9     3    18    1
    10     3    19    1
    11     4     5    1
    12     4    20    1
    13     4    21    1
    14     5     6   ar
    15     5     7   ar
    16     8     9    1
    17     8    22    1
    18     8    23    1
    19     9    10    1
    20     9    24    1
    21     9    25    1
    22    10    11    1
    23    10    26    1
    24    10    27    1
    25    11    12   ar
    26    11    13   ar
