@<TRIPOS>MOLECULE
ZINC03079340
 26 25 0 0 0
SMALL
GASTEIGER

@<TRIPOS>ATOM
      1 C           0.9813    0.0234    0.0247 C.3     1  UNL1       -0.0417
      2 N           0.4263    1.4253   -0.0493 N.4     1  UNL1        0.2387
      3 C           1.0097    2.1415   -1.2591 C.3     1  UNL1       -0.0417
      4 C          -1.0908    1.3773   -0.1947 C.3     1  UNL1       -0.0417
      5 C           0.8106    2.2726    1.2091 C.3     1  UNL1       -0.0037
      6 C           0.4467    1.6188    2.5734 C.3     1  UNL1        0.1051
      7 H           0.9491    0.6506    2.6525 H       1  UNL1        0.0652
      8 C           0.9140    2.4548    3.7666 C.3     1  UNL1        0.0801
      9 C           0.3010    3.8187    3.5030 C.2     1  UNL1        0.3587
     10 O          -0.9503    3.8535    3.6625 O.co2   1  UNL1       -0.2463
     11 O           1.0829    4.6403    2.9514 O.co2   1  UNL1       -0.2463
     12 O          -0.9574    1.3442    2.6779 O.3     1  UNL1       -0.3860
     13 H           0.7672   -0.4829   -0.9224 H       1  UNL1        0.0778
     14 H           0.4969   -0.5189    0.8413 H       1  UNL1        0.0778
     15 H           2.0617    0.0832    0.1850 H       1  UNL1        0.0778
     16 H           0.7356    1.5833   -2.1602 H       1  UNL1        0.0778
     17 H           0.5991    3.1544   -1.3009 H       1  UNL1        0.0778
     18 H           2.0990    2.1699   -1.1563 H       1  UNL1        0.0778
     19 H          -1.5060    0.6620    0.5168 H       1  UNL1        0.0778
     20 H          -1.4952    2.3816   -0.0417 H       1  UNL1        0.0778
     21 H          -1.3229    1.0333   -1.2081 H       1  UNL1        0.0778
     22 H           1.8947    2.4294    1.1535 H       1  UNL1        0.0841
     23 H           0.2966    3.2253    1.0534 H       1  UNL1        0.0841
     24 H           0.5419    2.0540    4.7152 H       1  UNL1        0.0406
     25 H           2.0064    2.5174    3.8071 H       1  UNL1        0.0406
     26 H          -1.3567    2.1475    3.1079 H       1  UNL1        0.2100
@<TRIPOS>UNITY_ATOM_ATTR
2 1
charge 1
@<TRIPOS>BOND
     1     1     2    1
     2     1    13    1
     3     1    14    1
     4     1    15    1
     5     2     3    1
     6     2     4    1
     7     2     5    1
     8     3    16    1
     9     3    17    1
    10     3    18    1
    11     4    19    1
    12     4    20    1
    13     4    21    1
    14     5     6    1
    15     5    22    1
    16     5    23    1
    17     6     7    1
    18     6     8    1
    19     6    12    1
    20     8     9    1
    21     8    24    1
    22     8    25    1
    23     9    10   ar
    24     9    11   ar
    25    12    26    1
