@<TRIPOS>MOLECULE
ZINC01530856
 33 34 0 0 0
SMALL
GASTEIGER

@<TRIPOS>ATOM
      1 C          -0.6340    1.3202    1.6545 C.3     1  UNL1       -0.0640
      2 C           0.5113    0.3782    1.2754 C.3     1  UNL1       -0.0378
      3 C           0.9965   -0.5936    2.3963 C.3     1  UNL1        0.0724
      4 C           2.2674   -1.3564    1.9096 C.3     1  UNL1       -0.0267
      5 C           1.9649   -2.4582    0.9061 C.3     1  UNL1        0.0256
      6 C           0.9857   -3.4431    1.4791 C.2     1  UNL1        0.2193
      7 O           0.9046   -4.6008    1.0835 O.2     1  UNL1       -0.2754
      8 N           0.1022   -2.9378    2.3907 N.am    1  UNL1       -0.2557
      9 C          -0.1367   -1.6194    2.6671 C.2     1  UNL1        0.2297
     10 O          -1.2505   -1.3120    3.0935 O.2     1  UNL1       -0.2744
     11 C           1.4137    0.1952    3.6604 C.ar    1  UNL1       -0.0323
     12 C           2.4173    1.1808    3.5893 C.ar    1  UNL1       -0.0558
     13 C           2.8020    1.9133    4.7183 C.ar    1  UNL1       -0.0408
     14 C           2.1669    1.7190    5.9431 C.ar    1  UNL1        0.0246
     15 C           1.2359    0.6900    6.0476 C.ar    1  UNL1       -0.0408
     16 C           0.8509   -0.0499    4.9231 C.ar    1  UNL1       -0.0558
     17 N           2.6228    2.3777    7.0923 N.pl3   1  UNL1       -0.3580
     18 H          -0.8650    1.9810    0.8113 H       1  UNL1        0.0230
     19 H          -0.3773    1.9573    2.5065 H       1  UNL1        0.0230
     20 H          -1.5510    0.7771    1.8931 H       1  UNL1        0.0230
     21 H           0.1868   -0.1969    0.3982 H       1  UNL1        0.0276
     22 H           1.3457    1.0044    0.9331 H       1  UNL1        0.0276
     23 H           2.7771   -1.8116    2.7701 H       1  UNL1        0.0283
     24 H           2.9874   -0.6653    1.4561 H       1  UNL1        0.0283
     25 H           2.8905   -2.9941    0.6699 H       1  UNL1        0.0359
     26 H           1.5541   -2.0582   -0.0273 H       1  UNL1        0.0359
     27 H          -0.6509   -3.5689    2.6342 H       1  UNL1        0.1575
     28 H           2.9233    1.3932    2.6510 H       1  UNL1        0.0621
     29 H           3.5992    2.6461    4.6264 H       1  UNL1        0.0636
     30 H           0.7843    0.4564    7.0076 H       1  UNL1        0.0636
     31 H           0.0941   -0.8165    5.0770 H       1  UNL1        0.0621
     32 H           1.9260    2.4197    7.8312 H       1  UNL1        0.1423
     33 H           3.0273    3.2905    6.9007 H       1  UNL1        0.1423
@<TRIPOS>BOND
     1     1     2    1
     2     1    18    1
     3     1    19    1
     4     1    20    1
     5     2    21    1
     6     2    22    1
     7     3     2    1
     8     3     9    1
     9     3     4    1
    10     3    11    1
    11     4     5    1
    12     4    23    1
    13     4    24    1
    14     5     6    1
    15     5    25    1
    16     5    26    1
    17     6     7    2
    18     6     8   am
    19     8     9   am
    20     8    27    1
    21     9    10    2
    22    11    16   ar
    23    11    12   ar
    24    12    13   ar
    25    12    28    1
    26    13    14   ar
    27    13    29    1
    28    14    15   ar
    29    14    17    1
    30    15    16   ar
    31    15    30    1
    32    16    31    1
    33    17    32    1
    34    17    33    1
