@<TRIPOS>MOLECULE
ZINC01035331
 29 30 0 0 0
SMALL
GASTEIGER

@<TRIPOS>ATOM
      1 C          -0.9770   -0.0825   -0.6309 C.ar    1  UNL1        0.1181
      2 N          -0.3441    1.0535   -0.4686 N.ar    1  UNL1       -0.2109
      3 C           0.7792    0.7032    0.2559 C.ar    1  UNL1        0.2361
      4 N           0.8494   -0.6175    0.5362 N.ar    1  UNL1       -0.1425
      5 N          -0.2911   -1.0831   -0.0165 N.ar    1  UNL1       -0.2201
      6 C1*        -0.6809   -2.4797    0.1123 C.3     1  UNL1        0.1816
      7 H1*         0.2378   -3.0787    0.1047 H       1  UNL1        0.0881
      8 C2*        -1.5469   -2.7320    1.3457 C.3     1  UNL1        0.1299
      9 H2*        -2.2397   -1.8999    1.5098 H       1  UNL1        0.0666
     10 C3*        -2.3318   -3.9648    0.9187 C.3     1  UNL1        0.1136
     11 H3*        -3.2464   -4.1003    1.5026 H       1  UNL1        0.0647
     12 C4*        -2.5525   -3.7166   -0.5764 C.3     1  UNL1        0.1126
     13 H4*        -2.4944   -4.6572   -1.1362 H       1  UNL1        0.0647
     14 O4*        -1.4830   -2.8628   -1.0363 O.3     1  UNL1       -0.3443
     15 C5*        -3.8937   -3.0401   -0.8669 C.3     1  UNL1        0.0730
     16 O5*        -4.9690   -3.8624   -0.4342 O.3     1  UNL1       -0.3924
     17 O3*        -1.5293   -5.1353    1.1233 O.3     1  UNL1       -0.3864
     18 O2*        -0.8076   -2.9203    2.5484 O.3     1  UNL1       -0.3846
     19 C           1.8078    1.6642    0.6982 C.2     1  UNL1        0.2805
     20 O           1.7822    2.8770    0.4827 O.2     1  UNL1       -0.2670
     21 N           2.8400    1.1069    1.4105 N.am    1  UNL1       -0.3227
     22 H          -1.9070   -0.2287   -1.1615 H       1  UNL1        0.1045
     23 H5*1       -3.9668   -2.0765   -0.3518 H       1  UNL1        0.0584
     24 H5*2       -4.0027   -2.8316   -1.9373 H       1  UNL1        0.0584
     25 H5*        -5.2705   -4.3845   -1.2000 H       1  UNL1        0.2095
     26 H3*        -2.0583   -5.9087    0.8582 H       1  UNL1        0.2100
     27 H2*        -1.1871   -3.6866    3.0157 H       1  UNL1        0.2101
     28 H           2.8150    0.1139    1.6134 H       1  UNL1        0.1453
     29 H           3.5612    1.7031    1.7844 H       1  UNL1        0.1453
@<TRIPOS>BOND
     1     1     5   ar
     2     1     2   ar
     3     1    22    1
     4     2     3   ar
     5     3     4   ar
     6     3    19    1
     7     4     5   ar
     8     5     6    1
     9     6     7    1
    10     6    14    1
    11     6     8    1
    12     8     9    1
    13     8    10    1
    14     8    18    1
    15    10    11    1
    16    10    12    1
    17    10    17    1
    18    12    13    1
    19    12    14    1
    20    12    15    1
    21    15    16    1
    22    15    23    1
    23    15    24    1
    24    16    25    1
    25    17    26    1
    26    18    27    1
    27    19    20    2
    28    19    21   am
    29    21    28    1
    30    21    29    1
