@<TRIPOS>MOLECULE
ZINC01846080
 27 27 0 0 0
SMALL
GASTEIGER

@<TRIPOS>ATOM
      1 C           1.0331   -2.5634    0.2580 C.3     1  UNL1       -0.0444
      2 C           0.5531   -1.4128   -0.6210 C.3     1  UNL1        0.0861
      3 H           0.9640   -0.4730   -0.2364 H       1  UNL1        0.0509
      4 C          -0.9797   -1.3250   -0.6384 C.2     1  UNL1        0.2266
      5 O          -1.6642   -1.7278   -1.5781 O.2     1  UNL1       -0.2746
      6 N          -1.5164   -0.7503    0.4828 N.am    1  UNL1       -0.3038
      7 C          -2.9502   -0.4972    0.6800 C.3     1  UNL1        0.1133
      8 C          -3.3255   -0.2485    2.1641 C.2     1  UNL1        0.3727
      9 O          -4.5482   -0.0341    2.3941 O.co2   1  UNL1       -0.2446
     10 S           1.2049   -1.6641   -2.3162 S.3     1  UNL1       -0.0701
     11 C           0.5956   -0.1718   -3.0499 C.2     1  UNL1        0.2268
     12 O           0.6262    0.8799   -2.4173 O.2     1  UNL1       -0.2792
     13 C           0.2376   -0.3167   -4.4521 C.ar    1  UNL1        0.0655
     14 C          -0.1575   -1.4313   -5.1767 C.ar    1  UNL1       -0.0433
     15 C          -0.3704   -1.1466   -6.5577 C.ar    1  UNL1       -0.0540
     16 C          -0.1477    0.1788   -6.8494 C.ar    1  UNL1       -0.0236
     17 S           0.2902    1.0758   -5.4623 S.2     1  UNL1       -0.0929
     18 H           0.9703   -2.2846    1.3155 H       1  UNL1        0.0245
     19 H           2.0797   -2.8260    0.0610 H       1  UNL1        0.0245
     20 H           0.4214   -3.4627    0.1244 H       1  UNL1        0.0245
     21 H          -0.9747   -0.5479    1.3215 H       1  UNL1        0.1493
     22 H          -3.1982    0.3967    0.0970 H       1  UNL1        0.0579
     23 H          -3.5205   -1.3414    0.2808 H       1  UNL1        0.0579
     24 H          -0.2932   -2.4123   -4.7375 H       1  UNL1        0.0630
     25 H          -0.6749   -1.8791   -7.2942 H       1  UNL1        0.0623
     26 H          -0.2320    0.6696   -7.8094 H       1  UNL1        0.0693
     27 O          -2.3378   -0.2824    2.9631 O.co2   1  UNL1       -0.2446
@<TRIPOS>BOND
     1     1    18    1
     2     1    19    1
     3     1    20    1
     4     2     4    1
     5     2    10    1
     6     4     5    2
     7     4     6   am
     8     6     7    1
     9     6    21    1
    10     7     8    1
    11     7    22    1
    12     7    23    1
    13     8     9   ar
    14     8    27   ar
    15    10    11    1
    16    11    12    2
    17    11    13    1
    18    13    17   ar
    19    13    14   ar
    20    14    15   ar
    21    14    24    1
    22    15    16   ar
    23    15    25    1
    24    16    17   ar
    25    16    26    1
    26     2     3    1
    27     2     1    1
