@<TRIPOS>MOLECULE
ZINC03830953
 51 51 0 0 0
SMALL
GASTEIGER

@<TRIPOS>ATOM
      1 C           9.3194   -5.7410    3.8993 C.3     1  UNL1       -0.0306
      2 C           8.3812   -4.9182    4.7610 C.3     1  UNL1        0.0896
      3 O           7.0262   -5.3648    4.6043 O.3     1  UNL1       -0.4649
      4 C           6.3439   -4.8412    3.5454 C.2     1  UNL1        0.3071
      5 O           6.8093   -4.0757    2.7131 O.2     1  UNL1       -0.2509
      6 C           4.9133   -5.3308    3.5913 C.3     1  UNL1        0.0449
      7 C           4.0943   -4.8429    2.3956 C.3     1  UNL1       -0.0430
      8 C           2.6489   -5.3572    2.3894 C.3     1  UNL1       -0.0526
      9 C           1.8451   -4.9105    3.6165 C.3     1  UNL1       -0.0530
     10 C           0.3966   -5.3969    3.5781 C.3     1  UNL1       -0.0531
     11 C          -0.3416   -4.9343    4.8380 C.3     1  UNL1       -0.0530
     12 C          -1.7996   -5.3855    4.8735 C.3     1  UNL1       -0.0525
     13 C          -2.5474   -4.9194    6.1412 C.3     1  UNL1       -0.0464
     14 C          -2.6986   -3.3731    6.3420 C.3     1  UNL1       -0.0177
     15 H          -1.6930   -2.9406    6.3100 H       1  UNL1        0.0346
     16 C          -3.5323   -2.8400    5.1601 C.3     1  UNL1       -0.0584
     17 C          -3.3143   -2.9309    7.6914 C.ar    1  UNL1       -0.0314
     18 C          -3.7645   -3.8930    8.6220 C.ar    1  UNL1       -0.0573
     19 C          -4.4329   -3.5381    9.8028 C.ar    1  UNL1       -0.0614
     20 C          -4.6815   -2.2065   10.0920 C.ar    1  UNL1       -0.0608
     21 C          -4.1851   -1.2258    9.2423 C.ar    1  UNL1       -0.0483
     22 C          -3.4716   -1.5782    8.0782 C.ar    1  UNL1        0.0168
     23 I          -2.5609    0.0641    7.1030 I       1  UNL1       -0.0435
     24 H           9.2060   -6.8079    4.1162 H       1  UNL1        0.0262
     25 H          10.3594   -5.4523    4.0774 H       1  UNL1        0.0262
     26 H           9.0981   -5.6055    2.8364 H       1  UNL1        0.0262
     27 H           8.6389   -5.0554    5.8167 H       1  UNL1        0.0694
     28 H           8.4713   -3.8470    4.5452 H       1  UNL1        0.0694
     29 H           4.9197   -6.4261    3.6114 H       1  UNL1        0.0377
     30 H           4.4815   -4.9572    4.5256 H       1  UNL1        0.0377
     31 H           4.0923   -3.7455    2.3715 H       1  UNL1        0.0270
     32 H           4.5820   -5.1689    1.4679 H       1  UNL1        0.0270
     33 H           2.1553   -4.9869    1.4816 H       1  UNL1        0.0265
     34 H           2.6506   -6.4517    2.3260 H       1  UNL1        0.0265
     35 H           2.3174   -5.2962    4.5287 H       1  UNL1        0.0265
     36 H           1.8657   -3.8198    3.6775 H       1  UNL1        0.0265
     37 H          -0.1057   -5.0056    2.6844 H       1  UNL1        0.0265
     38 H           0.3726   -6.4918    3.5142 H       1  UNL1        0.0265
     39 H           0.1730   -5.3253    5.7238 H       1  UNL1        0.0265
     40 H          -0.2881   -3.8387    4.8879 H       1  UNL1        0.0265
     41 H          -2.3206   -5.0566    3.9665 H       1  UNL1        0.0265
     42 H          -1.8299   -6.4840    4.8451 H       1  UNL1        0.0265
     43 H          -3.5480   -5.3707    6.1131 H       1  UNL1        0.0271
     44 H          -2.0276   -5.3589    7.0021 H       1  UNL1        0.0271
     45 H          -4.5644   -3.2027    5.2118 H       1  UNL1        0.0236
     46 H          -3.5774   -1.7525    5.1176 H       1  UNL1        0.0236
     47 H          -3.1135   -3.1430    4.1972 H       1  UNL1        0.0236
     48 H          -3.6035   -4.9549    8.4605 H       1  UNL1        0.0621
     49 H          -4.7646   -4.3132   10.4906 H       1  UNL1        0.0618
     50 H          -5.2326   -1.9303   10.9879 H       1  UNL1        0.0618
     51 H          -4.3440   -0.1823    9.5096 H       1  UNL1        0.0628
@<TRIPOS>BOND
     1     1     2    1
     2     1    24    1
     3     1    25    1
     4     1    26    1
     5     2     3    1
     6     2    27    1
     7     2    28    1
     8     3     4    1
     9     4     5    2
    10     4     6    1
    11     6     7    1
    12     6    29    1
    13     6    30    1
    14     7     8    1
    15     7    31    1
    16     7    32    1
    17     8     9    1
    18     8    33    1
    19     8    34    1
    20     9    10    1
    21     9    35    1
    22     9    36    1
    23    10    11    1
    24    10    37    1
    25    10    38    1
    26    11    12    1
    27    11    39    1
    28    11    40    1
    29    12    13    1
    30    12    41    1
    31    12    42    1
    32    13    14    1
    33    13    43    1
    34    13    44    1
    35    14    15    1
    36    14    16    1
    37    14    17    1
    38    16    45    1
    39    16    46    1
    40    16    47    1
    41    17    22   ar
    42    17    18   ar
    43    18    19   ar
    44    18    48    1
    45    19    20   ar
    46    19    49    1
    47    20    21   ar
    48    20    50    1
    49    21    22   ar
    50    21    51    1
    51    22    23    1
