@<TRIPOS>MOLECULE
ZINC01909090
 22 21 0 0 0
SMALL
GASTEIGER

@<TRIPOS>ATOM
      1 C           1.1570    5.7874   -1.2650 C.3     1  UNL1        0.0817
      2 O           0.5282    4.5318   -1.5518 O.3     1  UNL1       -0.4679
      3 C           0.9918    3.8759   -2.6443 C.2     1  UNL1        0.3072
      4 O           1.8484    4.2805   -3.4176 O.2     1  UNL1       -0.2509
      5 C           0.3061    2.5370   -2.7778 C.3     1  UNL1        0.0518
      6 C           0.8505    1.7961   -3.9942 C.3     1  UNL1        0.0212
      7 C           0.3216    0.3874   -4.1370 C.2     1  UNL1        0.1778
      8 O          -0.5115   -0.1177   -3.3869 O.2     1  UNL1       -0.2918
      9 C           0.8641   -0.4210   -5.3062 C.3     1  UNL1        0.0242
     10 N           0.2527   -1.7866   -5.3253 N.4     1  UNL1        0.2239
     11 H           1.2027    5.8969   -0.1783 H       1  UNL1        0.0661
     12 H           0.5483    6.5984   -1.6750 H       1  UNL1        0.0661
     13 H           2.1784    5.8495   -1.6541 H       1  UNL1        0.0661
     14 H           0.4932    1.9584   -1.8661 H       1  UNL1        0.0382
     15 H          -0.7726    2.6971   -2.8830 H       1  UNL1        0.0382
     16 H           0.5949    2.3437   -4.9094 H       1  UNL1        0.0349
     17 H           1.9435    1.7267   -3.9337 H       1  UNL1        0.0349
     18 H           0.5979    0.0590   -6.2507 H       1  UNL1        0.0894
     19 H           1.9436   -0.5558   -5.2145 H       1  UNL1        0.0894
     20 H          -0.7731   -1.7075   -5.2523 H       1  UNL1        0.1998
     21 H           0.4887   -2.3289   -6.1648 H       1  UNL1        0.1998
     22 H           0.5352   -2.3197   -4.4913 H       1  UNL1        0.1998
@<TRIPOS>UNITY_ATOM_ATTR
10 1
charge 1
@<TRIPOS>BOND
     1     1     2    1
     2     1    11    1
     3     1    12    1
     4     1    13    1
     5     2     3    1
     6     3     4    2
     7     3     5    1
     8     5     6    1
     9     5    14    1
    10     5    15    1
    11     6     7    1
    12     6    16    1
    13     6    17    1
    14     7     8    2
    15     7     9    1
    16     9    10    1
    17     9    18    1
    18     9    19    1
    19    10    20    1
    20    10    21    1
    21    10    22    1
