@<TRIPOS>MOLECULE
ZINC00896838
 30 31 0 0 0
SMALL
GASTEIGER

@<TRIPOS>ATOM
      1 C          -1.2157   -1.1243    0.9066 C.3     1  UNL1       -0.0621
      2 C           0.2998   -1.0018    1.0118 C.3     1  UNL1       -0.0208
      3 C           0.8014   -0.6851    2.4239 C.3     1  UNL1        0.0871
      4 H           1.8984   -0.6309    2.3999 H       1  UNL1        0.0706
      5 N           0.2635    0.5848    2.8832 N.pl3   1  UNL1       -0.3252
      6 C           0.5653    0.8961    4.2165 C.ar    1  UNL1        0.0422
      7 C           0.5183    2.2194    4.6610 C.ar    1  UNL1       -0.0198
      8 C           0.7561    2.5378    6.0071 C.ar    1  UNL1        0.0690
      9 C           1.0129    1.5152    6.9257 C.ar    1  UNL1        0.1241
     10 C           1.0133    0.1796    6.5079 C.ar    1  UNL1       -0.0200
     11 C           0.7714   -0.1167    5.1646 C.ar    1  UNL1        0.0595
     12 C           0.6893   -1.5193    4.7055 C.2     1  UNL1        0.2473
     13 O           0.8143   -2.4641    5.4733 O.2     1  UNL1       -0.2701
     14 N           0.4418   -1.6987    3.3703 N.am    1  UNL1       -0.2931
     15 S           1.3814    1.9174    8.5980 S.O2    1  UNL1        0.0574
     16 O           2.6702    2.5746    8.6348 O.2     1  UNL1       -0.1532
     17 O           0.1957    2.4522    9.2237 O.2     1  UNL1       -0.1532
     18 N           1.6412    0.4372    9.3519 N.3     1  UNL1       -0.2035
     19 CL          0.7194    4.2126    6.4284 Cl      1  UNL1       -0.0815
     20 H          -1.5902   -1.9493    1.5202 H       1  UNL1        0.0231
     21 H          -1.5039   -1.3199   -0.1311 H       1  UNL1        0.0231
     22 H          -1.7144   -0.2037    1.2241 H       1  UNL1        0.0231
     23 H           0.7508   -1.9411    0.6688 H       1  UNL1        0.0296
     24 H           0.6366   -0.2167    0.3235 H       1  UNL1        0.0296
     25 H           0.4515    1.3523    2.2426 H       1  UNL1        0.1478
     26 H           0.3016    3.0172    3.9540 H       1  UNL1        0.0651
     27 H           1.1889   -0.6370    7.2033 H       1  UNL1        0.0646
     28 H           0.4656   -2.6669    3.0823 H       1  UNL1        0.1508
     29 H           2.6340    0.3096    9.5422 H       1  UNL1        0.1442
     30 H           1.0568    0.3856   10.1925 H       1  UNL1        0.1442
@<TRIPOS>BOND
     1     1     2    1
     2     1    20    1
     3     1    21    1
     4     1    22    1
     5     2     3    1
     6     2    23    1
     7     2    24    1
     8     3     4    1
     9     3    14    1
    10     3     5    1
    11     5     6    1
    12     5    25    1
    13     6    11   ar
    14     6     7   ar
    15     7     8   ar
    16     7    26    1
    17     8     9   ar
    18     8    19    1
    19     9    10   ar
    20     9    15    1
    21    10    11   ar
    22    10    27    1
    23    11    12    1
    24    12    13    2
    25    12    14   am
    26    14    28    1
    27    15    16    2
    28    15    17    2
    29    15    18    1
    30    18    29    1
    31    18    30    1
