@<TRIPOS>MOLECULE
ZINC03830316
 31 32 0 0 0
SMALL
GASTEIGER

@<TRIPOS>ATOM
      1 C           1.5301   -1.5165    0.1576 C.3     1  UNL1        0.0143
      2 C           0.2007   -1.1876    0.8257 C.3     1  UNL1        0.0529
      3 H           0.0875   -1.7443    1.7619 H       1  UNL1        0.0525
      4 C           0.0459    0.3462    1.0416 C.3     1  UNL1        0.0555
      5 H          -0.0761    0.5781    2.1057 H       1  UNL1        0.0528
      6 C           1.2880    1.0717    0.4752 C.3     1  UNL1        0.0255
      7 H           2.0629    1.0677    1.2493 H       1  UNL1        0.0431
      8 S           1.9348   -0.0540   -0.8166 S.3     1  UNL1       -0.1536
      9 C           1.1507    2.4917   -0.0864 C.3     1  UNL1       -0.0394
     10 C           0.7320    3.5801    0.9105 C.3     1  UNL1       -0.0515
     11 C           1.6877    3.7421    2.1003 C.3     1  UNL1       -0.0428
     12 C           1.2418    4.8324    3.0725 C.3     1  UNL1        0.0492
     13 C          -0.1210    4.5926    3.7195 C.2     1  UNL1        0.3560
     14 O          -0.4627    3.3768    3.8451 O.co2   1  UNL1       -0.2464
     15 O          -0.7435    5.6383    4.0566 O.co2   1  UNL1       -0.2464
     16 N          -1.2168    0.6372    0.3907 N.am    1  UNL1       -0.2937
     17 C          -1.8051   -0.4874   -0.1450 C.2     1  UNL1        0.3002
     18 O          -2.9207   -0.5652   -0.6282 O.2     1  UNL1       -0.2528
     19 N          -0.9333   -1.5420   -0.0022 N.am    1  UNL1       -0.2940
     20 H           2.3150   -1.6515    0.9082 H       1  UNL1        0.0395
     21 H           1.4867   -2.4117   -0.4700 H       1  UNL1        0.0395
     22 H           2.1183    2.7964   -0.5094 H       1  UNL1        0.0276
     23 H           0.4374    2.5032   -0.9206 H       1  UNL1        0.0276
     24 H           0.6912    4.5357    0.3699 H       1  UNL1        0.0266
     25 H          -0.2876    3.3781    1.2510 H       1  UNL1        0.0266
     26 H           1.7762    2.7966    2.6462 H       1  UNL1        0.0270
     27 H           2.6902    3.9900    1.7318 H       1  UNL1        0.0270
     28 H           1.9705    4.8970    3.8936 H       1  UNL1        0.0379
     29 H           1.2489    5.8108    2.5715 H       1  UNL1        0.0379
     30 H          -1.7897    1.4441    0.6128 H       1  UNL1        0.1506
     31 H          -1.2376   -2.4775   -0.2419 H       1  UNL1        0.1506
@<TRIPOS>BOND
     1     1     8    1
     2     1     2    1
     3     1    20    1
     4     1    21    1
     5     2     3    1
     6     2    19    1
     7     2     4    1
     8     4     5    1
     9     4     6    1
    10     4    16    1
    11     6     8    1
    12     9    10    1
    13     9    22    1
    14     9    23    1
    15    10    11    1
    16    10    24    1
    17    10    25    1
    18    11    12    1
    19    11    26    1
    20    11    27    1
    21    12    13    1
    22    12    28    1
    23    12    29    1
    24    13    14   ar
    25    13    15   ar
    26    16    17   am
    27    16    30    1
    28    17    18    2
    29    17    19   am
    30    19    31    1
    31     6     9    1
    32     6     7    1
