@<TRIPOS>MOLECULE
ZINC00056653
 33 33 0 0 0
SMALL
GASTEIGER

@<TRIPOS>ATOM
      1 C          -3.6945   -3.3276   -3.0786 C.3     1  UNL1       -0.0219
      2 C          -2.1950   -3.5970   -3.1291 C.3     1  UNL1       -0.0283
      3 C          -1.7449   -4.1125   -4.4888 C.3     1  UNL1       -0.0219
      4 N          -1.4280   -2.3634   -2.7473 N.4     1  UNL1        0.2308
      5 C          -1.6280   -1.1187   -3.5728 C.3     1  UNL1       -0.0026
      6 C          -0.7013    0.0036   -3.0490 C.3     1  UNL1        0.1198
      7 H          -0.9202    0.1857   -1.9897 H       1  UNL1        0.0698
      8 C          -0.8920    1.2791   -3.8387 C.ar    1  UNL1       -0.0104
      9 C          -0.6595    1.3004   -5.2281 C.ar    1  UNL1       -0.0523
     10 C          -1.0086    2.4153   -5.9922 C.ar    1  UNL1       -0.0162
     11 C          -1.5663    3.5169   -5.3630 C.ar    1  UNL1        0.1582
     12 C          -1.7177    3.5457   -3.9813 C.ar    1  UNL1        0.1586
     13 C          -1.3904    2.4342   -3.2110 C.ar    1  UNL1       -0.0107
     14 O          -2.2222    4.6885   -3.4289 O.3     1  UNL1       -0.5033
     15 O          -1.9642    4.5760   -6.1235 O.3     1  UNL1       -0.5033
     16 O           0.6411   -0.4825   -3.1112 O.3     1  UNL1       -0.3819
     17 H          -4.0194   -2.6724   -3.8936 H       1  UNL1        0.0284
     18 H          -3.9839   -2.8626   -2.1303 H       1  UNL1        0.0284
     19 H          -4.2526   -4.2651   -3.1757 H       1  UNL1        0.0284
     20 H          -1.9375   -4.3366   -2.3629 H       1  UNL1        0.0845
     21 H          -2.0695   -3.4572   -5.3040 H       1  UNL1        0.0284
     22 H          -0.6557   -4.2081   -4.5376 H       1  UNL1        0.0284
     23 H          -2.1755   -5.1018   -4.6781 H       1  UNL1        0.0284
     24 H          -1.6200   -2.1476   -1.7611 H       1  UNL1        0.2017
     25 H          -1.3642   -1.3910   -4.5982 H       1  UNL1        0.0843
     26 H          -2.6828   -0.8299   -3.5099 H       1  UNL1        0.0843
     27 H          -0.2307    0.4412   -5.7416 H       1  UNL1        0.0622
     28 H          -0.8649    2.4213   -7.0730 H       1  UNL1        0.0655
     29 H          -1.5586    2.4576   -2.1367 H       1  UNL1        0.0659
     30 H          -1.9645    4.7316   -2.4921 H       1  UNL1        0.2923
     31 H          -2.3747    5.2048   -5.4977 H       1  UNL1        0.2923
     32 H           1.2178    0.2628   -3.3757 H       1  UNL1        0.2105
     33 H          -0.4103   -2.5589   -2.7721 H       1  UNL1        0.2017
@<TRIPOS>UNITY_ATOM_ATTR
4 1
charge 1
@<TRIPOS>BOND
     1     1     2    1
     2     1    17    1
     3     1    18    1
     4     1    19    1
     5     2     3    1
     6     2     4    1
     7     2    20    1
     8     3    21    1
     9     3    22    1
    10     3    23    1
    11     4     5    1
    12     4    24    1
    13     4    33    1
    14     5    25    1
    15     5    26    1
    16     6     8    1
    17     6    16    1
    18     8    13   ar
    19     8     9   ar
    20     9    10   ar
    21     9    27    1
    22    10    11   ar
    23    10    28    1
    24    11    12   ar
    25    11    15    1
    26    12    13   ar
    27    12    14    1
    28    13    29    1
    29    14    30    1
    30    15    31    1
    31    16    32    1
    32     6     7    1
    33     6     5    1
