@<TRIPOS>MOLECULE
ZINC01552174
 54 57 0 0 0
SMALL
GASTEIGER

@<TRIPOS>ATOM
      1 C          -4.2424   -1.8662   -2.1578 C.ar    1  UNL1       -0.0182
      2 C          -3.7049   -2.6257   -3.1992 C.ar    1  UNL1       -0.0368
      3 C          -2.4855   -3.2689   -3.0248 C.ar    1  UNL1        0.0368
      4 C          -1.8050   -3.1849   -1.8058 C.ar    1  UNL1       -0.0223
      5 C          -2.3137   -2.3503   -0.7960 C.ar    1  UNL1       -0.0150
      6 C          -3.5329   -1.6808   -0.9679 C.ar    1  UNL1        0.1209
      7 O          -3.9152   -0.8615    0.0648 O.3     1  UNL1       -0.4920
      8 C          -5.1680   -0.1922   -0.0981 C.3     1  UNL1        0.0896
      9 C          -5.4187    0.8021    1.0378 C.3     1  UNL1       -0.0182
     10 C          -4.4142    1.9589    1.1378 C.3     1  UNL1       -0.0430
     11 C          -4.3859    2.8415   -0.1121 C.3     1  UNL1        0.0090
     12 C          -3.5178    4.0439    0.0277 C.ar    1  UNL1        0.1516
     13 N          -2.9043    4.4857    1.1077 N.ar    1  UNL1       -0.1134
     14 N          -2.2494    5.6336    0.7383 N.ar    1  UNL1       -0.0230
     15 N          -2.4551    5.9079   -0.5406 N.ar    1  UNL1       -0.0436
     16 N          -3.2419    4.9172   -0.9931 N.ar    1  UNL1       -0.2262
     17 C          -3.7075    4.9012   -2.3698 C.3     1  UNL1        0.0563
     18 C          -4.6880    6.0510   -2.6405 C.3     1  UNL1       -0.0304
     19 C          -5.1693    6.0487   -4.0889 C.3     1  UNL1       -0.0511
     20 C          -3.9986    6.0655   -5.0667 C.3     1  UNL1       -0.0529
     21 C          -3.0447    4.9015   -4.8146 C.3     1  UNL1       -0.0511
     22 C          -2.5432    4.8889   -3.3728 C.3     1  UNL1       -0.0304
     23 C          -0.5013   -3.9248   -1.6478 C.3     1  UNL1       -0.0175
     24 C          -0.4866   -5.1714   -2.5248 C.3     1  UNL1        0.0283
     25 C          -0.8616   -4.8356   -3.9489 C.2     1  UNL1        0.2175
     26 O          -0.3399   -5.3712   -4.9226 O.2     1  UNL1       -0.2755
     27 N          -1.9261   -3.9839   -4.0873 N.am    1  UNL1       -0.2852
     28 H          -5.2223   -1.4283   -2.3167 H       1  UNL1        0.0655
     29 H          -4.2592   -2.7272   -4.1275 H       1  UNL1        0.0637
     30 H          -1.7588   -2.2201    0.1312 H       1  UNL1        0.0657
     31 H          -5.1998    0.3465   -1.0513 H       1  UNL1        0.0696
     32 H          -5.9717   -0.9385   -0.0831 H       1  UNL1        0.0696
     33 H          -6.4257    1.2199    0.9128 H       1  UNL1        0.0298
     34 H          -5.4093    0.2630    1.9922 H       1  UNL1        0.0298
     35 H          -4.6953    2.5704    2.0058 H       1  UNL1        0.0270
     36 H          -3.4115    1.5675    1.3456 H       1  UNL1        0.0270
     37 H          -4.0239    2.2526   -0.9617 H       1  UNL1        0.0344
     38 H          -5.4049    3.1739   -0.3467 H       1  UNL1        0.0344
     39 H          -4.2582    3.9624   -2.5028 H       1  UNL1        0.0546
     40 H          -5.5532    5.9690   -1.9705 H       1  UNL1        0.0286
     41 H          -4.2149    7.0164   -2.4203 H       1  UNL1        0.0286
     42 H          -5.8111    6.9192   -4.2650 H       1  UNL1        0.0266
     43 H          -5.7831    5.1572   -4.2687 H       1  UNL1        0.0266
     44 H          -3.4535    7.0124   -4.9684 H       1  UNL1        0.0265
     45 H          -4.3758    6.0182   -6.0943 H       1  UNL1        0.0265
     46 H          -2.1932    4.9665   -5.5018 H       1  UNL1        0.0266
     47 H          -3.5578    3.9561   -5.0316 H       1  UNL1        0.0266
     48 H          -1.8902    5.7569   -3.2150 H       1  UNL1        0.0286
     49 H          -1.9222    3.9985   -3.2122 H       1  UNL1        0.0286
     50 H          -0.3589   -4.2254   -0.6034 H       1  UNL1        0.0318
     51 H           0.3232   -3.2579   -1.9267 H       1  UNL1        0.0318
     52 H          -1.2173   -5.9075   -2.1645 H       1  UNL1        0.0362
     53 H           0.5016   -5.6413   -2.5097 H       1  UNL1        0.0362
     54 H          -2.2849   -3.8695   -5.0265 H       1  UNL1        0.1548
@<TRIPOS>BOND
     1     1     6   ar
     2     1     2   ar
     3     1    28    1
     4     2     3   ar
     5     2    29    1
     6     3    27    1
     7     3     4   ar
     8     4     5   ar
     9     4    23    1
    10     5     6   ar
    11     5    30    1
    12     6     7    1
    13     7     8    1
    14     8     9    1
    15     8    31    1
    16     8    32    1
    17     9    10    1
    18     9    33    1
    19     9    34    1
    20    10    11    1
    21    10    35    1
    22    10    36    1
    23    11    12    1
    24    11    37    1
    25    11    38    1
    26    12    16   ar
    27    12    13   ar
    28    13    14   ar
    29    14    15   ar
    30    15    16   ar
    31    16    17    1
    32    17    22    1
    33    17    18    1
    34    17    39    1
    35    18    19    1
    36    18    40    1
    37    18    41    1
    38    19    20    1
    39    19    42    1
    40    19    43    1
    41    20    21    1
    42    20    44    1
    43    20    45    1
    44    21    22    1
    45    21    46    1
    46    21    47    1
    47    22    48    1
    48    22    49    1
    49    23    24    1
    50    23    50    1
    51    23    51    1
    52    24    25    1
    53    24    52    1
    54    24    53    1
    55    25    26    2
    56    25    27   am
    57    27    54    1
