@<TRIPOS>MOLECULE
ZINC00538483
 49 52 0 0 0
SMALL
GASTEIGER

@<TRIPOS>ATOM
      1 C           5.3501   -2.4519    7.4997 C.ar    1  UNL1       -0.0569
      2 C           6.5066   -1.5796    7.3993 C.ar    1  UNL1       -0.0449
      3 C           6.6210   -0.7304    6.3696 C.ar    1  UNL1        0.0161
      4 N           5.6354   -0.7058    5.4237 N.ar    1  UNL1       -0.2508
      5 C           4.5292   -1.4966    5.4365 C.ar    1  UNL1        0.1617
      6 C           4.3772   -2.4296    6.5722 C.ar    1  UNL1       -0.0170
      7 N           3.7362   -1.3547    4.4157 N.ar    1  UNL1       -0.1488
      8 N           4.3428   -0.3640    3.6708 N.ar    1  UNL1       -0.2121
      9 C           5.5589    0.0314    4.2622 C.ar    1  UNL1        0.3510
     10 O           6.3759    0.8066    3.7929 O.2     1  UNL1       -0.2444
     11 C           3.8158    0.0933    2.4090 C.3     1  UNL1        0.0516
     12 C           4.3493   -0.7159    1.2243 C.3     1  UNL1        0.0072
     13 C           3.9869   -2.2001    1.2960 C.3     1  UNL1       -0.0301
     14 N           4.5014   -2.9707    0.0758 N.4     1  UNL1        0.2375
     15 C           6.0164   -2.8313   -0.1274 C.3     1  UNL1       -0.0158
     16 C           6.5209   -3.6938   -1.2997 C.3     1  UNL1        0.0525
     17 N           6.1031   -5.0927   -1.1613 N.pl3   1  UNL1       -0.3197
     18 C           4.6525   -5.2938   -1.0050 C.3     1  UNL1        0.0525
     19 C           4.1016   -4.4580    0.1769 C.3     1  UNL1       -0.0158
     20 C           6.9895   -6.0773   -0.7417 C.ar    1  UNL1        0.0314
     21 C           6.7836   -7.4255   -1.0859 C.ar    1  UNL1       -0.0406
     22 C           7.6667   -8.4388   -0.6872 C.ar    1  UNL1       -0.0586
     23 C           8.7786   -8.1285    0.0869 C.ar    1  UNL1       -0.0433
     24 C           9.0114   -6.8037    0.4289 C.ar    1  UNL1        0.0427
     25 C           8.1427   -5.7910    0.0045 C.ar    1  UNL1       -0.0223
     26 CL         10.3666   -6.3958    1.4089 Cl      1  UNL1       -0.0835
     27 H           5.2946   -3.1263    8.3471 H       1  UNL1        0.0619
     28 H           7.2641   -1.6314    8.1790 H       1  UNL1        0.0632
     29 H           7.4592   -0.0519    6.2423 H       1  UNL1        0.0815
     30 H           3.4977   -3.0594    6.6143 H       1  UNL1        0.0655
     31 H           2.7225    0.0642    2.4538 H       1  UNL1        0.0512
     32 H           4.1195    1.1391    2.2816 H       1  UNL1        0.0512
     33 H           3.9570   -0.2845    0.2959 H       1  UNL1        0.0335
     34 H           5.4373   -0.5941    1.2071 H       1  UNL1        0.0335
     35 H           4.4207   -2.6873    2.1737 H       1  UNL1        0.0815
     36 H           2.8983   -2.3313    1.3055 H       1  UNL1        0.0815
     37 H           6.4902   -3.1084    0.8194 H       1  UNL1        0.0830
     38 H           6.2152   -1.7824   -0.3603 H       1  UNL1        0.0830
     39 H           7.6061   -3.5862   -1.4071 H       1  UNL1        0.0516
     40 H           6.0946   -3.3071   -2.2338 H       1  UNL1        0.0516
     41 H           4.1599   -4.9776   -1.9322 H       1  UNL1        0.0516
     42 H           4.3796   -6.3429   -0.8469 H       1  UNL1        0.0516
     43 H           3.0071   -4.4900    0.1866 H       1  UNL1        0.0830
     44 H           4.4927   -4.8268    1.1310 H       1  UNL1        0.0830
     45 H           5.9458   -7.7119   -1.7187 H       1  UNL1        0.0636
     46 H           7.4878   -9.4688   -0.9892 H       1  UNL1        0.0619
     47 H           9.4557   -8.9144    0.4116 H       1  UNL1        0.0632
     48 H           8.3862   -4.7753    0.2953 H       1  UNL1        0.0651
     49 H           4.0422   -2.5944   -0.7634 H       1  UNL1        0.2034
@<TRIPOS>UNITY_ATOM_ATTR
14 1
charge 1
@<TRIPOS>BOND
     1     1     6   ar
     2     1     2   ar
     3     1    27    1
     4     2     3   ar
     5     2    28    1
     6     3     4   ar
     7     3    29    1
     8     4     9   ar
     9     4     5   ar
    10     5     6   ar
    11     5     7   ar
    12     6    30    1
    13     7     8   ar
    14     8     9   ar
    15     8    11    1
    16     9    10    2
    17    11    12    1
    18    11    31    1
    19    11    32    1
    20    12    13    1
    21    12    33    1
    22    12    34    1
    23    13    14    1
    24    13    35    1
    25    13    36    1
    26    14    19    1
    27    14    15    1
    28    14    49    1
    29    15    16    1
    30    15    37    1
    31    15    38    1
    32    16    17    1
    33    16    39    1
    34    16    40    1
    35    17    18    1
    36    17    20    1
    37    18    19    1
    38    18    41    1
    39    18    42    1
    40    19    43    1
    41    19    44    1
    42    20    25   ar
    43    20    21   ar
    44    21    22   ar
    45    21    45    1
    46    22    23   ar
    47    22    46    1
    48    23    24   ar
    49    23    47    1
    50    24    25   ar
    51    24    26    1
    52    25    48    1
