@<TRIPOS>MOLECULE
ZINC02032320
 57 59 0 0 0
SMALL
GASTEIGER

@<TRIPOS>ATOM
      1 C          -2.1868    1.5484   -0.9874 C.3     1  UNL1       -0.0244
      2 C          -0.8502    0.9233   -0.8572 C.ar    1  UNL1        0.0140
      3 C          -0.4610   -0.3996   -0.8639 C.ar    1  UNL1       -0.0302
      4 C           0.9178   -0.4738   -0.5059 C.ar    1  UNL1        0.0415
      5 C           1.3782    0.8536   -0.5355 C.ar    1  UNL1        0.0502
      6 N           0.2818    1.6741   -0.6959 N.ar    1  UNL1       -0.3580
      7 H           0.3210    2.6851   -0.6726 H       1  UNL1        0.1656
      8 C           2.7206    1.2139   -0.3947 C.ar    1  UNL1       -0.0376
      9 C           3.6380    0.1881   -0.1928 C.ar    1  UNL1       -0.0563
     10 C           3.2104   -1.1286   -0.0591 C.ar    1  UNL1       -0.0192
     11 C           1.8527   -1.4872   -0.1720 C.ar    1  UNL1        0.1298
     12 O           1.6322   -2.8194    0.1557 O.3     1  UNL1       -0.4874
     13 C           0.3525   -3.4341    0.0519 C.3     1  UNL1        0.1315
     14 C          -0.4284   -3.4700    1.3968 C.3     1  UNL1        0.1762
     15 H          -0.6477   -2.4389    1.7001 H       1  UNL1        0.0823
     16 C          -1.7773   -4.2257    1.2035 C.3     1  UNL1        0.0081
     17 C          -3.8291   -5.2629    2.4547 C.3     1  UNL1       -0.0203
     18 C          -3.4102   -6.7176    2.2193 C.3     1  UNL1       -0.0193
     19 C          -4.5157   -5.1523    3.8273 C.3     1  UNL1       -0.0193
     20 C          -4.8041   -4.7927    1.3703 C.3     1  UNL1       -0.0193
     21 O           0.3989   -3.9972    2.4746 O.3     1  UNL1       -0.4490
     22 C           0.8303   -5.2814    2.3794 C.2     1  UNL1        0.3397
     23 O           0.2765   -6.1256    1.6958 O.2     1  UNL1       -0.2449
     24 C           2.0450   -5.5429    3.2058 C.ar    1  UNL1        0.0590
     25 C           2.6695   -6.7869    3.0612 C.ar    1  UNL1       -0.0478
     26 C           3.8271   -7.0908    3.7863 C.ar    1  UNL1       -0.0610
     27 C           4.3566   -6.1472    4.6665 C.ar    1  UNL1       -0.0617
     28 C           3.7431   -4.9116    4.8212 C.ar    1  UNL1       -0.0610
     29 C           2.5892   -4.5972    4.0819 C.ar    1  UNL1       -0.0478
     30 H          -2.3349    2.2884   -0.1933 H       1  UNL1        0.0292
     31 H          -2.3006    2.0445   -1.9548 H       1  UNL1        0.0292
     32 H          -2.9742    0.7944   -0.8869 H       1  UNL1        0.0292
     33 H          -1.1344   -1.2128   -1.0800 H       1  UNL1        0.0642
     34 H           3.0446    2.2481   -0.4505 H       1  UNL1        0.0638
     35 H           4.6998    0.4274   -0.1163 H       1  UNL1        0.0619
     36 H           3.9529   -1.8989    0.1454 H       1  UNL1        0.0654
     37 H          -0.2419   -3.0296   -0.7668 H       1  UNL1        0.0736
     38 H           0.5689   -4.4653   -0.2486 H       1  UNL1        0.0736
     39 H          -2.4051   -3.6790    0.4942 H       1  UNL1        0.0852
     40 H          -1.6223   -5.2326    0.8185 H       1  UNL1        0.0852
     41 H          -2.7008   -7.0587    2.9806 H       1  UNL1        0.0287
     42 H          -4.2829   -7.3815    2.2609 H       1  UNL1        0.0287
     43 H          -2.9565   -6.8631    1.2349 H       1  UNL1        0.0287
     44 H          -4.9319   -4.1521    3.9927 H       1  UNL1        0.0287
     45 H          -5.3487   -5.8638    3.9035 H       1  UNL1        0.0287
     46 H          -3.8237   -5.3715    4.6472 H       1  UNL1        0.0287
     47 H          -5.1381   -3.7647    1.5434 H       1  UNL1        0.0287
     48 H          -4.3650   -4.8476    0.3693 H       1  UNL1        0.0287
     49 H          -5.6988   -5.4292    1.3561 H       1  UNL1        0.0287
     50 H           2.2703   -7.5360    2.3780 H       1  UNL1        0.0626
     51 H           4.3117   -8.0552    3.6624 H       1  UNL1        0.0618
     52 H           5.2612   -6.3826    5.2289 H       1  UNL1        0.0618
     53 H           4.1647   -4.1737    5.4971 H       1  UNL1        0.0618
     54 H           2.1343   -3.6190    4.2104 H       1  UNL1        0.0626
     55 N          -2.5868   -4.3629    2.4833 N.4     1  UNL1        0.2334
     56 H          -1.9509   -4.7258    3.2096 H       1  UNL1        0.2020
     57 H          -2.8625   -3.4253    2.8062 H       1  UNL1        0.2020
@<TRIPOS>UNITY_ATOM_ATTR
55 1
charge 1
@<TRIPOS>BOND
     1     1     2    1
     2     1    30    1
     3     1    31    1
     4     1    32    1
     5     2     6   ar
     6     2     3   ar
     7     3     4   ar
     8     3    33    1
     9     4    11   ar
    10     4     5   ar
    11     5     6   ar
    12     5     8   ar
    13     6     7    1
    14     8     9   ar
    15     8    34    1
    16     9    10   ar
    17     9    35    1
    18    10    11   ar
    19    10    36    1
    20    11    12    1
    21    12    13    1
    22    13    14    1
    23    13    37    1
    24    13    38    1
    25    14    15    1
    26    14    16    1
    27    14    21    1
    28    16    39    1
    29    16    40    1
    30    16    55    1
    31    17    18    1
    32    17    19    1
    33    17    20    1
    34    17    55    1
    35    18    41    1
    36    18    42    1
    37    18    43    1
    38    19    44    1
    39    19    45    1
    40    19    46    1
    41    20    47    1
    42    20    48    1
    43    20    49    1
    44    21    22    1
    45    22    23    2
    46    22    24    1
    47    24    29   ar
    48    24    25   ar
    49    25    26   ar
    50    25    50    1
    51    26    27   ar
    52    26    51    1
    53    27    28   ar
    54    27    52    1
    55    28    29   ar
    56    28    53    1
    57    29    54    1
    58    55    56    1
    59    55    57    1
