@<TRIPOS>MOLECULE
ZINC00119717
 31 33 0 0 0
SMALL
GASTEIGER

@<TRIPOS>ATOM
      1 C           2.4588   -0.7240   -0.0497 C.ar    1  UNL1       -0.0612
      2 C           2.4867    0.6647   -0.0526 C.ar    1  UNL1       -0.0612
      3 C           1.2892    1.3883   -0.0640 C.ar    1  UNL1       -0.0538
      4 C           0.0303    0.7470   -0.0617 C.ar    1  UNL1       -0.0142
      5 C           0.0268   -0.6748   -0.0449 C.ar    1  UNL1       -0.0176
      6 C           1.2371   -1.3854   -0.0484 C.ar    1  UNL1       -0.0540
      7 C          -1.1842   -1.3766   -0.0086 C.ar    1  UNL1       -0.0540
      8 C          -2.3983   -0.7008    0.0276 C.ar    1  UNL1       -0.0609
      9 C          -2.4210    0.6893    0.0029 C.ar    1  UNL1       -0.0574
     10 C          -1.2241    1.4291   -0.0515 C.ar    1  UNL1       -0.0283
     11 C          -1.3397    2.9405   -0.1205 C.3     1  UNL1        0.0720
     12 C          -1.3872    3.5127   -1.4910 C.2     1  UNL1        0.2428
     13 N          -2.0093    4.6487   -1.7604 N.2     1  UNL1       -0.2754
     14 C          -1.9518    4.9136   -3.2078 C.3     1  UNL1        0.1197
     15 C          -0.8972    3.9035   -3.6864 C.3     1  UNL1        0.1149
     16 N          -0.8028    2.9775   -2.5476 N.pl3   1  UNL1       -0.2367
     17 H           3.3870   -1.2906   -0.0318 H       1  UNL1        0.0618
     18 H           3.4430    1.1828   -0.0260 H       1  UNL1        0.0618
     19 H           1.3765    2.4716   -0.0418 H       1  UNL1        0.0624
     20 H           1.2364   -2.4775   -0.0319 H       1  UNL1        0.0624
     21 H          -1.1918   -2.4655    0.0173 H       1  UNL1        0.0624
     22 H          -3.3269   -1.2641    0.0863 H       1  UNL1        0.0618
     23 H          -3.3871    1.1881    0.0495 H       1  UNL1        0.0621
     24 H          -2.2471    3.2450    0.4184 H       1  UNL1        0.0434
     25 H          -0.5237    3.4129    0.4335 H       1  UNL1        0.0434
     26 H          -1.6688    5.9510   -3.4018 H       1  UNL1        0.0782
     27 H          -2.9350    4.7018   -3.6392 H       1  UNL1        0.0782
     28 H          -1.1866    3.3817   -4.6010 H       1  UNL1        0.0764
     29 H           0.0773    4.3851   -3.8157 H       1  UNL1        0.0764
     30 H          -0.3213    2.0842   -2.4864 H       1  UNL1        0.2910
     31 H          -2.4864    5.1821   -1.0411 H       1  UNL1        0.3036
@<TRIPOS>BOND
     1     1     6   ar
     2     1     2   ar
     3     1    17    1
     4     2     3   ar
     5     2    18    1
     6     3     4   ar
     7     3    19    1
     8     4    10   ar
     9     4     5   ar
    10     5     6   ar
    11     5     7   ar
    12     6    20    1
    13     7     8   ar
    14     7    21    1
    15     8     9   ar
    16     8    22    1
    17     9    10   ar
    18     9    23    1
    19    10    11    1
    20    11    12    1
    21    11    24    1
    22    11    25    1
    23    12    16    1
    24    12    13    2
    25    13    14    1
    26    13    31    1
    27    14    15    1
    28    14    26    1
    29    14    27    1
    30    15    16    1
    31    15    28    1
    32    15    29    1
    33    16    30    1
