@<TRIPOS>MOLECULE
ZINC03831282
 41 43 0 0 0
SMALL
GASTEIGER

@<TRIPOS>ATOM
      1 C           2.8148    0.7393   -0.2477 C.3     1  UNL1       -0.0484
      2 C           1.7283    0.4453    0.7951 C.3     1  UNL1        0.0419
      3 CA          0.4318    1.2399    0.5360 C.3     1  UNL1        0.1423
      4 HA          0.3790    1.4939   -0.5334 H       1  UNL1        0.0632
      5 N          -0.7063    0.3406    0.8101 N.am    1  UNL1       -0.2707
      6 C          -0.4575   -1.0887    1.0180 C.3     1  UNL1        0.1005
      7 H          -0.6594   -1.3583    2.0621 H       1  UNL1        0.0640
      8 S           1.2651   -1.3411    0.5380 S.3     1  UNL1       -0.1273
      9 CA         -1.6530   -1.3903    0.0852 C.3     1  UNL1        0.1278
     10 HA         -2.5440   -1.7071    0.6480 H       1  UNL1        0.0622
     11 C          -1.6669    0.1415   -0.1405 C.2     1  UNL1        0.2402
     12 O          -2.1710    0.8413   -0.9841 O.2     1  UNL1       -0.2734
     13 N          -1.6475   -2.1142   -1.2246 N.am    1  UNL1       -0.2989
     14 C          -0.8967   -3.1978   -1.6172 C.2     1  UNL1        0.2513
     15 O          -0.0508   -3.7470   -0.9210 O.2     1  UNL1       -0.2721
     16 C          -1.2572   -3.7131   -3.0201 C.3     1  UNL1        0.1652
     17 O          -1.8914   -4.9828   -2.8804 O.3     1  UNL1       -0.4828
     18 C          -2.0578   -5.6962   -4.0361 C.ar    1  UNL1        0.1212
     19 C          -2.0665   -7.0877   -3.8879 C.ar    1  UNL1       -0.0199
     20 C          -2.2547   -7.9221   -4.9936 C.ar    1  UNL1       -0.0583
     21 C          -2.4374   -7.3647   -6.2569 C.ar    1  UNL1       -0.0615
     22 C          -2.4573   -5.9792   -6.4077 C.ar    1  UNL1       -0.0583
     23 C          -2.2728   -5.1442   -5.2991 C.ar    1  UNL1       -0.0199
     24 C           0.3955    2.6048    1.2761 C.2     1  UNL1        0.3774
     25 O           1.3150    3.4107    0.9453 O.co2   1  UNL1       -0.2442
     26 OXT        -0.5211    2.7596    2.1336 O.co2   1  UNL1       -0.2442
     27 C           2.3053    0.6072    2.2111 C.3     1  UNL1       -0.0484
     28 H           2.9494    1.8150   -0.3925 H       1  UNL1        0.0244
     29 H           3.7850    0.3282    0.0579 H       1  UNL1        0.0244
     30 H           2.5701    0.3131   -1.2284 H       1  UNL1        0.0244
     31 H          -2.3713   -1.8066   -1.8670 H       1  UNL1        0.1496
     32 H          -1.9369   -3.0080   -3.5122 H       1  UNL1        0.0795
     33 H          -0.3329   -3.7891   -3.6053 H       1  UNL1        0.0795
     34 H          -1.9206   -7.5227   -2.9023 H       1  UNL1        0.0654
     35 H          -2.2309   -8.9990   -4.8678 H       1  UNL1        0.0619
     36 H          -2.5744   -8.0102   -7.1210 H       1  UNL1        0.0618
     37 H          -2.6211   -5.5443   -7.3907 H       1  UNL1        0.0619
     38 H          -2.3161   -4.0719   -5.4513 H       1  UNL1        0.0654
     39 H           3.1250   -0.0978    2.4004 H       1  UNL1        0.0244
     40 H           2.7334    1.6085    2.3473 H       1  UNL1        0.0244
     41 H           1.5501    0.4640    2.9914 H       1  UNL1        0.0244
@<TRIPOS>BOND
     1     1     2    1
     2     1    28    1
     3     1    29    1
     4     1    30    1
     5     2     8    1
     6     2     3    1
     7     2    27    1
     8     3     4    1
     9     3     5    1
    10     3    24    1
    11     5    11   am
    12     5     6    1
    13     6     7    1
    14     6     8    1
    15     6     9    1
    16     9    10    1
    17     9    11    1
    18     9    13    1
    19    11    12    2
    20    13    14   am
    21    13    31    1
    22    14    15    2
    23    14    16    1
    24    16    17    1
    25    16    32    1
    26    16    33    1
    27    17    18    1
    28    18    23   ar
    29    18    19   ar
    30    19    20   ar
    31    19    34    1
    32    20    21   ar
    33    20    35    1
    34    21    22   ar
    35    21    36    1
    36    22    23   ar
    37    22    37    1
    38    23    38    1
    39    24    25   ar
    40    24    26   ar
    41    27    39    1
    42    27    40    1
    43    27    41    1
