@<TRIPOS>MOLECULE
ZINC03830945
 60 60 0 0 0
SMALL
GASTEIGER

@<TRIPOS>ATOM
      1 C           5.6557   -3.4724    3.5307 C.3     1  UNL1        0.0127
      2 C           7.1243   -3.7623    3.2882 C.2     1  UNL1        0.2168
      3 O           7.6557   -3.2735    2.2857 O.2     1  UNL1       -0.2756
      4 N           7.8088   -4.6235    4.1608 N.am    1  UNL1       -0.2671
      5 C           9.2067   -4.9873    3.8120 C.3     1  UNL1        0.0480
      6 C          10.3251   -4.4584    4.7382 C.3     1  UNL1        0.0943
      7 H          10.2343   -3.3763    4.8635 H       1  UNL1        0.0632
      8 C          10.4102   -5.1575    6.0960 C.3     1  UNL1        0.0716
      9 O          10.5213   -6.5666    5.9344 O.3     1  UNL1       -0.3924
     10 O          11.5983   -4.6812    4.0776 O.3     1  UNL1       -0.3880
     11 C           7.2618   -5.0521    5.4233 C.ar    1  UNL1        0.0641
     12 C           6.9285   -4.0816    6.4133 C.ar    1  UNL1        0.0489
     13 C           6.2434   -4.4321    7.6005 C.ar    1  UNL1        0.0654
     14 C           6.2195   -5.8005    7.9631 C.ar    1  UNL1        0.0397
     15 C           6.6163   -6.8021    7.0456 C.ar    1  UNL1        0.0654
     16 C           7.0313   -6.4180    5.7373 C.ar    1  UNL1        0.0489
     17 I           7.0252   -7.8821    4.1570 I       1  UNL1       -0.0411
     18 C           6.7447   -8.2523    7.4553 C.2     1  UNL1        0.2462
     19 O           7.8004   -8.8467    7.2715 O.2     1  UNL1       -0.2701
     20 N           5.6581   -8.8458    8.0734 N.am    1  UNL1       -0.3088
     21 C           5.5917  -10.2490    8.4540 C.3     1  UNL1        0.0401
     22 C           6.7518  -10.8690    9.2484 C.3     1  UNL1        0.0936
     23 H           7.6882  -10.8433    8.6817 H       1  UNL1        0.0632
     24 C           6.9723  -10.2528   10.6380 C.3     1  UNL1        0.0716
     25 O           7.9885  -10.9883   11.3358 O.3     1  UNL1       -0.3924
     26 O           6.4568  -12.2682    9.4605 O.3     1  UNL1       -0.3880
     27 I           5.9134   -6.2666   10.0478 I       1  UNL1       -0.0422
     28 C           5.4825   -3.3661    8.3456 C.2     1  UNL1        0.2462
     29 O           5.8756   -2.2001    8.3789 O.2     1  UNL1       -0.2701
     30 N           4.2707   -3.6698    8.9341 N.am    1  UNL1       -0.3088
     31 C           3.6257   -2.6441    9.7482 C.3     1  UNL1        0.0401
     32 C           2.1246   -2.8544    9.9364 C.3     1  UNL1        0.0936
     33 H           1.6071   -2.8890    8.9711 H       1  UNL1        0.0632
     34 C           1.5599   -1.7079   10.7953 C.3     1  UNL1        0.0716
     35 O           0.1613   -1.8757   11.0050 O.3     1  UNL1       -0.3924
     36 O           1.9239   -4.1285   10.5673 O.3     1  UNL1       -0.3880
     37 I           7.8722   -2.0732    6.2209 I       1  UNL1       -0.0411
     38 H           5.4569   -2.4330    3.2479 H       1  UNL1        0.0323
     39 H           5.3276   -3.5858    4.5610 H       1  UNL1        0.0323
     40 H           5.0576   -4.1373    2.9051 H       1  UNL1        0.0323
     41 H           9.2967   -6.0672    3.6796 H       1  UNL1        0.0495
     42 H           9.4289   -4.5940    2.8110 H       1  UNL1        0.0495
     43 H          11.2913   -4.8238    6.6539 H       1  UNL1        0.0583
     44 H           9.5445   -4.9643    6.7270 H       1  UNL1        0.0583
     45 H          11.2185   -6.7139    5.2659 H       1  UNL1        0.2095
     46 H          12.2243   -4.0240    4.4460 H       1  UNL1        0.2099
     47 H           4.7763   -8.3405    8.0490 H       1  UNL1        0.1491
     48 H           4.6653  -10.3662    9.0313 H       1  UNL1        0.0488
     49 H           5.4410  -10.8268    7.5333 H       1  UNL1        0.0488
     50 H           7.3075   -9.2179   10.5638 H       1  UNL1        0.0583
     51 H           6.0602  -10.2935   11.2441 H       1  UNL1        0.0583
     52 H           7.5326  -11.6098   11.9326 H       1  UNL1        0.2095
     53 H           7.2648  -12.6366    9.8613 H       1  UNL1        0.2099
     54 H           4.0446   -4.6293    9.1673 H       1  UNL1        0.1491
     55 H           4.1340   -2.6649   10.7204 H       1  UNL1        0.0488
     56 H           3.7968   -1.6592    9.2984 H       1  UNL1        0.0488
     57 H           2.0277   -1.7096   11.7857 H       1  UNL1        0.0583
     58 H           1.7348   -0.7304   10.3323 H       1  UNL1        0.0583
     59 H          -0.2966   -1.5459   10.2106 H       1  UNL1        0.2095
     60 H           1.4918   -3.9590   11.4262 H       1  UNL1        0.2099
@<TRIPOS>BOND
     1     1     2    1
     2     1    38    1
     3     1    39    1
     4     1    40    1
     5     2     3    2
     6     2     4   am
     7     4     5    1
     8     4    11    1
     9     5     6    1
    10     5    41    1
    11     5    42    1
    12     6     7    1
    13     6     8    1
    14     6    10    1
    15     8     9    1
    16     8    43    1
    17     8    44    1
    18     9    45    1
    19    10    46    1
    20    11    16   ar
    21    11    12   ar
    22    12    13   ar
    23    12    37    1
    24    13    14   ar
    25    13    28    1
    26    14    15   ar
    27    14    27    1
    28    15    16   ar
    29    15    18    1
    30    16    17    1
    31    18    19    2
    32    18    20   am
    33    20    21    1
    34    20    47    1
    35    21    22    1
    36    21    48    1
    37    21    49    1
    38    22    23    1
    39    22    24    1
    40    22    26    1
    41    24    25    1
    42    24    50    1
    43    24    51    1
    44    25    52    1
    45    26    53    1
    46    28    29    2
    47    28    30   am
    48    30    31    1
    49    30    54    1
    50    31    55    1
    51    31    56    1
    52    32    34    1
    53    32    36    1
    54    34    35    1
    55    34    57    1
    56    34    58    1
    57    35    59    1
    58    36    60    1
    59    32    33    1
    60    32    31    1
