@<TRIPOS>MOLECULE
ZINC03830445
 57 60 0 0 0
SMALL
GASTEIGER

@<TRIPOS>ATOM
      1 C           1.3155   -1.8068    4.0996 C.3     1  UNL1       -0.0433
      2 C          -0.4371   -3.5287    4.2140 C.3     1  UNL1       -0.0433
      3 C          -1.0673   -1.2876    3.3660 C.3     1  UNL1       -0.0122
      4 C          -0.7033   -0.0236    2.5763 C.3     1  UNL1        0.0858
      5 N          -1.8483    0.8264    2.3658 N.ar    1  UNL1       -0.2151
      6 C          -2.1740    1.7221    1.3875 C.ar    1  UNL1        0.2098
      7 N          -3.3649    2.2149    1.6751 N.ar    1  UNL1       -0.1015
      8 N          -3.7540    1.6453    2.8554 N.ar    1  UNL1       -0.0222
      9 N          -2.8233    0.8213    3.3061 N.ar    1  UNL1       -0.0430
     10 S          -1.1933    2.4248    0.1563 S.3     1  UNL1       -0.0801
     11 C          -0.1247    1.1963   -0.5941 C.3     1  UNL1        0.0253
     12 C          -0.7761    0.0733   -1.3860 C.2     1  UNL1       -0.0210
     13 CA         -0.3659   -1.2277   -1.2851 C.2     1  UNL1        0.1271
     14 N          -0.7341   -2.1114   -2.2676 N.am    1  UNL1       -0.2488
     15 C          -1.1909   -1.6916   -3.5818 C.3     1  UNL1        0.1042
     16 H          -0.4157   -1.1914   -4.1802 H       1  UNL1        0.0644
     17 CA         -1.3394   -3.2052   -3.9132 C.3     1  UNL1        0.1283
     18 HA         -0.9083   -3.4800   -4.8816 H       1  UNL1        0.0622
     19 C          -0.3432   -3.3527   -2.6581 C.2     1  UNL1        0.2440
     20 O           0.4751   -4.1251   -2.2486 O.2     1  UNL1       -0.2731
     21 N          -2.7014   -3.7856   -3.7420 N.am    1  UNL1       -0.3014
     22 C          -2.9239   -5.1318   -3.5792 C.2     1  UNL1        0.2195
     23 O          -2.0194   -5.9611   -3.6509 O.2     1  UNL1       -0.2754
     24 C          -4.3375   -5.5275   -3.2015 C.3     1  UNL1        0.0668
     25 C          -5.4039   -4.7421   -3.8914 C.ar    1  UNL1        0.0592
     26 C          -6.3458   -5.2179   -4.7834 C.ar    1  UNL1        0.0007
     27 S          -7.4087   -3.9554   -5.2427 S.2     1  UNL1       -0.0608
     28 C          -6.5487   -2.8723   -4.2284 C.ar    1  UNL1        0.1557
     29 N          -5.5261   -3.3890   -3.5948 N.ar    1  UNL1       -0.2296
     30 N          -6.9277   -1.5932   -4.0818 N.pl3   1  UNL1       -0.3375
     31 S          -2.6842   -0.7107   -3.3364 S.3     1  UNL1       -0.1311
     32 C          -1.7634    0.5796   -2.4441 C.3     1  UNL1        0.0196
     33 C           0.5010   -1.7593   -0.0656 C.2     1  UNL1        0.4006
     34 O           1.5869   -1.1513    0.1571 O.co2   1  UNL1       -0.2392
     35 H           1.1599   -1.6928    5.1776 H       1  UNL1        0.0777
     36 H           2.0990   -2.5437    3.9066 H       1  UNL1        0.0777
     37 H           1.5922   -0.8493    3.6575 H       1  UNL1        0.0777
     38 H          -0.7190   -3.2356    5.2304 H       1  UNL1        0.0777
     39 H          -1.3016   -3.9366    3.6858 H       1  UNL1        0.0777
     40 H           0.3735   -4.2618    4.2494 H       1  UNL1        0.0777
     41 H          -1.8978   -1.8101    2.8733 H       1  UNL1        0.0832
     42 H          -1.3737   -1.0389    4.3879 H       1  UNL1        0.0832
     43 H           0.0547    0.5806    3.0856 H       1  UNL1        0.0563
     44 H          -0.3377   -0.2841    1.6014 H       1  UNL1        0.0563
     45 H           0.4607    1.7634   -1.3312 H       1  UNL1        0.0427
     46 H           0.6083    0.8936    0.1455 H       1  UNL1        0.0427
     47 H          -3.4983   -3.1559   -3.6133 H       1  UNL1        0.1495
     48 H          -4.4556   -6.5940   -3.4367 H       1  UNL1        0.0422
     49 H          -4.4452   -5.4160   -2.1172 H       1  UNL1        0.0422
     50 H          -6.4708   -6.2222   -5.1621 H       1  UNL1        0.0712
     51 H          -7.9024   -1.3730   -4.2408 H       1  UNL1        0.1442
     52 H          -6.5219   -1.1114   -3.2864 H       1  UNL1        0.1442
     53 H          -1.2325    1.1925   -3.1804 H       1  UNL1        0.0423
     54 H          -2.5339    1.2025   -1.9828 H       1  UNL1        0.0423
     55 N           0.0453   -2.3053    3.4894 N.4     1  UNL1        0.2322
     56 H           0.2371   -2.5850    2.4824 H       1  UNL1        0.2028
     57 OXT        -0.1051   -2.5171    0.7653 O.co2   1  UNL1       -0.2392
@<TRIPOS>UNITY_ATOM_ATTR
55 1
charge 1
@<TRIPOS>BOND
     1     1    35    1
     2     1    36    1
     3     1    37    1
     4     1    55    1
     5     2    38    1
     6     2    39    1
     7     2    40    1
     8     2    55    1
     9     3     4    1
    10     3    41    1
    11     3    42    1
    12     3    55    1
    13     4     5    1
    14     4    43    1
    15     4    44    1
    16     5     9   ar
    17     5     6   ar
    18     6     7   ar
    19     6    10    1
    20     7     8   ar
    21     8     9   ar
    22    10    11    1
    23    11    12    1
    24    11    45    1
    25    11    46    1
    26    12    32    1
    27    12    13    2
    28    13    14    1
    29    13    33    1
    30    14    19   am
    31    14    15    1
    32    15    16    1
    33    15    17    1
    34    15    31    1
    35    17    19    1
    36    19    20    2
    37    21    22   am
    38    21    47    1
    39    22    23    2
    40    22    24    1
    41    24    25    1
    42    24    48    1
    43    24    49    1
    44    25    29   ar
    45    25    26   ar
    46    26    27   ar
    47    26    50    1
    48    27    28   ar
    49    28    29   ar
    50    28    30    1
    51    30    51    1
    52    30    52    1
    53    31    32    1
    54    32    53    1
    55    32    54    1
    56    33    34   ar
    57    33    57   ar
    58    55    56    1
    59    17    21    1
    60    17    18    1
