@<TRIPOS>MOLECULE
ZINC01542199
 46 48 0 0 0
SMALL
GASTEIGER

@<TRIPOS>ATOM
      1 C          -0.0475    0.8626   -1.2519 C.3     1  UNL1       -0.0306
      2 C           1.0264    1.4404   -2.1587 C.3     1  UNL1        0.0900
      3 O           1.4933    0.4828   -3.1197 O.3     1  UNL1       -0.4614
      4 C           2.4058   -0.4259   -2.6996 C.2     1  UNL1        0.3407
      5 O           2.8817   -0.5224   -1.5804 O.2     1  UNL1       -0.2449
      6 C           2.7193   -1.3548   -3.8064 C.ar    1  UNL1        0.0771
      7 C           2.1684   -1.2208   -5.0820 C.ar    1  UNL1       -0.0437
      8 C           2.4789   -2.1670   -6.0627 C.ar    1  UNL1       -0.0270
      9 C           3.3093   -3.2307   -5.7299 C.ar    1  UNL1        0.1137
     10 N           3.8888   -3.3626   -4.5138 N.ar    1  UNL1       -0.2459
     11 C           3.5894   -2.4134   -3.5835 C.ar    1  UNL1        0.0429
     12 C           3.5359   -4.3117   -6.6479 C.1     1  UNL1       -0.0412
     13 C           3.6461   -5.2300   -7.4291 C.1     1  UNL1       -0.0595
     14 C           3.7067   -6.3068   -8.3813 C.ar    1  UNL1        0.0257
     15 C           3.9936   -6.0418   -9.7169 C.ar    1  UNL1       -0.0453
     16 C           4.0087   -7.0847  -10.6470 C.ar    1  UNL1       -0.0469
     17 C           3.7344   -8.4136  -10.2715 C.ar    1  UNL1        0.0116
     18 C           3.4293   -8.7101   -8.9292 C.ar    1  UNL1       -0.0272
     19 C           3.4433   -7.6318   -7.9984 C.ar    1  UNL1       -0.0416
     20 C           3.1134  -10.1368   -8.4436 C.3     1  UNL1       -0.0080
     21 C           2.7694  -11.1203   -9.5951 C.3     1  UNL1       -0.0345
     22 C           3.8052  -11.1561  -10.7007 C.3     1  UNL1       -0.0009
     23 S           3.7848   -9.5974  -11.6104 S.3     1  UNL1       -0.1249
     24 C           1.8842  -10.1518   -7.5006 C.3     1  UNL1       -0.0557
     25 C           4.3264  -10.6825   -7.6566 C.3     1  UNL1       -0.0557
     26 H          -0.8731    0.4434   -1.8372 H       1  UNL1        0.0262
     27 H          -0.4469    1.6382   -0.5905 H       1  UNL1        0.0262
     28 H           0.3454    0.0549   -0.6266 H       1  UNL1        0.0262
     29 H           0.5939    2.2689   -2.7300 H       1  UNL1        0.0695
     30 H           1.8656    1.8441   -1.5852 H       1  UNL1        0.0695
     31 H           1.5036   -0.3939   -5.3136 H       1  UNL1        0.0627
     32 H           2.0576   -2.0790   -7.0578 H       1  UNL1        0.0645
     33 H           4.0846   -2.5407   -2.6227 H       1  UNL1        0.0838
     34 H           4.2051   -5.0293  -10.0505 H       1  UNL1        0.0630
     35 H           4.2367   -6.8490  -11.6863 H       1  UNL1        0.0629
     36 H           3.2426   -7.8204   -6.9455 H       1  UNL1        0.0633
     37 H           1.7848  -10.8801  -10.0228 H       1  UNL1        0.0282
     38 H           2.6704  -12.1361   -9.1871 H       1  UNL1        0.0282
     39 H           4.8130  -11.3494  -10.3232 H       1  UNL1        0.0380
     40 H           3.5706  -11.9631  -11.4037 H       1  UNL1        0.0380
     41 H           1.6330  -11.1762   -7.1993 H       1  UNL1        0.0238
     42 H           2.0545   -9.5901   -6.5769 H       1  UNL1        0.0238
     43 H           1.0029   -9.7242   -7.9931 H       1  UNL1        0.0238
     44 H           5.2380  -10.6976   -8.2630 H       1  UNL1        0.0238
     45 H           4.5427  -10.0736   -6.7720 H       1  UNL1        0.0238
     46 H           4.1411  -11.7067   -7.3105 H       1  UNL1        0.0238
@<TRIPOS>BOND
     1     1     2    1
     2     1    26    1
     3     1    27    1
     4     1    28    1
     5     2     3    1
     6     2    29    1
     7     2    30    1
     8     3     4    1
     9     4     5    2
    10     4     6    1
    11     6    11   ar
    12     6     7   ar
    13     7     8   ar
    14     7    31    1
    15     8     9   ar
    16     8    32    1
    17     9    10   ar
    18     9    12    1
    19    10    11   ar
    20    11    33    1
    21    12    13    3
    22    13    14    1
    23    14    19   ar
    24    14    15   ar
    25    15    16   ar
    26    15    34    1
    27    16    17   ar
    28    16    35    1
    29    17    23    1
    30    17    18   ar
    31    18    19   ar
    32    18    20    1
    33    19    36    1
    34    20    21    1
    35    20    24    1
    36    20    25    1
    37    21    22    1
    38    21    37    1
    39    21    38    1
    40    22    23    1
    41    22    39    1
    42    22    40    1
    43    24    41    1
    44    24    42    1
    45    24    43    1
    46    25    44    1
    47    25    45    1
    48    25    46    1
