@<TRIPOS>MOLECULE
ZINC00057313
 41 43 0 0 0
SMALL
GASTEIGER

@<TRIPOS>ATOM
      1 C          -0.9394   -1.2675    0.8303 C.3     1  UNL1       -0.0612
      2 C           0.5672   -1.0980    0.9236 C.3     1  UNL1       -0.0286
      3 C           1.0338   -0.8537    2.3360 C.ar    1  UNL1       -0.0237
      4 C           1.1119    0.4620    2.8355 C.ar    1  UNL1       -0.0566
      5 C           1.5651    0.7377    4.1244 C.ar    1  UNL1       -0.0608
      6 C           1.9665   -0.2963    4.9694 C.ar    1  UNL1       -0.0523
      7 C           1.8862   -1.6277    4.5200 C.ar    1  UNL1        0.0035
      8 C           1.4055   -1.8788    3.2290 C.ar    1  UNL1        0.0502
      9 N           1.3634   -3.2520    3.0829 N.ar    1  UNL1       -0.3552
     10 H           0.9410   -3.7635    2.3138 H       1  UNL1        0.1657
     11 C           1.8921   -3.8581    4.1900 C.ar    1  UNL1        0.0531
     12 C           2.1997   -2.8826    5.1068 C.ar    1  UNL1       -0.0141
     13 C           2.7647   -3.2299    6.4301 C.3     1  UNL1       -0.0018
     14 C           2.9846   -4.7498    6.5778 C.3     1  UNL1        0.0529
     15 O           3.1263   -5.4845    5.3517 O.3     1  UNL1       -0.3664
     16 C           2.0433   -5.3375    4.3752 C.3     1  UNL1        0.1192
     17 C           2.5487   -6.0590    3.0993 C.3     1  UNL1       -0.0205
     18 C           3.9193   -5.5947    2.6079 C.3     1  UNL1       -0.0623
     19 C           0.7685   -5.9991    4.9111 C.3     1  UNL1        0.0837
     20 C          -0.4775   -6.0211    4.0277 C.2     1  UNL1        0.3591
     21 O          -0.4172   -5.4338    2.9129 O.co2   1  UNL1       -0.2463
     22 O          -1.4550   -6.6543    4.5329 O.co2   1  UNL1       -0.2463
     23 H          -1.2724   -2.1590    1.3709 H       1  UNL1        0.0233
     24 H          -1.2406   -1.3751   -0.2181 H       1  UNL1        0.0233
     25 H          -1.4664   -0.4021    1.2452 H       1  UNL1        0.0233
     26 H           1.0635   -1.9874    0.5177 H       1  UNL1        0.0311
     27 H           0.8828   -0.2619    0.2873 H       1  UNL1        0.0311
     28 H           0.8083    1.2918    2.2009 H       1  UNL1        0.0621
     29 H           1.6069    1.7637    4.4767 H       1  UNL1        0.0618
     30 H           2.3249   -0.0821    5.9711 H       1  UNL1        0.0624
     31 H           2.1017   -2.8863    7.2312 H       1  UNL1        0.0336
     32 H           3.7182   -2.7061    6.5611 H       1  UNL1        0.0336
     33 H           2.1966   -5.2066    7.1868 H       1  UNL1        0.0563
     34 H           3.9161   -4.9031    7.1376 H       1  UNL1        0.0563
     35 H           2.6320   -7.1357    3.3085 H       1  UNL1        0.0294
     36 H           1.8457   -5.9547    2.2697 H       1  UNL1        0.0294
     37 H           4.7014   -5.8066    3.3375 H       1  UNL1        0.0231
     38 H           4.1720   -6.1153    1.6805 H       1  UNL1        0.0231
     39 H           3.9286   -4.5200    2.3907 H       1  UNL1        0.0231
     40 H           0.9988   -7.0441    5.1643 H       1  UNL1        0.0411
     41 H           0.4650   -5.5374    5.8600 H       1  UNL1        0.0411
@<TRIPOS>BOND
     1     1     2    1
     2     1    23    1
     3     1    24    1
     4     1    25    1
     5     2     3    1
     6     2    26    1
     7     2    27    1
     8     3     8   ar
     9     3     4   ar
    10     4     5   ar
    11     4    28    1
    12     5     6   ar
    13     5    29    1
    14     6     7   ar
    15     6    30    1
    16     7    12   ar
    17     7     8   ar
    18     8     9   ar
    19     9    10    1
    20     9    11   ar
    21    11    16    1
    22    11    12   ar
    23    12    13    1
    24    13    14    1
    25    13    31    1
    26    13    32    1
    27    14    15    1
    28    14    33    1
    29    14    34    1
    30    15    16    1
    31    16    17    1
    32    16    19    1
    33    17    18    1
    34    17    35    1
    35    17    36    1
    36    18    37    1
    37    18    38    1
    38    18    39    1
    39    19    20    1
    40    19    40    1
    41    19    41    1
    42    20    21   ar
    43    20    22   ar
