@<TRIPOS>MOLECULE
ZINC00896543
 49 50 0 0 0
SMALL
GASTEIGER

@<TRIPOS>ATOM
      1 C          -6.0752   -1.9471    6.5203 C.ar    1  UNL1       -0.0164
      2 C          -6.0460   -0.5688    6.2820 C.ar    1  UNL1       -0.0157
      3 C          -5.3595   -0.0170    5.1848 C.ar    1  UNL1        0.1332
      4 C          -4.6839   -0.8771    4.3129 C.ar    1  UNL1        0.0817
      5 C          -4.6285   -2.2484    4.6290 C.ar    1  UNL1       -0.0043
      6 C          -5.3687   -2.7896    5.6786 C.ar    1  UNL1        0.1219
      7 O          -5.3711   -4.1547    5.7359 O.3     1  UNL1       -0.4830
      8 C          -6.6141   -4.7806    6.1012 C.3     1  UNL1        0.1842
      9 C          -7.7748   -4.5670    5.1237 C.3     1  UNL1        0.4236
     10 F          -7.4602   -3.7482    4.0891 F       1  UNL1       -0.1671
     11 F          -8.1704   -5.7408    4.5766 F       1  UNL1       -0.1671
     12 F          -8.8444   -4.0300    5.7523 F       1  UNL1       -0.1671
     13 C          -4.3404   -0.5291    2.8986 C.2     1  UNL1        0.2479
     14 O          -5.0827    0.1934    2.2288 O.2     1  UNL1       -0.2701
     15 N          -3.2854   -1.1942    2.3236 N.am    1  UNL1       -0.3059
     16 C          -3.0070   -1.0855    0.9009 C.3     1  UNL1        0.0548
     17 C          -3.7697   -2.0670   -0.0418 C.3     1  UNL1       -0.0068
     18 H          -3.4969   -1.7634   -1.0615 H       1  UNL1        0.0866
     19 C          -3.3909   -3.5426    0.1026 C.3     1  UNL1       -0.0081
     20 C          -4.0774   -4.2386    1.2643 C.3     1  UNL1       -0.0431
     21 C          -5.5893   -4.0986    1.1740 C.3     1  UNL1       -0.0124
     22 C          -6.0553   -2.6618    1.0268 C.3     1  UNL1       -0.0334
     23 N          -5.2660   -1.9123    0.0064 N.4     1  UNL1        0.2303
     24 O          -5.5082    1.3351    5.0990 O.3     1  UNL1       -0.4823
     25 C          -4.4158    2.1535    4.6617 C.3     1  UNL1        0.1842
     26 C          -3.0643    1.9801    5.3517 C.3     1  UNL1        0.4236
     27 F          -3.1019    1.1490    6.4125 F       1  UNL1       -0.1671
     28 F          -2.1571    1.4731    4.4789 F       1  UNL1       -0.1671
     29 F          -2.5824    3.1688    5.7840 F       1  UNL1       -0.1671
     30 H          -6.6492   -2.3179    7.3629 H       1  UNL1        0.0655
     31 H          -6.5989    0.0915    6.9530 H       1  UNL1        0.0655
     32 H          -4.1037   -2.9489    3.9935 H       1  UNL1        0.0663
     33 H          -6.3999   -5.8552    6.1335 H       1  UNL1        0.0788
     34 H          -6.8934   -4.5099    7.1254 H       1  UNL1        0.0788
     35 H          -2.5770   -1.5953    2.9319 H       1  UNL1        0.1492
     36 H          -3.2245   -0.0581    0.5858 H       1  UNL1        0.0518
     37 H          -1.9271   -1.2351    0.7794 H       1  UNL1        0.0518
     38 H          -2.3037   -3.6468    0.1983 H       1  UNL1        0.0320
     39 H          -3.6684   -4.0696   -0.8203 H       1  UNL1        0.0320
     40 H          -3.8107   -5.3009    1.2744 H       1  UNL1        0.0269
     41 H          -3.7062   -3.8304    2.2037 H       1  UNL1        0.0269
     42 H          -5.9536   -4.6863    0.3219 H       1  UNL1        0.0317
     43 H          -6.0485   -4.5325    2.0690 H       1  UNL1        0.0317
     44 H          -7.1016   -2.6211    0.7060 H       1  UNL1        0.0814
     45 H          -5.9863   -2.1303    1.9695 H       1  UNL1        0.0814
     46 H          -5.6475   -2.1487   -0.9193 H       1  UNL1        0.2017
     47 H          -4.3069    2.0933    3.5759 H       1  UNL1        0.0788
     48 H          -4.7484    3.1818    4.8513 H       1  UNL1        0.0788
     49 H          -5.4824   -0.9104    0.1520 H       1  UNL1        0.2017
@<TRIPOS>UNITY_ATOM_ATTR
23 1
charge 1
@<TRIPOS>BOND
     1     1     6   ar
     2     1     2   ar
     3     1    30    1
     4     2     3   ar
     5     2    31    1
     6     3     4   ar
     7     3    24    1
     8     4     5   ar
     9     4    13    1
    10     5     6   ar
    11     5    32    1
    12     6     7    1
    13     7     8    1
    14     8     9    1
    15     8    33    1
    16     8    34    1
    17     9    10    1
    18     9    11    1
    19     9    12    1
    20    13    14    2
    21    13    15   am
    22    15    16    1
    23    15    35    1
    24    16    36    1
    25    16    37    1
    26    17    23    1
    27    17    19    1
    28    19    20    1
    29    19    38    1
    30    19    39    1
    31    20    21    1
    32    20    40    1
    33    20    41    1
    34    21    22    1
    35    21    42    1
    36    21    43    1
    37    22    23    1
    38    22    44    1
    39    22    45    1
    40    23    46    1
    41    23    49    1
    42    24    25    1
    43    25    26    1
    44    25    47    1
    45    25    48    1
    46    26    27    1
    47    26    28    1
    48    26    29    1
    49    17    18    1
    50    17    16    1
