@<TRIPOS>MOLECULE
ZINC03812913
 65 65 0 0 0
SMALL
GASTEIGER

@<TRIPOS>ATOM
      1 C          -8.3351    1.4224   -6.9371 C.3     1  UNL1       -0.0653
      2 C          -7.1648    1.0244   -6.0499 C.3     1  UNL1       -0.0558
      3 C          -5.9325    1.8856   -6.3355 C.3     1  UNL1       -0.0507
      4 C          -4.7469    1.4881   -5.4429 C.3     1  UNL1       -0.0240
      5 C          -3.4586    2.3073   -5.6916 C.3     1  UNL1        0.0667
      6 C          -3.6829    3.8056   -5.4353 C.3     1  UNL1       -0.0358
      7 C          -2.2964    1.8226   -4.7827 C.3     1  UNL1       -0.0060
      8 C          -1.8335    0.4077   -5.0261 C.2     1  UNL1       -0.0849
      9 C          -1.8515   -0.5688   -4.1045 C.2     1  UNL1       -0.0816
     10 C          -1.2887   -1.9543   -4.3420 C.3     1  UNL1        0.0130
     11 H          -0.8051   -1.9781   -5.3289 H       1  UNL1        0.0375
     12 C          -0.2402   -2.3241   -3.2737 C.3     1  UNL1        0.0688
     13 H          -0.5444   -2.0017   -2.2704 H       1  UNL1        0.0603
     14 C          -0.1461   -3.8361   -3.3362 C.3     1  UNL1        0.0327
     15 C          -1.5657   -4.2066   -3.6334 C.2     1  UNL1        0.1395
     16 O          -2.0278   -5.3201   -3.3945 O.2     1  UNL1       -0.2970
     17 C          -2.3614   -3.0676   -4.2492 C.3     1  UNL1        0.0262
     18 H          -3.1491   -2.7811   -3.5425 H       1  UNL1        0.0384
     19 C          -2.9274   -3.4173   -5.6323 C.3     1  UNL1       -0.0429
     20 C          -3.9735   -4.5411   -5.6713 C.3     1  UNL1       -0.0524
     21 C          -5.2177   -4.2379   -4.8396 C.3     1  UNL1       -0.0530
     22 C          -6.2540   -5.3622   -4.9350 C.3     1  UNL1       -0.0526
     23 C          -7.4933   -5.1026   -4.0716 C.3     1  UNL1       -0.0430
     24 C          -8.2642   -3.8538   -4.4862 C.3     1  UNL1        0.0449
     25 C          -9.4549   -3.6310   -3.5938 C.2     1  UNL1        0.3068
     26 O          -9.4378   -2.9235   -2.5954 O.2     1  UNL1       -0.2509
     27 O         -10.5292   -4.3265   -4.0509 O.3     1  UNL1       -0.4679
     28 C         -11.7121   -4.1534   -3.2704 C.3     1  UNL1        0.0817
     29 O           1.0327   -1.7699   -3.5756 O.3     1  UNL1       -0.3908
     30 O          -3.0800    2.1577   -7.0656 O.3     1  UNL1       -0.3885
     31 H          -8.5894    2.4788   -6.8030 H       1  UNL1        0.0230
     32 H          -9.2198    0.8269   -6.6910 H       1  UNL1        0.0230
     33 H          -8.0985    1.2586   -7.9934 H       1  UNL1        0.0230
     34 H          -7.4577    1.1335   -4.9993 H       1  UNL1        0.0263
     35 H          -6.9311   -0.0338   -6.2143 H       1  UNL1        0.0263
     36 H          -5.6544    1.7821   -7.3908 H       1  UNL1        0.0266
     37 H          -6.1952    2.9359   -6.1689 H       1  UNL1        0.0266
     38 H          -5.0403    1.5796   -4.3893 H       1  UNL1        0.0293
     39 H          -4.5423    0.4261   -5.6283 H       1  UNL1        0.0293
     40 H          -4.0283    3.9924   -4.4133 H       1  UNL1        0.0257
     41 H          -2.7547    4.3685   -5.5914 H       1  UNL1        0.0257
     42 H          -4.4052    4.2341   -6.1374 H       1  UNL1        0.0257
     43 H          -1.4195    2.4606   -4.9588 H       1  UNL1        0.0335
     44 H          -2.5734    1.9591   -3.7294 H       1  UNL1        0.0335
     45 H          -1.4278    0.2071   -6.0169 H       1  UNL1        0.0570
     46 H          -2.2662   -0.3625   -3.1186 H       1  UNL1        0.0573
     47 H           0.1851   -4.2591   -2.3834 H       1  UNL1        0.0367
     48 H           0.5028   -4.1844   -4.1456 H       1  UNL1        0.0367
     49 H          -3.3691   -2.5157   -6.0749 H       1  UNL1        0.0272
     50 H          -2.1040   -3.7171   -6.2938 H       1  UNL1        0.0272
     51 H          -4.2734   -4.6875   -6.7172 H       1  UNL1        0.0265
     52 H          -3.5284   -5.4892   -5.3524 H       1  UNL1        0.0265
     53 H          -4.9477   -4.1011   -3.7874 H       1  UNL1        0.0265
     54 H          -5.6463   -3.2960   -5.1963 H       1  UNL1        0.0265
     55 H          -6.5565   -5.5067   -5.9790 H       1  UNL1        0.0265
     56 H          -5.7960   -6.3032   -4.6053 H       1  UNL1        0.0265
     57 H          -8.1554   -5.9751   -4.1370 H       1  UNL1        0.0270
     58 H          -7.1971   -5.0231   -3.0179 H       1  UNL1        0.0270
     59 H          -7.6454   -2.9539   -4.4154 H       1  UNL1        0.0377
     60 H          -8.5965   -3.9194   -5.5297 H       1  UNL1        0.0377
     61 H         -11.5074   -4.2630   -2.2005 H       1  UNL1        0.0661
     62 H         -12.1524   -3.1736   -3.4805 H       1  UNL1        0.0661
     63 H         -12.4268   -4.9273   -3.5625 H       1  UNL1        0.0661
     64 H           1.0901   -0.9054   -3.1327 H       1  UNL1        0.2098
     65 H          -2.2632    2.6651   -7.2097 H       1  UNL1        0.2102
@<TRIPOS>BOND
     1     1     2    1
     2     1    31    1
     3     1    32    1
     4     1    33    1
     5     2     3    1
     6     2    34    1
     7     2    35    1
     8     3     4    1
     9     3    36    1
    10     3    37    1
    11     4     5    1
    12     4    38    1
    13     4    39    1
    14     5     6    1
    15     5     7    1
    16     5    30    1
    17     6    40    1
    18     6    41    1
    19     6    42    1
    20     7     8    1
    21     7    43    1
    22     7    44    1
    23     8     9    2
    24     8    45    1
    25     9    10    1
    26     9    46    1
    27    10    11    1
    28    10    17    1
    29    10    12    1
    30    12    14    1
    31    14    15    1
    32    14    47    1
    33    14    48    1
    34    15    16    2
    35    15    17    1
    36    17    18    1
    37    17    19    1
    38    19    20    1
    39    19    49    1
    40    19    50    1
    41    20    21    1
    42    20    51    1
    43    20    52    1
    44    21    22    1
    45    21    53    1
    46    21    54    1
    47    22    23    1
    48    22    55    1
    49    22    56    1
    50    23    24    1
    51    23    57    1
    52    23    58    1
    53    24    25    1
    54    24    59    1
    55    24    60    1
    56    25    26    2
    57    25    27    1
    58    27    28    1
    59    28    61    1
    60    28    62    1
    61    28    63    1
    62    29    64    1
    63    30    65    1
    64    12    29    1
    65    12    13    1
