@<TRIPOS>MOLECULE
ZINC00113446
 29 29 0 0 0
SMALL
GASTEIGER

@<TRIPOS>ATOM
      1 C           1.8403    3.7043    5.8736 C.3     1  UNL1       -0.0457
      2 C           1.7547    2.9024    4.5833 C.3     1  UNL1        0.0630
      3 S           2.7521    1.4144    4.6593 S.O2    1  UNL1       -0.0296
      4 O           4.1276    1.8047    4.8955 O.2     1  UNL1       -0.1743
      5 O           2.0799    0.4846    5.5457 O.2     1  UNL1       -0.1743
      6 C           2.6701    0.7130    3.0137 C.3     1  UNL1        0.0837
      7 C           3.3906   -0.6350    3.0003 C.3     1  UNL1        0.0456
      8 N           3.2555   -1.3538    1.7395 N.ar    1  UNL1       -0.3110
      9 C           2.2705   -2.3005    1.4786 C.ar    1  UNL1        0.1081
     10 N           2.3080   -2.6894    0.2191 N.ar    1  UNL1       -0.2386
     11 C           3.4069   -2.0962   -0.3295 C.ar    1  UNL1        0.0728
     12 C           4.0361   -1.3092    0.6060 C.ar    1  UNL1        0.1640
     13 N           5.2641   -0.6091    0.4383 N.pl3   1  UNL1       -0.1677
     14 O           5.6616    0.0853    1.3772 O.2     1  UNL1       -0.1711
     15 O           5.8393   -0.7540   -0.6465 O.co2   1  UNL1       -0.7759
     16 C           1.3286   -2.8433    2.4935 C.3     1  UNL1       -0.0062
     17 H           1.8526    3.0625    6.7603 H       1  UNL1        0.0245
     18 H           0.9884    4.3874    5.9590 H       1  UNL1        0.0245
     19 H           2.7519    4.3113    5.8916 H       1  UNL1        0.0245
     20 H           0.7229    2.5873    4.4013 H       1  UNL1        0.0497
     21 H           2.1021    3.5054    3.7399 H       1  UNL1        0.0497
     22 H           1.6107    0.5994    2.7605 H       1  UNL1        0.0517
     23 H           3.1269    1.4244    2.3195 H       1  UNL1        0.0517
     24 H           4.4500   -0.5341    3.2438 H       1  UNL1        0.0509
     25 H           2.9881   -1.2847    3.7855 H       1  UNL1        0.0509
     26 H           3.7070   -2.2908   -1.3510 H       1  UNL1        0.0868
     27 H           1.8806   -3.3064    3.3183 H       1  UNL1        0.0307
     28 H           0.6786   -2.0594    2.8897 H       1  UNL1        0.0307
     29 H           0.6982   -3.6197    2.0469 H       1  UNL1        0.0307
@<TRIPOS>UNITY_ATOM_ATTR
15 1
charge -1
@<TRIPOS>BOND
     1     1     2    1
     2     1    17    1
     3     1    18    1
     4     1    19    1
     5     2     3    1
     6     2    20    1
     7     2    21    1
     8     3     4    2
     9     3     5    2
    10     3     6    1
    11     6     7    1
    12     6    22    1
    13     6    23    1
    14     7     8    1
    15     7    24    1
    16     7    25    1
    17     8    12   ar
    18     8     9   ar
    19     9    10   ar
    20     9    16    1
    21    10    11   ar
    22    11    12   ar
    23    11    26    1
    24    12    13    1
    25    13    14    2
    26    13    15    1
    27    16    27    1
    28    16    28    1
    29    16    29    1
