@<TRIPOS>MOLECULE
ZINC00012346
 26 27 0 0 0
SMALL
GASTEIGER

@<TRIPOS>ATOM
      1 C          -3.5009   -3.6904    1.1392 C.ar    1  UNL1       -0.0056
      2 C          -2.2009   -3.4182    1.1878 C.ar    1  UNL1        0.0152
      3 N          -1.4097   -3.4204    0.0514 N.ar    1  UNL1       -0.2717
      4 C          -1.9970   -3.6064   -1.2068 C.ar    1  UNL1        0.3521
      5 O          -1.3530   -3.4631   -2.2415 O.2     1  UNL1       -0.2444
      6 N          -3.3245   -3.9603   -1.2716 N.ar    1  UNL1       -0.1783
      7 C          -4.0424   -3.9927   -0.1936 C.ar    1  UNL1        0.1230
      8 N          -5.3620   -4.3232   -0.3286 N.pl3   1  UNL1       -0.3430
      9 C          -0.0223   -2.9363    0.1468 C.3     1  UNL1        0.1498
     10 H          -0.0732   -1.8407    0.0712 H       1  UNL1        0.0848
     11 C           0.9922   -3.4935   -0.8629 C.3     1  UNL1        0.0418
     12 S           2.5810   -3.0154   -0.1529 S.3     1  UNL1       -0.1230
     13 C           1.8884   -3.0047    1.5198 C.3     1  UNL1        0.1297
     14 H           2.0409   -2.0133    1.9594 H       1  UNL1        0.0736
     15 O           0.4870   -3.2764    1.4576 O.3     1  UNL1       -0.3397
     16 C           2.5732   -4.0789    2.3754 C.3     1  UNL1        0.0798
     17 O           3.9634   -3.8165    2.5541 O.3     1  UNL1       -0.3916
     18 H          -4.1454   -3.6790    2.0057 H       1  UNL1        0.0666
     19 H          -1.7281   -3.1676    2.1337 H       1  UNL1        0.0812
     20 H          -5.8178   -4.7795    0.4511 H       1  UNL1        0.1437
     21 H          -5.5716   -4.7399   -1.2304 H       1  UNL1        0.1437
     22 H           0.9505   -4.5855   -0.9177 H       1  UNL1        0.0421
     23 H           0.9017   -3.0679   -1.8636 H       1  UNL1        0.0421
     24 H           2.1065   -4.1234    3.3653 H       1  UNL1        0.0592
     25 H           2.4528   -5.0768    1.9356 H       1  UNL1        0.0592
     26 H           4.3388   -3.6988    1.6603 H       1  UNL1        0.2095
@<TRIPOS>BOND
     1     1     7   ar
     2     1     2   ar
     3     1    18    1
     4     2     3   ar
     5     2    19    1
     6     3     4   ar
     7     4     5    2
     8     4     6   ar
     9     6     7   ar
    10     7     8    1
    11     8    20    1
    12     8    21    1
    13     9    15    1
    14     9    11    1
    15    11    12    1
    16    11    22    1
    17    11    23    1
    18    12    13    1
    19    13    14    1
    20    13    15    1
    21    13    16    1
    22    16    17    1
    23    16    24    1
    24    16    25    1
    25    17    26    1
    26     9    10    1
    27     9     3    1
