@<TRIPOS>MOLECULE
ZINC00601305
 40 42 0 0 0
SMALL
GASTEIGER

@<TRIPOS>ATOM
      1 C           0.4311    0.0353    0.1899 C.3     1  UNL1       -0.0445
      2 C           0.2340    0.0607   -1.3308 C.3     1  UNL1        0.0437
      3 H           1.0953   -0.4409   -1.7898 H       1  UNL1        0.0518
      4 C          -1.0579   -0.6969   -1.7393 C.3     1  UNL1       -0.0058
      5 C          -1.9882    0.4282   -2.0387 C.ar    1  UNL1       -0.0230
      6 C          -3.3487    0.3666   -2.2988 C.ar    1  UNL1       -0.0567
      7 C          -4.0153    1.5542   -2.5969 C.ar    1  UNL1       -0.0614
      8 C          -3.3171    2.7696   -2.6328 C.ar    1  UNL1       -0.0599
      9 C          -1.9404    2.8098   -2.3838 C.ar    1  UNL1       -0.0389
     10 C          -1.2760    1.6289   -2.0894 C.ar    1  UNL1        0.0511
     11 N           0.1174    1.4384   -1.8837 N.pl3   1  UNL1       -0.2474
     12 N           0.7857    2.4980   -1.2529 N.am    1  UNL1       -0.2297
     13 C           1.3868    3.4782   -2.0365 C.2     1  UNL1        0.2603
     14 O           1.5426    3.4466   -3.2508 O.2     1  UNL1       -0.2687
     15 C           1.7730    4.7108   -1.2855 C.ar    1  UNL1        0.0401
     16 C           2.2045    4.6384    0.0443 C.ar    1  UNL1       -0.0481
     17 C           2.4321    5.8179    0.7633 C.ar    1  UNL1       -0.0408
     18 C           2.2176    7.0671    0.1703 C.ar    1  UNL1        0.0673
     19 C           1.8280    7.1351   -1.1704 C.ar    1  UNL1        0.1239
     20 C           1.6318    5.9571   -1.9091 C.ar    1  UNL1       -0.0218
     21 S           1.4782    8.7064   -1.8929 S.O2    1  UNL1        0.0574
     22 O           0.2057    9.1624   -1.3868 O.2     1  UNL1       -0.1532
     23 O           2.6762    9.5144   -1.8772 O.2     1  UNL1       -0.1532
     24 N           1.2111    8.3928   -3.5222 N.3     1  UNL1       -0.2035
     25 CL          2.4106    8.4476    1.1871 Cl      1  UNL1       -0.0815
     26 H           0.1888   -0.9487    0.6065 H       1  UNL1        0.0248
     27 H          -0.1850    0.7790    0.7059 H       1  UNL1        0.0248
     28 H           1.4789    0.2395    0.4376 H       1  UNL1        0.0248
     29 H          -0.8896   -1.2891   -2.6449 H       1  UNL1        0.0332
     30 H          -1.4433   -1.3455   -0.9465 H       1  UNL1        0.0332
     31 H          -3.8809   -0.5791   -2.2890 H       1  UNL1        0.0621
     32 H          -5.0794    1.5370   -2.8202 H       1  UNL1        0.0618
     33 H          -3.8456    3.6867   -2.8815 H       1  UNL1        0.0618
     34 H          -1.4066    3.7496   -2.4614 H       1  UNL1        0.0637
     35 H           0.4416    2.7268   -0.3268 H       1  UNL1        0.1733
     36 H           2.3774    3.6852    0.5260 H       1  UNL1        0.0625
     37 H           2.7528    5.7522    1.8003 H       1  UNL1        0.0633
     38 H           1.3196    5.9939   -2.9514 H       1  UNL1        0.0645
     39 H           0.2343    8.5900   -3.7508 H       1  UNL1        0.1442
     40 H           1.8685    8.9466   -4.0768 H       1  UNL1        0.1442
@<TRIPOS>BOND
     1     1     2    1
     2     1    26    1
     3     1    27    1
     4     1    28    1
     5     2     3    1
     6     2    11    1
     7     2     4    1
     8     4     5    1
     9     4    29    1
    10     4    30    1
    11     5    10   ar
    12     5     6   ar
    13     6     7   ar
    14     6    31    1
    15     7     8   ar
    16     7    32    1
    17     8     9   ar
    18     8    33    1
    19     9    10   ar
    20     9    34    1
    21    10    11    1
    22    11    12    1
    23    12    13   am
    24    12    35    1
    25    13    14    2
    26    13    15    1
    27    15    20   ar
    28    15    16   ar
    29    16    17   ar
    30    16    36    1
    31    17    18   ar
    32    17    37    1
    33    18    19   ar
    34    18    25    1
    35    19    20   ar
    36    19    21    1
    37    20    38    1
    38    21    22    2
    39    21    23    2
    40    21    24    1
    41    24    39    1
    42    24    40    1
