@<TRIPOS>MOLECULE
ZINC03629718
 47 51 0 0 0
SMALL
GASTEIGER

@<TRIPOS>ATOM
      1 C          -1.0120    0.6481   -2.6587 C.3     1  UNL1       -0.0307
      2 C           0.2777    0.0454   -3.1833 C.3     1  UNL1        0.0870
      3 O           1.0953   -0.3728   -2.0854 O.3     1  UNL1       -0.4886
      4 C           2.4114   -0.6072   -2.3670 C.ar    1  UNL1        0.1622
      5 C           2.9641   -0.6468   -3.6583 C.ar    1  UNL1       -0.0160
      6 C           4.3366   -0.8783   -3.8681 C.ar    1  UNL1       -0.0544
      7 C           5.1897   -1.0471   -2.7800 C.ar    1  UNL1       -0.0345
      8 C           4.6310   -0.9563   -1.5139 C.ar    1  UNL1        0.0120
      9 C           3.2747   -0.8262   -1.3051 C.ar    1  UNL1        0.1666
     10 O           2.9352   -0.9978    0.0184 O.3     1  UNL1       -0.4811
     11 C           4.1562   -1.4808    0.6760 C.3     1  UNL1        0.1402
     12 H           4.2018   -0.9296    1.6243 H       1  UNL1        0.0772
     13 C           5.3626   -1.1251   -0.2235 C.3     1  UNL1        0.0553
     14 C           6.0138    0.2049    0.2024 C.3     1  UNL1        0.0015
     15 C           7.1101    0.6844   -0.7451 C.3     1  UNL1       -0.0309
     16 N           8.0616   -0.4482   -1.0492 N.4     1  UNL1        0.2359
     17 C           7.3617   -1.7227   -1.5823 C.3     1  UNL1       -0.0097
     18 H           8.1734   -2.4422   -1.7439 H       1  UNL1        0.0860
     19 C           6.6280   -1.4634   -2.9309 C.3     1  UNL1        0.0165
     20 C           6.4292   -2.2194   -0.4357 C.3     1  UNL1        0.0339
     21 H           7.0387   -2.3210    0.4750 H       1  UNL1        0.0408
     22 C           5.7915   -3.5704   -0.6649 C.2     1  UNL1       -0.0761
     23 C           4.6806   -3.9077    0.0126 C.2     1  UNL1       -0.0558
     24 C           4.0759   -2.9875    1.0390 C.3     1  UNL1        0.1110
     25 H           4.6664   -3.1413    1.9538 H       1  UNL1        0.0675
     26 O           2.7632   -3.4251    1.3390 O.3     1  UNL1       -0.3841
     27 C           9.2354    0.0010   -1.8787 C.3     1  UNL1       -0.0428
     28 H          -1.4740    0.0088   -1.9012 H       1  UNL1        0.0262
     29 H          -1.7204    0.8082   -3.4777 H       1  UNL1        0.0262
     30 H          -0.8100    1.6167   -2.1897 H       1  UNL1        0.0262
     31 H           0.0488   -0.8209   -3.8143 H       1  UNL1        0.0694
     32 H           0.7816    0.8166   -3.7780 H       1  UNL1        0.0694
     33 H           2.3378   -0.5492   -4.5408 H       1  UNL1        0.0655
     34 H           4.7062   -0.9545   -4.8880 H       1  UNL1        0.0622
     35 H           6.4486    0.0767    1.2034 H       1  UNL1        0.0327
     36 H           5.2629    1.0002    0.2942 H       1  UNL1        0.0327
     37 H           7.6946    1.4810   -0.2718 H       1  UNL1        0.0815
     38 H           6.7143    1.0623   -1.6927 H       1  UNL1        0.0815
     39 H           7.1544   -0.7323   -3.5509 H       1  UNL1        0.0368
     40 H           6.6246   -2.4090   -3.4902 H       1  UNL1        0.0368
     41 H           6.2256   -4.2779   -1.3681 H       1  UNL1        0.0575
     42 H           4.2156   -4.8820   -0.1304 H       1  UNL1        0.0596
     43 H           2.1930   -2.6375    1.4080 H       1  UNL1        0.2104
     44 H           9.7574    0.7834   -1.3198 H       1  UNL1        0.0778
     45 H           9.8992   -0.8559   -2.0186 H       1  UNL1        0.0778
     46 H           8.8784    0.3890   -2.8340 H       1  UNL1        0.0778
     47 H           8.4839   -0.7164   -0.1494 H       1  UNL1        0.2034
@<TRIPOS>UNITY_ATOM_ATTR
16 1
charge 1
@<TRIPOS>BOND
     1     1     2    1
     2     1    28    1
     3     1    29    1
     4     1    30    1
     5     2     3    1
     6     2    31    1
     7     2    32    1
     8     3     4    1
     9     4     9   ar
    10     4     5   ar
    11     5     6   ar
    12     5    33    1
    13     6     7   ar
    14     6    34    1
    15     7    19    1
    16     7     8   ar
    17     8     9   ar
    18     9    10    1
    19    10    11    1
    20    11    12    1
    21    11    24    1
    22    11    13    1
    23    13     8    1
    24    13    20    1
    25    13    14    1
    26    14    15    1
    27    14    35    1
    28    14    36    1
    29    15    16    1
    30    15    37    1
    31    15    38    1
    32    16    17    1
    33    16    27    1
    34    16    47    1
    35    17    18    1
    36    17    19    1
    37    17    20    1
    38    19    39    1
    39    19    40    1
    40    20    21    1
    41    20    22    1
    42    22    23    2
    43    22    41    1
    44    23    24    1
    45    23    42    1
    46    24    25    1
    47    24    26    1
    48    26    43    1
    49    27    44    1
    50    27    45    1
    51    27    46    1
