@<TRIPOS>MOLECULE
ZINC00968345
 31 31 0 0 0
SMALL
GASTEIGER

@<TRIPOS>ATOM
      1 C          -0.9362    2.1687   -2.3732 C.3     1  UNL1       -0.0650
      2 C           0.5565    2.4625   -2.2281 C.3     1  UNL1       -0.0519
      3 C           1.0906    2.3378   -0.7747 C.3     1  UNL1       -0.0217
      4 H           0.7763    1.3506   -0.4059 H       1  UNL1        0.0313
      5 C           0.3908    3.3933    0.1078 C.3     1  UNL1       -0.0610
      6 C           2.6747    2.3892   -0.6466 C.3     1  UNL1        0.1257
      7 C           3.1791    3.7664   -1.0607 C.2     1  UNL1        0.2357
      8 O           3.2345    4.7300   -0.2992 O.2     1  UNL1       -0.2742
      9 N           3.5413    3.9174   -2.3705 N.am    1  UNL1       -0.2390
     10 C           3.9722    2.9105   -3.1742 C.2     1  UNL1        0.3122
     11 O           4.6156    3.1342   -4.1942 O.2     1  UNL1       -0.2520
     12 N           3.7249    1.6433   -2.7540 N.am    1  UNL1       -0.2390
     13 C           3.2708    1.2828   -1.5164 C.2     1  UNL1        0.2357
     14 O           3.3122    0.1019   -1.1742 O.2     1  UNL1       -0.2742
     15 C           3.0934    2.1006    0.8313 C.3     1  UNL1       -0.0332
     16 C           4.5983    2.1013    1.0995 C.3     1  UNL1       -0.0639
     17 H          -1.1445    1.1123   -2.1763 H       1  UNL1        0.0230
     18 H          -1.2618    2.3906   -3.3950 H       1  UNL1        0.0230
     19 H          -1.5547    2.7714   -1.7041 H       1  UNL1        0.0230
     20 H           1.0758    1.7628   -2.8897 H       1  UNL1        0.0266
     21 H           0.7490    3.4714   -2.6103 H       1  UNL1        0.0266
     22 H           0.7485    3.3913    1.1383 H       1  UNL1        0.0233
     23 H           0.5249    4.4017   -0.2978 H       1  UNL1        0.0233
     24 H          -0.6843    3.2046    0.1747 H       1  UNL1        0.0233
     25 H           3.8650    4.8389   -2.6310 H       1  UNL1        0.1591
     26 H           4.1214    0.9033   -3.3166 H       1  UNL1        0.1591
     27 H           2.6655    2.8423    1.5120 H       1  UNL1        0.0277
     28 H           2.6923    1.1270    1.1422 H       1  UNL1        0.0277
     29 H           5.0315    3.0937    0.9439 H       1  UNL1        0.0230
     30 H           4.7819    1.8257    2.1441 H       1  UNL1        0.0230
     31 H           5.1329    1.3856    0.4699 H       1  UNL1        0.0230
@<TRIPOS>BOND
     1     1     2    1
     2     1    17    1
     3     1    18    1
     4     1    19    1
     5     2    20    1
     6     2    21    1
     7     3     5    1
     8     3     6    1
     9     5    22    1
    10     5    23    1
    11     5    24    1
    12     6    13    1
    13     6     7    1
    14     6    15    1
    15     7     8    2
    16     7     9   am
    17     9    10   am
    18     9    25    1
    19    10    11    2
    20    10    12   am
    21    12    13   am
    22    12    26    1
    23    13    14    2
    24    15    16    1
    25    15    27    1
    26    15    28    1
    27    16    29    1
    28    16    30    1
    29    16    31    1
    30     3     4    1
    31     3     2    1
