@<TRIPOS>MOLECULE
ZINC00006300
 38 40 0 0 0
SMALL
GASTEIGER

@<TRIPOS>ATOM
      1 C          -0.0606    1.1557   -0.3083 C.3     1  UNL1       -0.0489
      2 C           0.6157    0.0409   -1.0957 C.3     1  UNL1        0.0169
      3 N           0.9744    0.4405   -2.4574 N.am    1  UNL1       -0.2719
      4 C           0.0326    0.1996   -3.4878 C.ar    1  UNL1        0.0369
      5 C           0.1748   -0.9160   -4.3155 C.ar    1  UNL1       -0.0402
      6 C          -0.7184   -1.1226   -5.3729 C.ar    1  UNL1       -0.0594
      7 C          -1.7634   -0.2173   -5.5964 C.ar    1  UNL1       -0.0524
      8 C          -1.9334    0.8807   -4.7419 C.ar    1  UNL1        0.0023
      9 C          -1.0304    1.0879   -3.6915 C.ar    1  UNL1       -0.0311
     10 C          -3.0245    1.8387   -4.9841 C.ar    1  UNL1        0.0763
     11 C          -2.7761    2.9222   -5.7423 C.ar    1  UNL1       -0.0174
     12 C          -3.9171    3.8529   -5.9341 C.ar    1  UNL1        0.0320
     13 N          -5.1117    3.7127   -5.4453 N.ar    1  UNL1       -0.2350
     14 C          -5.3230    2.5952   -4.6837 C.ar    1  UNL1        0.1736
     15 N          -4.3084    1.6536   -4.4419 N.ar    1  UNL1       -0.2127
     16 N          -4.7615    0.6315   -3.6591 N.ar    1  UNL1       -0.1715
     17 C          -6.0363    0.9348   -3.4154 C.ar    1  UNL1        0.0694
     18 C          -6.4359    2.1295   -4.0206 C.ar    1  UNL1        0.1155
     19 C          -7.7165    2.7437   -3.9601 C.1     1  UNL1        0.1045
     20 N          -8.7751    3.2125   -3.8861 N.1     1  UNL1       -0.1907
     21 C           2.1283    1.2009   -2.6371 C.2     1  UNL1        0.2167
     22 O           2.8788    1.4936   -1.7036 O.2     1  UNL1       -0.2756
     23 C           2.4661    1.6620   -4.0336 C.3     1  UNL1        0.0127
     24 H           0.5404    2.0700   -0.3074 H       1  UNL1        0.0245
     25 H          -0.2124    0.8469    0.7313 H       1  UNL1        0.0245
     26 H          -1.0402    1.3996   -0.7304 H       1  UNL1        0.0245
     27 H           1.5361   -0.2440   -0.5709 H       1  UNL1        0.0466
     28 H          -0.0190   -0.8522   -1.1268 H       1  UNL1        0.0466
     29 H           0.9747   -1.6328   -4.1446 H       1  UNL1        0.0636
     30 H          -0.6014   -1.9833   -6.0266 H       1  UNL1        0.0618
     31 H          -2.4428   -0.3881   -6.4254 H       1  UNL1        0.0624
     32 H          -1.1509    1.9454   -3.0363 H       1  UNL1        0.0643
     33 H          -1.8257    3.1531   -6.2059 H       1  UNL1        0.0654
     34 H          -3.6984    4.7386   -6.5542 H       1  UNL1        0.0831
     35 H          -6.6236    0.2574   -2.8018 H       1  UNL1        0.0862
     36 H           2.7352    0.8079   -4.6595 H       1  UNL1        0.0323
     37 H           1.6407    2.2247   -4.4752 H       1  UNL1        0.0323
     38 H           3.3310    2.3322   -3.9808 H       1  UNL1        0.0323
@<TRIPOS>BOND
     1     1     2    1
     2     1    24    1
     3     1    25    1
     4     1    26    1
     5     2     3    1
     6     2    27    1
     7     2    28    1
     8     3     4    1
     9     3    21   am
    10     4     9   ar
    11     4     5   ar
    12     5     6   ar
    13     5    29    1
    14     6     7   ar
    15     6    30    1
    16     7     8   ar
    17     7    31    1
    18     8     9   ar
    19     8    10    1
    20     9    32    1
    21    10    15   ar
    22    10    11   ar
    23    11    12   ar
    24    11    33    1
    25    12    13   ar
    26    12    34    1
    27    13    14   ar
    28    14    18   ar
    29    14    15   ar
    30    15    16   ar
    31    16    17   ar
    32    17    18   ar
    33    17    35    1
    34    18    19    1
    35    19    20    3
    36    21    22    2
    37    21    23    1
    38    23    36    1
    39    23    37    1
    40    23    38    1
