@<TRIPOS>MOLECULE
ZINC00002282
 29 30 0 0 0
SMALL
GASTEIGER

@<TRIPOS>ATOM
      1 C           1.1138    1.0455    1.1066 C.3     1  UNL1       -0.0475
      2 C           0.5282    1.4954   -0.2312 C.3     1  UNL1        0.0890
      3 H           0.7745    2.5583   -0.3556 H       1  UNL1        0.0466
      4 C          -0.9779    1.3169   -0.2523 C.ar    1  UNL1        0.0041
      5 C          -1.7048    0.1437   -0.2480 C.ar    1  UNL1       -0.0501
      6 C          -3.1090    0.3735   -0.3072 C.ar    1  UNL1       -0.0435
      7 C          -3.4281    1.7208   -0.3138 C.ar    1  UNL1        0.0597
      8 S          -2.0109    2.6844   -0.2930 S.2     1  UNL1       -0.0891
      9 C          -4.7302    2.3766   -0.3577 C.2     1  UNL1        0.1997
     10 O          -4.9276    3.5101   -0.7950 O.2     1  UNL1       -0.2861
     11 C          -5.9308    1.6491    0.1532 C.ar    1  UNL1        0.0228
     12 C          -7.1626    1.8532   -0.4859 C.ar    1  UNL1       -0.0509
     13 C          -8.3076    1.1974   -0.0288 C.ar    1  UNL1       -0.0611
     14 C          -8.2298    0.3424    1.0706 C.ar    1  UNL1       -0.0617
     15 C          -7.0128    0.1552    1.7254 C.ar    1  UNL1       -0.0611
     16 C          -5.8669    0.8159    1.2761 C.ar    1  UNL1       -0.0509
     17 C           1.1626    0.7293   -1.4208 C.2     1  UNL1        0.3635
     18 O           1.3228    1.4139   -2.4744 O.co2   1  UNL1       -0.2457
     19 O           1.4690   -0.4817   -1.2124 O.co2   1  UNL1       -0.2457
     20 H           0.5814    1.5016    1.9484 H       1  UNL1        0.0241
     21 H           2.1672    1.3392    1.1758 H       1  UNL1        0.0241
     22 H           1.0682   -0.0412    1.2411 H       1  UNL1        0.0241
     23 H          -1.2323   -0.8335   -0.2393 H       1  UNL1        0.0626
     24 H          -3.8372   -0.4260   -0.3537 H       1  UNL1        0.0630
     25 H          -7.2301    2.5234   -1.3408 H       1  UNL1        0.0625
     26 H          -9.2592    1.3554   -0.5305 H       1  UNL1        0.0618
     27 H          -9.1196   -0.1723    1.4227 H       1  UNL1        0.0618
     28 H          -6.9542   -0.5016    2.5902 H       1  UNL1        0.0618
     29 H          -4.9347    0.6796    1.8191 H       1  UNL1        0.0625
@<TRIPOS>BOND
     1     1    20    1
     2     1    21    1
     3     1    22    1
     4     2     4    1
     5     2    17    1
     6     4     8   ar
     7     4     5   ar
     8     5     6   ar
     9     5    23    1
    10     6     7   ar
    11     6    24    1
    12     7     8   ar
    13     7     9    1
    14     9    10    2
    15     9    11    1
    16    11    16   ar
    17    11    12   ar
    18    12    13   ar
    19    12    25    1
    20    13    14   ar
    21    13    26    1
    22    14    15   ar
    23    14    27    1
    24    15    16   ar
    25    15    28    1
    26    16    29    1
    27    17    18   ar
    28    17    19   ar
    29     2     3    1
    30     2     1    1
