@<TRIPOS>MOLECULE
ZINC00005151
 48 50 0 0 0
SMALL
GASTEIGER

@<TRIPOS>ATOM
      1 C           2.1331   -3.0217   -1.3567 C.3     1  UNL1       -0.0605
      2 C           3.2570   -2.9017   -0.3418 C.3     1  UNL1       -0.0153
      3 C           2.8818   -2.8683    1.1401 C.3     1  UNL1       -0.0319
      4 C           0.6817   -1.5132    1.3116 C.3     1  UNL1       -0.0271
      5 C          -0.1697   -2.7586    1.5651 C.3     1  UNL1        0.0189
      6 C          -0.1167   -3.3295    2.9548 C.ar    1  UNL1       -0.0052
      7 C          -0.3687   -4.6419    3.3080 C.ar    1  UNL1       -0.0514
      8 C          -0.1652   -4.8812    4.6959 C.ar    1  UNL1       -0.0545
      9 C           0.1739   -3.7309    5.3725 C.ar    1  UNL1       -0.0241
     10 S           0.2132   -2.3738    4.3399 S.2     1  UNL1       -0.1014
     11 C           2.8851   -0.2509    1.3833 C.3     1  UNL1       -0.0165
     12 H           2.6865   -0.0192    0.3297 H       1  UNL1        0.0854
     13 C           4.3994   -0.2567    1.6359 C.3     1  UNL1       -0.0052
     14 C           5.0035    1.0966    1.1932 C.3     1  UNL1       -0.0189
     15 C           4.2092    2.3180    1.5995 C.ar    1  UNL1       -0.0024
     16 C           2.9141    2.1771    2.1310 C.ar    1  UNL1       -0.0354
     17 C           2.1651    3.3067    2.5090 C.ar    1  UNL1       -0.0579
     18 C           2.6606    4.5804    2.3103 C.ar    1  UNL1       -0.0580
     19 C           3.9244    4.7417    1.7464 C.ar    1  UNL1       -0.0199
     20 C           4.6853    3.6226    1.4019 C.ar    1  UNL1        0.1203
     21 O           5.8965    3.9126    0.8463 O.3     1  UNL1       -0.5065
     22 C           2.2839    0.8230    2.3167 C.3     1  UNL1        0.0159
     23 H           1.6134   -3.9808   -1.2684 H       1  UNL1        0.0232
     24 H           2.5538   -2.9688   -2.3678 H       1  UNL1        0.0232
     25 H           1.4050   -2.2165   -1.2815 H       1  UNL1        0.0232
     26 H           3.8961   -3.7850   -0.4838 H       1  UNL1        0.0314
     27 H           3.8788   -2.0423   -0.6034 H       1  UNL1        0.0314
     28 H           2.2696   -3.7337    1.4127 H       1  UNL1        0.0814
     29 H           3.7952   -2.9548    1.7409 H       1  UNL1        0.0814
     30 H           0.2720   -0.7200    1.9387 H       1  UNL1        0.0818
     31 H           0.6009   -1.1759    0.2772 H       1  UNL1        0.0818
     32 H          -1.2147   -2.4951    1.3501 H       1  UNL1        0.0370
     33 H           0.0941   -3.5379    0.8418 H       1  UNL1        0.0370
     34 H          -0.6681   -5.4085    2.6010 H       1  UNL1        0.0626
     35 H          -0.2704   -5.8476    5.1766 H       1  UNL1        0.0623
     36 H           0.3752   -3.6260    6.4307 H       1  UNL1        0.0693
     37 H           4.6069   -0.4188    2.7019 H       1  UNL1        0.0323
     38 H           4.9219   -1.0508    1.0932 H       1  UNL1        0.0323
     39 H           6.0202    1.1680    1.5973 H       1  UNL1        0.0316
     40 H           5.0804    1.0981    0.0982 H       1  UNL1        0.0316
     41 H           1.1752    3.1935    2.9473 H       1  UNL1        0.0620
     42 H           2.0743    5.4525    2.5862 H       1  UNL1        0.0619
     43 H           4.3167    5.7409    1.5773 H       1  UNL1        0.0654
     44 H           6.4025    3.1032    0.6775 H       1  UNL1        0.2921
     45 H           1.2218    0.9568    2.1195 H       1  UNL1        0.0368
     46 H           2.4056    0.5261    3.3659 H       1  UNL1        0.0368
     47 N           2.1821   -1.6163    1.6487 N.4     1  UNL1        0.2379
     48 H           2.1967   -1.7400    2.6737 H       1  UNL1        0.2036
@<TRIPOS>UNITY_ATOM_ATTR
47 1
charge 1
@<TRIPOS>BOND
     1     1     2    1
     2     1    23    1
     3     1    24    1
     4     1    25    1
     5     2     3    1
     6     2    26    1
     7     2    27    1
     8     3    28    1
     9     3    29    1
    10     4     5    1
    11     4    30    1
    12     4    31    1
    13     5     6    1
    14     5    32    1
    15     5    33    1
    16     6    10   ar
    17     6     7   ar
    18     7     8   ar
    19     7    34    1
    20     8     9   ar
    21     8    35    1
    22     9    10   ar
    23     9    36    1
    24    11    12    1
    25    11    22    1
    26    11    13    1
    27    11    47    1
    28    13    14    1
    29    13    37    1
    30    13    38    1
    31    14    15    1
    32    14    39    1
    33    14    40    1
    34    15    20   ar
    35    15    16   ar
    36    16    17   ar
    37    16    22    1
    38    17    18   ar
    39    17    41    1
    40    18    19   ar
    41    18    42    1
    42    19    20   ar
    43    19    43    1
    44    20    21    1
    45    21    44    1
    46    22    45    1
    47    22    46    1
    48    47    48    1
    49    47     4    1
    50    47     3    1
