@<TRIPOS>MOLECULE
ZINC03802417
 63 65 0 0 0
SMALL
GASTEIGER

@<TRIPOS>ATOM
      1 C          -1.0440   -0.2134    7.2916 C.3     1  UNL1       -0.0568
      2 C          -0.1218    0.2001    8.4572 C.3     1  UNL1        0.0059
      3 H          -0.5781   -0.2143    9.3676 H       1  UNL1        0.0358
      4 C           1.2560   -0.4926    8.3020 C.3     1  UNL1       -0.0284
      5 C           2.2475    1.5688    7.3543 C.3     1  UNL1       -0.0310
      6 C           0.9257    2.2855    7.4906 C.3     1  UNL1       -0.0027
      7 C           0.0325    1.7609    8.6382 C.3     1  UNL1        0.0052
      8 C           0.7471    2.0667    9.9971 C.3     1  UNL1       -0.0549
      9 C          -1.3086    2.5302    8.6823 C.ar    1  UNL1       -0.0374
     10 C          -1.5698    3.6451    7.8567 C.ar    1  UNL1       -0.0578
     11 C          -2.6935    4.4543    8.0461 C.ar    1  UNL1       -0.0580
     12 C          -3.5912    4.1685    9.0658 C.ar    1  UNL1       -0.0202
     13 C          -3.3700    3.0540    9.8646 C.ar    1  UNL1        0.1171
     14 C          -2.2599    2.2304    9.6722 C.ar    1  UNL1       -0.0165
     15 O          -4.2087    2.7508   10.8962 O.3     1  UNL1       -0.5068
     16 C           3.3266   -0.6558    6.8477 C.3     1  UNL1       -0.0202
     17 C           4.1695   -0.0184    5.7179 C.3     1  UNL1        0.0793
     18 H           4.3146    1.0395    5.9695 H       1  UNL1        0.0450
     19 C           3.4739    0.0258    4.3485 C.3     1  UNL1       -0.0116
     20 C           3.2189   -1.1937    3.4994 C.ar    1  UNL1       -0.0464
     21 C           2.3421   -1.0443    2.4036 C.ar    1  UNL1       -0.0585
     22 C           2.1385   -2.0781    1.4894 C.ar    1  UNL1       -0.0615
     23 C           2.8167   -3.2819    1.6518 C.ar    1  UNL1       -0.0617
     24 C           3.6855   -3.4466    2.7242 C.ar    1  UNL1       -0.0615
     25 C           3.8828   -2.4100    3.6442 C.ar    1  UNL1       -0.0585
     26 C           5.6029   -0.4927    5.8778 C.2     1  UNL1        0.2220
     27 O           6.0129   -0.7531    7.0115 O.2     1  UNL1       -0.2753
     28 N           6.4297   -0.4382    4.8057 N.am    1  UNL1       -0.3043
     29 C           7.8672   -0.7402    4.9294 C.3     1  UNL1        0.1132
     30 C           8.6100   -0.7908    3.5767 C.2     1  UNL1        0.3727
     31 O           7.8309   -0.7062    2.5726 O.co2   1  UNL1       -0.2446
     32 H          -2.0068   -0.5608    7.6837 H       1  UNL1        0.0234
     33 H          -0.6284   -1.0458    6.7120 H       1  UNL1        0.0234
     34 H          -1.2490    0.6029    6.5949 H       1  UNL1        0.0234
     35 H           1.8780   -0.3689    9.1962 H       1  UNL1        0.0817
     36 H           1.1413   -1.5661    8.1109 H       1  UNL1        0.0817
     37 H           2.7319    1.9902    6.4744 H       1  UNL1        0.0815
     38 H           2.9084    1.6776    8.2194 H       1  UNL1        0.0815
     39 H           0.4011    2.1966    6.5290 H       1  UNL1        0.0325
     40 H           1.1472    3.3512    7.6297 H       1  UNL1        0.0325
     41 H           0.8190    1.1764   10.6308 H       1  UNL1        0.0238
     42 H           1.7625    2.4511    9.8631 H       1  UNL1        0.0238
     43 H           0.2279    2.8296   10.5895 H       1  UNL1        0.0238
     44 H          -0.8929    3.9536    7.0642 H       1  UNL1        0.0620
     45 H          -2.8438    5.3269    7.4143 H       1  UNL1        0.0619
     46 H          -4.4393    4.8263    9.2260 H       1  UNL1        0.0654
     47 H          -2.1166    1.3963   10.3540 H       1  UNL1        0.0657
     48 H          -4.8667    3.4620   10.9779 H       1  UNL1        0.2921
     49 H           3.8526   -0.6743    7.8087 H       1  UNL1        0.0822
     50 H           3.0426   -1.6839    6.5961 H       1  UNL1        0.0822
     51 H           2.4840    0.4766    4.5133 H       1  UNL1        0.0322
     52 H           4.0090    0.7477    3.7173 H       1  UNL1        0.0322
     53 H           1.8416   -0.0943    2.2224 H       1  UNL1        0.0620
     54 H           1.4876   -1.9327    0.6310 H       1  UNL1        0.0618
     55 H           2.7004   -4.0739    0.9173 H       1  UNL1        0.0618
     56 H           4.2498   -4.3699    2.8261 H       1  UNL1        0.0618
     57 H           4.6143   -2.5788    4.4290 H       1  UNL1        0.0620
     58 H           6.1387   -0.3843    3.8277 H       1  UNL1        0.1493
     59 H           8.3094    0.0359    5.5632 H       1  UNL1        0.0579
     60 H           7.9715   -1.7049    5.4379 H       1  UNL1        0.0579
     61 N           2.0153    0.1023    7.1279 N.4     1  UNL1        0.2360
     62 H           1.4286   -0.0248    6.2935 H       1  UNL1        0.2034
     63 O           9.8602   -0.8994    3.6376 O.co2   1  UNL1       -0.2446
@<TRIPOS>UNITY_ATOM_ATTR
61 1
charge 1
@<TRIPOS>BOND
     1     1     2    1
     2     1    32    1
     3     1    33    1
     4     1    34    1
     5     2     3    1
     6     2     7    1
     7     2     4    1
     8     4    35    1
     9     4    36    1
    10     4    61    1
    11     5     6    1
    12     5    37    1
    13     5    38    1
    14     5    61    1
    15     6     7    1
    16     6    39    1
    17     6    40    1
    18     8    41    1
    19     8    42    1
    20     8    43    1
    21     9    14   ar
    22     9    10   ar
    23    10    11   ar
    24    10    44    1
    25    11    12   ar
    26    11    45    1
    27    12    13   ar
    28    12    46    1
    29    13    14   ar
    30    13    15    1
    31    14    47    1
    32    15    48    1
    33    16    49    1
    34    16    50    1
    35    17    19    1
    36    17    26    1
    37    19    20    1
    38    19    51    1
    39    19    52    1
    40    20    25   ar
    41    20    21   ar
    42    21    22   ar
    43    21    53    1
    44    22    23   ar
    45    22    54    1
    46    23    24   ar
    47    23    55    1
    48    24    25   ar
    49    24    56    1
    50    25    57    1
    51    26    27    2
    52    26    28   am
    53    28    29    1
    54    28    58    1
    55    29    30    1
    56    29    59    1
    57    29    60    1
    58    30    31   ar
    59    30    63   ar
    60     7     9    1
    61     7     8    1
    62    17    18    1
    63    17    16    1
    64    61    62    1
    65    61    16    1
