@<TRIPOS>MOLECULE
ZINC00016827
 30 32 0 0 0
SMALL
GASTEIGER

@<TRIPOS>ATOM
      1 C          -1.2227    1.1961    0.4003 C.2     1  UNL1       -0.0616
      2 C           0.2973    1.1961    0.4003 C.2     1  UNL1       -0.0633
      3 C           0.9775    2.2945    0.8264 C.2     1  UNL1       -0.0538
      4 C           2.4975    2.2945    0.8264 C.3     1  UNL1        0.1069
      5 C           3.2213    3.1012    1.5876 C.2     1  UNL1        0.0033
      6 C           3.1610    4.6006    1.3453 C.2     1  UNL1       -0.0544
      7 C           3.9969    2.6337    2.5552 C.2     1  UNL1        0.0349
      8 C           4.0726    1.3264    2.7915 C.2     1  UNL1       -0.0097
      9 C           3.3262    0.4512    2.0154 C.2     1  UNL1        0.0098
     10 C           3.3666   -1.0352    2.2376 C.3     1  UNL1       -0.0145
     11 C           4.6315   -1.4239    3.0046 C.3     1  UNL1       -0.0476
     12 C           4.7471   -0.5366    4.2507 C.3     1  UNL1       -0.0486
     13 C           4.8963    0.8552    3.8030 C.3     1  UNL1       -0.0245
     14 N           4.7809    3.5684    3.3754 N.pl3   1  UNL1       -0.3574
     15 H          -1.7577    2.0600    0.7354 H       1  UNL1        0.0618
     16 H          -0.7727    1.1961    0.4003 H       1  UNL1        0.0615
     17 H           0.4425    3.1584    1.1615 H       1  UNL1        0.0597
     18 H           2.5392    4.9922    0.5676 H       1  UNL1        0.0622
     19 H           3.3701   -1.5288    1.2882 H       1  UNL1        0.0326
     20 H           2.5069   -1.3311    2.8018 H       1  UNL1        0.0326
     21 H           5.4905   -1.2884    2.3812 H       1  UNL1        0.0269
     22 H           4.5722   -2.4509    3.2989 H       1  UNL1        0.0269
     23 H           3.8757   -0.6394    4.8631 H       1  UNL1        0.0269
     24 H           5.6015   -0.8270    4.8256 H       1  UNL1        0.0269
     25 H           4.6106    1.4325    4.6574 H       1  UNL1        0.0314
     26 H           5.9051    0.9699    3.4653 H       1  UNL1        0.0314
     27 H           4.7265    4.5714    3.1984 H       1  UNL1        0.1423
     28 H           5.3794    3.2138    4.1214 H       1  UNL1        0.1423
     29 N           2.5243    0.9772    1.0089 N.pl3   1  UNL1       -0.3318
     30 H           1.9644    0.3617    0.4189 H       1  UNL1        0.1470
@<TRIPOS>BOND
     1     1     6    2
     2     1     2    1
     3     1    15    1
     4     2     3    2
     5     2    16    1
     6     3     4    1
     7     3    17    1
     8     4     5    1
     9     4    29    1
    10     5     6    1
    11     5     7    2
    12     6    18    1
    13     7     8    1
    14     7    14    1
    15     8    13    1
    16     8     9    2
    17     9    10    1
    18     9    29    1
    19    10    11    1
    20    10    19    1
    21    10    20    1
    22    11    12    1
    23    11    21    1
    24    11    22    1
    25    12    13    1
    26    12    23    1
    27    12    24    1
    28    13    25    1
    29    13    26    1
    30    14    27    1
    31    14    28    1
    32    29    30    1
