@<TRIPOS>MOLECULE
ZINC01530861
 50 51 0 0 0
SMALL
GASTEIGER

@<TRIPOS>ATOM
      1 C           1.4404    1.7369    5.2724 C.3     1  UNL1       -0.0245
      2 C           0.8654    3.1407    5.2538 C.3     1  UNL1       -0.0348
      3 N          -0.2565    3.2928    4.2482 N.4     1  UNL1        0.2348
      4 C          -1.4274    2.3387    4.4400 C.3     1  UNL1       -0.0348
      5 C          -2.1286    2.5315    5.7748 C.3     1  UNL1       -0.0245
      6 C          -0.7305    4.7264    4.0886 C.3     1  UNL1       -0.0319
      7 C           0.3430    5.6769    3.5512 C.3     1  UNL1       -0.0109
      8 C           1.0163    5.3117    2.2200 C.3     1  UNL1       -0.0300
      9 C           0.1386    5.2821    0.9522 C.3     1  UNL1        0.0180
     10 H           0.7622    5.0627    0.0791 H       1  UNL1        0.0495
     11 C          -0.5082    6.6500    0.6919 C.3     1  UNL1       -0.0467
     12 N          -0.9245    4.2910    1.0500 N.pl3   1  UNL1       -0.3409
     13 C          -0.9554    2.9323    0.7402 C.2     1  UNL1        0.0342
     14 C          -2.3129    2.4616    0.4005 C.2     1  UNL1       -0.0270
     15 C          -2.5891    1.1547    0.3000 C.2     1  UNL1       -0.0079
     16 N          -1.6432    0.2055    0.5598 N.pl3   1  UNL1       -0.3345
     17 C          -0.3287    0.5565    0.7309 C.3     1  UNL1        0.1080
     18 C           0.0485    2.0042    0.7308 C.2     1  UNL1        0.0033
     19 C           1.4854    2.2721    0.7011 C.2     1  UNL1       -0.0530
     20 C           2.3667    1.2807    0.9420 C.2     1  UNL1       -0.0432
     21 C           1.9282   -0.0576    1.3094 C.2     1  UNL1        0.0395
     22 C           0.6438   -0.4311    1.1765 C.2     1  UNL1       -0.0355
     23 CL          3.0997   -1.1409    1.9574 Cl      1  UNL1       -0.0838
     24 H           0.7186    0.9973    5.6290 H       1  UNL1        0.0281
     25 H           2.2969    1.7021    5.9553 H       1  UNL1        0.0281
     26 H           1.7913    1.4388    4.2805 H       1  UNL1        0.0281
     27 H           0.4877    3.4401    6.2360 H       1  UNL1        0.0812
     28 H           1.6619    3.8296    4.9628 H       1  UNL1        0.0812
     29 H          -2.1237    2.5110    3.6131 H       1  UNL1        0.0812
     30 H          -1.0436    1.3199    4.3354 H       1  UNL1        0.0812
     31 H          -2.5771    3.5261    5.8571 H       1  UNL1        0.0281
     32 H          -2.9379    1.8010    5.8767 H       1  UNL1        0.0281
     33 H          -1.4535    2.3859    6.6227 H       1  UNL1        0.0281
     34 H          -1.6077    4.7182    3.4360 H       1  UNL1        0.0814
     35 H          -1.0552    5.0671    5.0779 H       1  UNL1        0.0814
     36 H          -0.0969    6.6779    3.4758 H       1  UNL1        0.0317
     37 H           1.1320    5.7861    4.3056 H       1  UNL1        0.0317
     38 H           1.8085    6.0548    2.0484 H       1  UNL1        0.0285
     39 H           1.5420    4.3627    2.3468 H       1  UNL1        0.0285
     40 H          -1.1559    6.6095   -0.1920 H       1  UNL1        0.0247
     41 H          -1.1402    6.9708    1.5274 H       1  UNL1        0.0247
     42 H           0.2514    7.4186    0.5184 H       1  UNL1        0.0247
     43 H          -1.8321    4.7187    0.8427 H       1  UNL1        0.1463
     44 H          -3.0749    3.1829    0.1224 H       1  UNL1        0.0648
     45 H          -3.5567    0.7822   -0.0245 H       1  UNL1        0.0779
     46 H           1.8477    3.2208    0.3303 H       1  UNL1        0.0622
     47 H           3.4327    1.4438    0.8052 H       1  UNL1        0.0632
     48 H           0.3007   -1.4165    1.4729 H       1  UNL1        0.0612
     49 H           0.1158    3.0308    3.3226 H       1  UNL1        0.2033
     50 H          -1.8514   -0.7619    0.3321 H       1  UNL1        0.1468
@<TRIPOS>UNITY_ATOM_ATTR
3 1
charge 1
@<TRIPOS>BOND
     1     1     2    1
     2     1    24    1
     3     1    25    1
     4     1    26    1
     5     2     3    1
     6     2    27    1
     7     2    28    1
     8     3     4    1
     9     3     6    1
    10     3    49    1
    11     4     5    1
    12     4    29    1
    13     4    30    1
    14     5    31    1
    15     5    32    1
    16     5    33    1
    17     6     7    1
    18     6    34    1
    19     6    35    1
    20     7     8    1
    21     7    36    1
    22     7    37    1
    23     8    38    1
    24     8    39    1
    25     9    11    1
    26     9    12    1
    27    11    40    1
    28    11    41    1
    29    11    42    1
    30    12    13    1
    31    12    43    1
    32    13    18    2
    33    13    14    1
    34    14    15    2
    35    14    44    1
    36    15    16    1
    37    15    45    1
    38    16    17    1
    39    16    50    1
    40    17    22    1
    41    17    18    1
    42    18    19    1
    43    19    20    2
    44    19    46    1
    45    20    21    1
    46    20    47    1
    47    21    22    2
    48    21    23    1
    49    22    48    1
    50     9    10    1
    51     9     8    1
