@<TRIPOS>MOLECULE
ZINC03813088
 58 58 0 0 0
SMALL
GASTEIGER

@<TRIPOS>ATOM
      1 C          -1.3579    3.4880   -1.1749 C.3     1  UNL1       -0.0653
      2 C          -1.7239    2.2723   -0.3377 C.3     1  UNL1       -0.0559
      3 C          -1.2055    2.4085    1.0942 C.3     1  UNL1       -0.0532
      4 C          -1.5850    1.2356    1.9992 C.3     1  UNL1       -0.0504
      5 C          -1.0345   -0.1223    1.5434 C.3     1  UNL1       -0.0232
      6 C          -1.4123   -1.2523    2.5097 C.3     1  UNL1        0.0734
      7 H          -0.9869   -1.0451    3.4990 H       1  UNL1        0.0637
      8 C          -2.8999   -1.4378    2.5764 C.2     1  UNL1       -0.0595
      9 C          -3.6174   -1.3006    3.6994 C.2     1  UNL1       -0.0793
     10 C          -5.1244   -1.3539    3.7518 C.3     1  UNL1        0.0131
     11 H          -5.5142   -1.5148    2.7362 H       1  UNL1        0.0375
     12 C          -5.6153   -2.4958    4.6570 C.3     1  UNL1        0.0688
     13 H          -4.9647   -2.6226    5.5312 H       1  UNL1        0.0603
     14 C          -7.0074   -2.0833    5.0944 C.3     1  UNL1        0.0327
     15 C          -6.8605   -0.5932    5.1880 C.2     1  UNL1        0.1395
     16 O          -7.5859    0.0974    5.8940 O.2     1  UNL1       -0.2970
     17 C          -5.7171   -0.0521    4.3499 C.3     1  UNL1        0.0262
     18 H          -5.0072    0.4315    5.0321 H       1  UNL1        0.0384
     19 C          -6.1384    0.9121    3.2283 C.3     1  UNL1       -0.0429
     20 C          -6.7422    2.2383    3.7080 C.3     1  UNL1       -0.0524
     21 C          -7.0476    3.1712    2.5275 C.3     1  UNL1       -0.0530
     22 C          -7.6766    4.4936    2.9841 C.3     1  UNL1       -0.0526
     23 C          -7.9775    5.3973    1.7850 C.3     1  UNL1       -0.0428
     24 C          -8.6130    6.7217    2.1916 C.3     1  UNL1        0.0492
     25 C          -8.9138    7.6574    1.0039 C.2     1  UNL1        0.3560
     26 O          -9.4471    8.7559    1.3407 O.co2   1  UNL1       -0.2464
     27 O          -8.6042    7.2389   -0.1406 O.co2   1  UNL1       -0.2464
     28 O          -5.6557   -3.7377    3.9622 O.3     1  UNL1       -0.3908
     29 O          -0.8480   -2.4717    2.0489 O.3     1  UNL1       -0.3878
     30 H          -1.8103    4.3978   -0.7679 H       1  UNL1        0.0230
     31 H          -1.7128    3.3610   -2.2024 H       1  UNL1        0.0230
     32 H          -0.2724    3.6269   -1.2059 H       1  UNL1        0.0230
     33 H          -2.8135    2.1497   -0.3325 H       1  UNL1        0.0263
     34 H          -1.2973    1.3849   -0.8158 H       1  UNL1        0.0263
     35 H          -0.1161    2.5285    1.0877 H       1  UNL1        0.0265
     36 H          -1.6218    3.3228    1.5367 H       1  UNL1        0.0265
     37 H          -1.2120    1.4461    3.0095 H       1  UNL1        0.0266
     38 H          -2.6778    1.1964    2.0710 H       1  UNL1        0.0266
     39 H          -1.4031   -0.3740    0.5414 H       1  UNL1        0.0293
     40 H           0.0582   -0.0741    1.4529 H       1  UNL1        0.0293
     41 H          -3.3993   -1.6276    1.6275 H       1  UNL1        0.0594
     42 H          -3.1013   -1.1037    4.6393 H       1  UNL1        0.0574
     43 H          -7.2630   -2.5223    6.0621 H       1  UNL1        0.0367
     44 H          -7.7756   -2.3366    4.3586 H       1  UNL1        0.0367
     45 H          -5.2540    1.1361    2.6173 H       1  UNL1        0.0272
     46 H          -6.8612    0.4182    2.5663 H       1  UNL1        0.0272
     47 H          -7.6723    2.0479    4.2533 H       1  UNL1        0.0265
     48 H          -6.0491    2.7338    4.3973 H       1  UNL1        0.0265
     49 H          -6.1235    3.3793    1.9739 H       1  UNL1        0.0265
     50 H          -7.7304    2.6680    1.8310 H       1  UNL1        0.0265
     51 H          -8.6037    4.2906    3.5334 H       1  UNL1        0.0265
     52 H          -6.9956    5.0082    3.6725 H       1  UNL1        0.0265
     53 H          -7.0473    5.5932    1.2377 H       1  UNL1        0.0270
     54 H          -8.6488    4.8713    1.0949 H       1  UNL1        0.0270
     55 H          -9.5576    6.5377    2.7180 H       1  UNL1        0.0379
     56 H          -7.9525    7.2602    2.8810 H       1  UNL1        0.0379
     57 H          -6.1489   -3.6160    3.1304 H       1  UNL1        0.2098
     58 H          -1.1393   -3.1619    2.6707 H       1  UNL1        0.2102
@<TRIPOS>BOND
     1     1     2    1
     2     1    30    1
     3     1    31    1
     4     1    32    1
     5     2     3    1
     6     2    33    1
     7     2    34    1
     8     3     4    1
     9     3    35    1
    10     3    36    1
    11     4     5    1
    12     4    37    1
    13     4    38    1
    14     5     6    1
    15     5    39    1
    16     5    40    1
    17     6     7    1
    18     6     8    1
    19     6    29    1
    20     8     9    2
    21     8    41    1
    22     9    10    1
    23     9    42    1
    24    10    11    1
    25    10    17    1
    26    10    12    1
    27    12    14    1
    28    14    15    1
    29    14    43    1
    30    14    44    1
    31    15    16    2
    32    15    17    1
    33    17    18    1
    34    17    19    1
    35    19    20    1
    36    19    45    1
    37    19    46    1
    38    20    21    1
    39    20    47    1
    40    20    48    1
    41    21    22    1
    42    21    49    1
    43    21    50    1
    44    22    23    1
    45    22    51    1
    46    22    52    1
    47    23    24    1
    48    23    53    1
    49    23    54    1
    50    24    25    1
    51    24    55    1
    52    24    56    1
    53    25    26   ar
    54    25    27   ar
    55    28    57    1
    56    29    58    1
    57    12    28    1
    58    12    13    1
