@<TRIPOS>MOLECULE
ZINC03830280
 62 64 0 0 0
SMALL
GASTEIGER

@<TRIPOS>ATOM
      1 C           0.1769   -0.4990   -0.0487 C.3     1  UNL1       -0.0493
      2 C           0.4836   -1.8092    0.6672 C.3     1  UNL1        0.0118
      3 N           1.0158   -1.6213    2.0272 N.am    1  UNL1       -0.3015
      4 C           0.0347   -1.5522    3.1206 C.3     1  UNL1        0.0118
      5 C          -0.2562   -2.9146    3.7431 C.3     1  UNL1       -0.0493
      6 C           2.3950   -1.6476    2.1931 C.2     1  UNL1        0.2273
      7 O           3.1781   -1.8518    1.2679 O.2     1  UNL1       -0.2750
      8 C           2.9606   -1.5393    3.5960 C.3     1  UNL1        0.1125
      9 H           2.1633   -1.4716    4.3226 H       1  UNL1        0.0484
     10 C           3.6868   -2.8407    3.8369 C.3     1  UNL1       -0.0165
     11 C           5.0199   -4.1806    5.4302 C.3     1  UNL1       -0.0272
     12 C           5.3059   -4.3465    6.9122 C.3     1  UNL1        0.0133
     13 C           5.8187   -3.0866    7.5642 C.ar    1  UNL1       -0.0302
     14 C           6.2890   -3.1918    8.8856 C.ar    1  UNL1       -0.0125
     15 C           6.7412   -2.0756    9.5934 C.ar    1  UNL1        0.1618
     16 C           6.7376   -0.8292    8.9510 C.ar    1  UNL1        0.1620
     17 C           6.2723   -0.7271    7.6256 C.ar    1  UNL1       -0.0075
     18 C           5.7760   -1.8338    6.9215 C.ar    1  UNL1        0.0073
     19 C           5.2460   -1.7106    5.4976 C.3     1  UNL1        0.0088
     20 H           6.0813   -1.8062    4.8000 H       1  UNL1        0.0905
     21 C           4.5162   -0.4019    5.2095 C.3     1  UNL1        0.0328
     22 C           3.8794   -0.3417    3.8032 C.3     1  UNL1        0.1245
     23 H           4.6827   -0.3226    3.0572 H       1  UNL1        0.0745
     24 O           3.1077    0.8925    3.7096 O.3     1  UNL1       -0.4603
     25 C           2.1238    1.0708    4.6202 C.2     1  UNL1        0.3042
     26 O           1.8133    0.2456    5.5016 O.2     1  UNL1       -0.2512
     27 C           1.3643    2.3260    4.4488 C.3     1  UNL1        0.0332
     28 O           7.1353    0.3852    9.4491 O.3     1  UNL1       -0.4914
     29 C           7.6184    0.4493   10.7855 C.3     1  UNL1        0.0790
     30 O           7.1837   -2.1432   10.8831 O.3     1  UNL1       -0.4914
     31 C           7.1922   -3.3959   11.5524 C.3     1  UNL1        0.0790
     32 H          -0.4976    0.1275    0.5419 H       1  UNL1        0.0245
     33 H          -0.3024   -0.6967   -1.0129 H       1  UNL1        0.0245
     34 H           1.0903    0.0735   -0.2447 H       1  UNL1        0.0245
     35 H          -0.4305   -2.4127    0.7215 H       1  UNL1        0.0462
     36 H           1.2073   -2.3781    0.0777 H       1  UNL1        0.0462
     37 H           0.3940   -0.8587    3.8807 H       1  UNL1        0.0462
     38 H          -0.8954   -1.1140    2.7469 H       1  UNL1        0.0462
     39 H           0.6009   -3.3524    4.2563 H       1  UNL1        0.0245
     40 H          -1.0578   -2.8249    4.4865 H       1  UNL1        0.0245
     41 H          -0.5728   -3.6294    2.9752 H       1  UNL1        0.0245
     42 H           2.9830   -3.6793    3.7932 H       1  UNL1        0.0823
     43 H           4.4887   -3.0150    3.1187 H       1  UNL1        0.0823
     44 H           4.3768   -4.9926    5.0747 H       1  UNL1        0.0818
     45 H           5.9365   -4.1598    4.8287 H       1  UNL1        0.0818
     46 H           4.3805   -4.6410    7.4238 H       1  UNL1        0.0365
     47 H           6.0298   -5.1594    7.0439 H       1  UNL1        0.0365
     48 H           6.2822   -4.1739    9.3522 H       1  UNL1        0.0658
     49 H           6.3060    0.2620    7.1706 H       1  UNL1        0.0660
     50 H           5.1636    0.4752    5.3179 H       1  UNL1        0.0360
     51 H           3.7576   -0.2610    5.9774 H       1  UNL1        0.0360
     52 H           2.0256    3.1142    4.0826 H       1  UNL1        0.0342
     53 H           0.5358    2.1576    3.7657 H       1  UNL1        0.0342
     54 H           0.9827    2.6365    5.4268 H       1  UNL1        0.0342
     55 H           6.8394    0.1679   11.5020 H       1  UNL1        0.0660
     56 H           8.5274   -0.1487   10.9060 H       1  UNL1        0.0660
     57 H           7.8873    1.4884   10.9952 H       1  UNL1        0.0660
     58 H           6.1778   -3.7955   11.6523 H       1  UNL1        0.0660
     59 H           7.8542   -4.1071   11.0486 H       1  UNL1        0.0660
     60 H           7.5860   -3.2291   12.5593 H       1  UNL1        0.0660
     61 N           4.2972   -2.8678    5.2054 N.4     1  UNL1        0.2416
     62 H           3.5411   -2.8093    5.9038 H       1  UNL1        0.2040
@<TRIPOS>UNITY_ATOM_ATTR
61 1
charge 1
@<TRIPOS>BOND
     1     1     2    1
     2     1    32    1
     3     1    33    1
     4     1    34    1
     5     2     3    1
     6     2    35    1
     7     2    36    1
     8     3     4    1
     9     3     6   am
    10     4     5    1
    11     4    37    1
    12     4    38    1
    13     5    39    1
    14     5    40    1
    15     5    41    1
    16     6     7    2
    17     6     8    1
    18     8     9    1
    19     8    22    1
    20     8    10    1
    21    10    42    1
    22    10    43    1
    23    10    61    1
    24    11    12    1
    25    11    44    1
    26    11    45    1
    27    11    61    1
    28    12    13    1
    29    12    46    1
    30    12    47    1
    31    13    18   ar
    32    13    14   ar
    33    14    15   ar
    34    14    48    1
    35    15    16   ar
    36    15    30    1
    37    16    17   ar
    38    16    28    1
    39    17    18   ar
    40    17    49    1
    41    18    19    1
    42    19    20    1
    43    19    21    1
    44    19    61    1
    45    21    22    1
    46    21    50    1
    47    21    51    1
    48    22    23    1
    49    22    24    1
    50    24    25    1
    51    25    26    2
    52    25    27    1
    53    27    52    1
    54    27    53    1
    55    27    54    1
    56    28    29    1
    57    29    55    1
    58    29    56    1
    59    29    57    1
    60    30    31    1
    61    31    58    1
    62    31    59    1
    63    31    60    1
    64    61    62    1
