@<TRIPOS>MOLECULE
ZINC03826253
 53 57 0 0 0
SMALL
GASTEIGER

@<TRIPOS>ATOM
      1 C           1.1275    0.2238    0.0421 C.3     1  UNL1        0.0790
      2 O           0.5155   -0.9230    0.5937 O.3     1  UNL1       -0.4911
      3 C           1.0284   -1.8039    1.5148 C.ar    1  UNL1        0.1679
      4 C           0.0140   -2.3896    2.3311 C.ar    1  UNL1        0.0973
      5 C           0.3678   -3.5321    3.0985 C.ar    1  UNL1        0.0524
      6 C           1.6722   -4.0348    3.1105 C.ar    1  UNL1       -0.0116
      7 C           2.6515   -3.3735    2.4125 C.ar    1  UNL1        0.1487
      8 C           2.3855   -2.2375    1.6009 C.ar    1  UNL1        0.1099
      9 N           3.4714   -1.6067    1.0370 N.pl3   1  UNL1       -0.3190
     10 C           4.8233   -1.8406    1.4769 C.3     1  UNL1        0.0206
     11 C           5.6149   -0.7892    0.6942 C.3     1  UNL1        0.0193
     12 H           6.6412   -1.1186    0.5365 H       1  UNL1        0.0371
     13 C           5.6036    0.5424    1.4553 C.3     1  UNL1       -0.0388
     14 C           6.0392    1.6871    0.5543 C.3     1  UNL1       -0.0121
     15 C           5.1542    1.7895   -0.6750 C.3     1  UNL1       -0.0333
     16 N           5.1824    0.4911   -1.4166 N.4     1  UNL1        0.2305
     17 C           4.8965   -0.7622   -0.6360 C.3     1  UNL1       -0.0023
     18 H           5.1150   -1.6032   -1.2748 H       1  UNL1        0.0869
     19 C           3.4335   -0.8725   -0.2246 C.3     1  UNL1        0.0555
     20 F           3.8975   -3.8705    2.5192 F       1  UNL1       -0.2034
     21 C          -0.6266   -4.2551    3.9306 C.ar    1  UNL1        0.2037
     22 O          -0.2305   -5.2196    4.5848 O.2     1  UNL1       -0.2863
     23 C          -2.0066   -3.7561    3.9303 C.ar    1  UNL1        0.1263
     24 C          -2.2446   -2.6463    3.2052 C.ar    1  UNL1        0.0234
     25 N          -1.3468   -1.8973    2.4646 N.ar    1  UNL1       -0.3397
     26 C          -1.8642   -0.5654    1.9855 C.3     1  UNL1        0.0348
     27 C          -2.8513    0.3128    2.7668 C.3     1  UNL1       -0.0302
     28 C          -1.4148    0.7277    2.5974 C.3     1  UNL1       -0.0302
     29 C          -3.1628   -4.3651    4.7240 C.2     1  UNL1        0.3916
     30 O          -3.0445   -5.5979    5.0569 O.co2   1  UNL1       -0.2404
     31 O          -4.1334   -3.6067    4.9375 O.co2   1  UNL1       -0.2404
     32 H           0.3670    0.9693   -0.1267 H       1  UNL1        0.0660
     33 H           1.4919    0.0096   -0.9802 H       1  UNL1        0.0660
     34 H           1.7985    0.7572    0.7040 H       1  UNL1        0.0660
     35 H           1.9332   -4.9139    3.6995 H       1  UNL1        0.0654
     36 H           5.1366   -2.8445    1.1587 H       1  UNL1        0.0468
     37 H           4.9364   -1.7432    2.5520 H       1  UNL1        0.0468
     38 H           6.2668    0.4693    2.3250 H       1  UNL1        0.0272
     39 H           4.6029    0.7632    1.8523 H       1  UNL1        0.0272
     40 H           7.0820    1.5350    0.2536 H       1  UNL1        0.0317
     41 H           5.9948    2.6264    1.1144 H       1  UNL1        0.0317
     42 H           4.1123    2.0098   -0.4267 H       1  UNL1        0.0814
     43 H           5.5205    2.5539   -1.3667 H       1  UNL1        0.0814
     44 H           4.5620    0.5575   -2.2369 H       1  UNL1        0.2017
     45 H           3.1826    0.1195   -0.0563 H       1  UNL1        0.0520
     46 H           2.8041   -1.3605   -0.9868 H       1  UNL1        0.0520
     47 H          -3.2528   -2.2531    3.1989 H       1  UNL1        0.0819
     48 H          -2.0947   -0.5734    0.9228 H       1  UNL1        0.0528
     49 H          -3.5880    0.8963    2.2164 H       1  UNL1        0.0286
     50 H          -3.2845   -0.0908    3.6787 H       1  UNL1        0.0286
     51 H          -0.6744    0.6404    3.3830 H       1  UNL1        0.0286
     52 H          -1.2214    1.5556    1.9277 H       1  UNL1        0.0286
     53 H           6.1260    0.3638   -1.8025 H       1  UNL1        0.2017
@<TRIPOS>UNITY_ATOM_ATTR
16 1
charge 1
@<TRIPOS>BOND
     1     1     2    1
     2     1    32    1
     3     1    33    1
     4     1    34    1
     5     2     3    1
     6     3     8   ar
     7     3     4   ar
     8     4    25   ar
     9     4     5   ar
    10     5     6   ar
    11     5    21   ar
    12     6     7   ar
    13     6    35    1
    14     7     8   ar
    15     7    20    1
    16     8     9    1
    17     9    19    1
    18     9    10    1
    19    10    11    1
    20    10    36    1
    21    10    37    1
    22    11    12    1
    23    11    17    1
    24    11    13    1
    25    13    14    1
    26    13    38    1
    27    13    39    1
    28    14    15    1
    29    14    40    1
    30    14    41    1
    31    15    16    1
    32    15    42    1
    33    15    43    1
    34    16    17    1
    35    16    44    1
    36    16    53    1
    37    17    18    1
    38    17    19    1
    39    19    45    1
    40    19    46    1
    41    21    22    2
    42    21    23   ar
    43    23    24   ar
    44    23    29    1
    45    24    25   ar
    46    24    47    1
    47    25    26    1
    48    26    28    1
    49    26    27    1
    50    26    48    1
    51    27    28    1
    52    27    49    1
    53    27    50    1
    54    28    51    1
    55    28    52    1
    56    29    30   ar
    57    29    31   ar
