@<TRIPOS>MOLECULE
ZINC00001673
 37 37 0 0 0
SMALL
GASTEIGER

@<TRIPOS>ATOM
      1 C           1.3927   -0.2295   -0.1690 C.ar    1  UNL1       -0.0566
      2 C           0.8387    1.0540   -0.0877 C.ar    1  UNL1       -0.0404
      3 C          -0.5333    1.2573    0.1195 C.ar    1  UNL1        0.0298
      4 C          -1.3304    0.1108    0.2364 C.ar    1  UNL1       -0.0404
      5 C          -0.7885   -1.1762    0.1574 C.ar    1  UNL1       -0.0566
      6 C           0.5830   -1.3585   -0.0342 C.ar    1  UNL1       -0.0414
      7 C           1.1689   -2.7468   -0.0350 C.3     1  UNL1        0.0261
      8 CA          2.1255   -3.0045    1.1328 C.3     1  UNL1        0.0826
      9 HA          2.9998   -2.3471    1.1244 H       1  UNL1        0.0973
     10 C           1.3419   -2.9280    2.4753 C.2     1  UNL1        0.4029
     11 O           0.8490   -4.0753    2.7405 O.co2   1  UNL1       -0.2400
     12 N          -1.1074    2.5250    0.1833 N.pl3   1  UNL1       -0.3276
     13 C          -0.4826    3.6634   -0.5137 C.3     1  UNL1        0.0257
     14 C          -0.4949    3.4485   -2.0310 C.3     1  UNL1        0.0383
     15 CL          0.1270    4.8827   -2.8852 Cl      1  UNL1       -0.1238
     16 C          -2.0052    2.8308    1.3181 C.3     1  UNL1        0.0257
     17 C          -1.3528    2.7419    2.7036 C.3     1  UNL1        0.0383
     18 CL         -0.0537    3.9445    2.9233 Cl      1  UNL1       -0.1238
     19 H           2.4672   -0.3228   -0.3036 H       1  UNL1        0.0621
     20 H           1.5221    1.8963   -0.1472 H       1  UNL1        0.0636
     21 H          -2.4043    0.2011    0.3724 H       1  UNL1        0.0636
     22 H          -1.4540   -2.0293    0.2703 H       1  UNL1        0.0621
     23 H           0.3572   -3.4868   -0.0274 H       1  UNL1        0.0374
     24 H           1.6919   -2.8946   -0.9894 H       1  UNL1        0.0374
     25 H1          1.8438   -5.0008    1.2986 H       1  UNL1        0.2003
     26 H2          3.0223   -4.7006    0.0855 H       1  UNL1        0.2003
     27 H          -1.0525    4.5768   -0.3002 H       1  UNL1        0.0475
     28 H           0.5324    3.8504   -0.1450 H       1  UNL1        0.0475
     29 H           0.1282    2.6010   -2.3298 H       1  UNL1        0.0445
     30 H          -1.5122    3.2599   -2.3892 H       1  UNL1        0.0445
     31 H          -2.4334    3.8328    1.1904 H       1  UNL1        0.0475
     32 H          -2.8700    2.1574    1.2937 H       1  UNL1        0.0475
     33 H          -2.1047    2.9515    3.4708 H       1  UNL1        0.0445
     34 H          -0.9374    1.7497    2.9029 H       1  UNL1        0.0445
     35 OXT         1.4655   -1.8890    3.1531 O.co2   1  UNL1       -0.2400
     36 N           2.6634   -4.4269    0.9972 N.4     1  UNL1        0.2291
     37 H3          3.3322   -4.5855    1.7563 H       1  UNL1        0.2003
@<TRIPOS>UNITY_ATOM_ATTR
36 1
charge 1
@<TRIPOS>BOND
     1     1     6   ar
     2     1     2   ar
     3     1    19    1
     4     2     3   ar
     5     2    20    1
     6     3     4   ar
     7     3    12    1
     8     4     5   ar
     9     4    21    1
    10     5     6   ar
    11     5    22    1
    12     6     7    1
    13     7     8    1
    14     7    23    1
    15     7    24    1
    16     8     9    1
    17     8    10    1
    18     8    36    1
    19    10    11   ar
    20    10    35   ar
    21    12    13    1
    22    12    16    1
    23    13    14    1
    24    13    27    1
    25    13    28    1
    26    14    15    1
    27    14    29    1
    28    14    30    1
    29    16    17    1
    30    16    31    1
    31    16    32    1
    32    17    18    1
    33    17    33    1
    34    17    34    1
    35    25    36    1
    36    26    36    1
    37    36    37    1
