@<TRIPOS>MOLECULE
ZINC03830716
 67 70 0 0 0
SMALL
GASTEIGER

@<TRIPOS>ATOM
      1 C          -0.6669    0.4750    1.5197 C.3     1  UNL1       -0.0306
      2 C          -0.7148    1.7923    0.7639 C.3     1  UNL1        0.0897
      3 O           0.2931    2.6806    1.2851 O.3     1  UNL1       -0.4643
      4 C           1.4957    2.6653    0.6516 C.2     1  UNL1        0.3181
      5 O           1.7613    1.9624   -0.3191 O.2     1  UNL1       -0.2498
      6 C           2.5453    3.5392    1.3828 C.3     1  UNL1        0.1021
      7 C           3.8197    2.6573    1.4587 C.3     1  UNL1        0.0075
      8 C           3.5699    1.3852    2.2875 C.3     1  UNL1       -0.0306
      9 N           3.1290    1.7406    3.6998 N.4     1  UNL1        0.2353
     10 C           1.9776    2.7132    3.7518 C.3     1  UNL1       -0.0306
     11 C           2.2130    3.8973    2.8487 C.3     1  UNL1        0.0075
     12 C           2.7417    0.5315    4.5590 C.3     1  UNL1       -0.0298
     13 C           3.9449   -0.3639    4.8340 C.3     1  UNL1        0.0141
     14 C           3.6524   -1.4806    5.8783 C.3     1  UNL1        0.1118
     15 C           2.5728   -2.3957    5.3239 C.1     1  UNL1        0.0789
     16 N           1.6771   -3.1548    4.8639 N.1     1  UNL1       -0.1953
     17 C           4.9579   -2.3442    6.0812 C.ar    1  UNL1       -0.0230
     18 C           4.9505   -3.7534    5.9578 C.ar    1  UNL1       -0.0567
     19 C           6.0663   -4.5257    6.2931 C.ar    1  UNL1       -0.0614
     20 C           7.2210   -3.9157    6.7622 C.ar    1  UNL1       -0.0617
     21 C           7.2715   -2.5303    6.8675 C.ar    1  UNL1       -0.0614
     22 C           6.1598   -1.7524    6.5229 C.ar    1  UNL1       -0.0567
     23 C           3.2482   -0.9669    7.2922 C.ar    1  UNL1       -0.0230
     24 C           3.7748    0.2215    7.8388 C.ar    1  UNL1       -0.0567
     25 C           3.4941    0.6029    9.1558 C.ar    1  UNL1       -0.0614
     26 C           2.6835   -0.1910    9.9596 C.ar    1  UNL1       -0.0617
     27 C           2.1682   -1.3782    9.4560 C.ar    1  UNL1       -0.0614
     28 C           2.4555   -1.7677    8.1450 C.ar    1  UNL1       -0.0567
     29 C           2.6615    4.9218    0.7144 C.ar    1  UNL1       -0.0302
     30 C           3.8866    5.5752    0.5227 C.ar    1  UNL1       -0.0575
     31 C           3.9220    6.9531    0.2725 C.ar    1  UNL1       -0.0615
     32 C           2.7425    7.6915    0.1912 C.ar    1  UNL1       -0.0617
     33 C           1.5176    7.0470    0.2914 C.ar    1  UNL1       -0.0615
     34 C           1.4772    5.6748    0.5293 C.ar    1  UNL1       -0.0575
     35 H           0.2671   -0.0587    1.3153 H       1  UNL1        0.0262
     36 H          -1.5046   -0.1683    1.2359 H       1  UNL1        0.0262
     37 H          -0.7047    0.6453    2.6004 H       1  UNL1        0.0262
     38 H          -0.6053    1.6365   -0.3144 H       1  UNL1        0.0694
     39 H          -1.6817    2.2785    0.9281 H       1  UNL1        0.0694
     40 H           4.1574    2.3676    0.4536 H       1  UNL1        0.0331
     41 H           4.6552    3.2063    1.9102 H       1  UNL1        0.0331
     42 H           2.8012    0.7360    1.8583 H       1  UNL1        0.0815
     43 H           4.5031    0.8204    2.3782 H       1  UNL1        0.0815
     44 H           1.9009    3.0567    4.7895 H       1  UNL1        0.0815
     45 H           1.0651    2.1685    3.5015 H       1  UNL1        0.0815
     46 H           3.0515    4.4817    3.2730 H       1  UNL1        0.0331
     47 H           1.3379    4.5522    2.9287 H       1  UNL1        0.0331
     48 H           2.3417    0.9418    5.4927 H       1  UNL1        0.0815
     49 H           1.9370    0.0051    4.0301 H       1  UNL1        0.0815
     50 H           4.2655   -0.8346    3.8958 H       1  UNL1        0.0339
     51 H           4.7830    0.2664    5.1518 H       1  UNL1        0.0339
     52 H           4.0724   -4.3101    5.6338 H       1  UNL1        0.0621
     53 H           6.0182   -5.6103    6.2140 H       1  UNL1        0.0618
     54 H           8.0738   -4.5217    7.0594 H       1  UNL1        0.0618
     55 H           8.1726   -2.0565    7.2507 H       1  UNL1        0.0618
     56 H           6.2486   -0.6797    6.6653 H       1  UNL1        0.0621
     57 H           4.4649    0.8507    7.2851 H       1  UNL1        0.0621
     58 H           3.9367    1.5054    9.5726 H       1  UNL1        0.0618
     59 H           2.4782    0.0972   10.9884 H       1  UNL1        0.0618
     60 H           1.5652   -2.0220   10.0941 H       1  UNL1        0.0618
     61 H           2.0734   -2.7387    7.8282 H       1  UNL1        0.0621
     62 H           4.8369    5.0584    0.6195 H       1  UNL1        0.0621
     63 H           4.8767    7.4661    0.1766 H       1  UNL1        0.0618
     64 H           2.7773    8.7698    0.0540 H       1  UNL1        0.0618
     65 H           0.5922    7.6160    0.2269 H       1  UNL1        0.0618
     66 H           0.4947    5.2220    0.6551 H       1  UNL1        0.0621
     67 H           3.9270    2.2096    4.1511 H       1  UNL1        0.2033
@<TRIPOS>UNITY_ATOM_ATTR
9 1
charge 1
@<TRIPOS>BOND
     1     1     2    1
     2     1    35    1
     3     1    36    1
     4     1    37    1
     5     2     3    1
     6     2    38    1
     7     2    39    1
     8     3     4    1
     9     4     5    2
    10     6     4    1
    11     6    11    1
    12     6     7    1
    13     6    29    1
    14     7     8    1
    15     7    40    1
    16     7    41    1
    17     8     9    1
    18     8    42    1
    19     8    43    1
    20     9    10    1
    21    10    11    1
    22    10    44    1
    23    10    45    1
    24    11    46    1
    25    11    47    1
    26    12    13    1
    27    12    48    1
    28    12    49    1
    29    13    14    1
    30    13    50    1
    31    13    51    1
    32    14    15    1
    33    14    17    1
    34    14    23    1
    35    15    16    3
    36    17    22   ar
    37    17    18   ar
    38    18    19   ar
    39    18    52    1
    40    19    20   ar
    41    19    53    1
    42    20    21   ar
    43    20    54    1
    44    21    22   ar
    45    21    55    1
    46    22    56    1
    47    23    28   ar
    48    23    24   ar
    49    24    25   ar
    50    24    57    1
    51    25    26   ar
    52    25    58    1
    53    26    27   ar
    54    26    59    1
    55    27    28   ar
    56    27    60    1
    57    28    61    1
    58    29    34   ar
    59    29    30   ar
    60    30    31   ar
    61    30    62    1
    62    31    32   ar
    63    31    63    1
    64    32    33   ar
    65    32    64    1
    66    33    34   ar
    67    33    65    1
    68    34    66    1
    69     9    67    1
    70     9    12    1
