@<TRIPOS>MOLECULE
ZINC00005608
 35 36 0 0 0
SMALL
GASTEIGER

@<TRIPOS>ATOM
      1 C           2.5802    2.2446   -2.6229 C.3     1  UNL1        0.0121
      2 C           2.3376    0.9030   -3.2577 C.2     1  UNL1        0.2099
      3 O           2.5411    0.6881   -4.4468 O.2     1  UNL1       -0.2761
      4 N           1.8609   -0.0417   -2.3766 N.am    1  UNL1       -0.3152
      5 C           1.5519   -1.3959   -2.8031 C.3     1  UNL1        0.0156
      6 C           2.7633   -2.3327   -2.6823 C.3     1  UNL1       -0.0115
      7 C           2.5142   -3.7985   -3.0194 C.ar    1  UNL1       -0.0381
      8 C           1.5788   -4.1281   -4.0196 C.ar    1  UNL1       -0.0579
      9 C           1.3257   -5.4517   -4.3650 C.ar    1  UNL1       -0.0609
     10 C           2.0168   -6.4773   -3.7341 C.ar    1  UNL1       -0.0540
     11 C           2.9844   -6.1953   -2.7629 C.ar    1  UNL1       -0.0174
     12 C           3.2592   -4.8502   -2.3972 C.ar    1  UNL1       -0.0112
     13 C           4.2769   -4.6410   -1.4316 C.ar    1  UNL1       -0.0120
     14 C           4.9733   -5.6989   -0.8377 C.ar    1  UNL1        0.1207
     15 C           4.6720   -7.0035   -1.2093 C.ar    1  UNL1       -0.0194
     16 C           3.6884   -7.2508   -2.1644 C.ar    1  UNL1       -0.0506
     17 O           5.9606   -5.5822    0.1028 O.3     1  UNL1       -0.4951
     18 C           6.2950   -4.2653    0.5232 C.3     1  UNL1        0.0788
     19 H           2.9696    2.9397   -3.3724 H       1  UNL1        0.0322
     20 H           3.3128    2.1487   -1.8172 H       1  UNL1        0.0322
     21 H           1.6417    2.6428   -2.2276 H       1  UNL1        0.0322
     22 H           1.7631    0.1958   -1.3979 H       1  UNL1        0.1487
     23 H           0.7316   -1.7497   -2.1687 H       1  UNL1        0.0465
     24 H           1.1872   -1.3487   -3.8336 H       1  UNL1        0.0465
     25 H           3.5840   -1.9702   -3.3138 H       1  UNL1        0.0328
     26 H           3.0983   -2.2454   -1.6431 H       1  UNL1        0.0328
     27 H           1.0354   -3.3581   -4.5603 H       1  UNL1        0.0620
     28 H           0.5942   -5.6814   -5.1359 H       1  UNL1        0.0618
     29 H           1.8047   -7.5047   -4.0226 H       1  UNL1        0.0624
     30 H           4.5331   -3.6269   -1.1534 H       1  UNL1        0.0660
     31 H           5.2096   -7.8340   -0.7590 H       1  UNL1        0.0654
     32 H           3.4814   -8.2823   -2.4427 H       1  UNL1        0.0625
     33 H           6.6845   -3.6723   -0.3110 H       1  UNL1        0.0660
     34 H           5.4376   -3.7718    0.9932 H       1  UNL1        0.0660
     35 H           7.0868   -4.3425    1.2742 H       1  UNL1        0.0660
@<TRIPOS>BOND
     1     1     2    1
     2     1    19    1
     3     1    20    1
     4     1    21    1
     5     2     3    2
     6     2     4   am
     7     4     5    1
     8     4    22    1
     9     5     6    1
    10     5    23    1
    11     5    24    1
    12     6     7    1
    13     6    25    1
    14     6    26    1
    15     7    12   ar
    16     7     8   ar
    17     8     9   ar
    18     8    27    1
    19     9    10   ar
    20     9    28    1
    21    10    11   ar
    22    10    29    1
    23    11    16   ar
    24    11    12   ar
    25    12    13   ar
    26    13    14   ar
    27    13    30    1
    28    14    15   ar
    29    14    17    1
    30    15    16   ar
    31    15    31    1
    32    16    32    1
    33    17    18    1
    34    18    33    1
    35    18    34    1
    36    18    35    1
