@<TRIPOS>MOLECULE
ZINC01530611
 43 45 0 0 0
SMALL
GASTEIGER

@<TRIPOS>ATOM
      1 C           1.8886    0.0408    1.6681 C.3     1  UNL1       -0.0449
      2 N           1.8041    0.6779    0.3260 N.4     1  UNL1        0.2248
      3 C           0.4237    1.1344   -0.0786 C.3     1  UNL1       -0.0325
      4 C           0.5463    1.8638   -1.4086 C.3     1  UNL1        0.0035
      5 C          -0.7897    2.2599   -2.0410 C.3     1  UNL1        0.0221
      6 N          -1.6577    3.1394   -1.2164 N.pl3   1  UNL1       -0.2994
      7 C          -1.2199    4.4884   -1.0648 C.ar    1  UNL1        0.0372
      8 C          -0.4455    4.7631    0.0863 C.ar    1  UNL1       -0.0401
      9 C          -0.1069    6.0622    0.4774 C.ar    1  UNL1       -0.0600
     10 C          -0.5310    7.1372   -0.2815 C.ar    1  UNL1       -0.0614
     11 C          -1.2828    6.9043   -1.4280 C.ar    1  UNL1       -0.0568
     12 C          -1.6480    5.5945   -1.8338 C.ar    1  UNL1       -0.0257
     13 C          -2.5709    5.5694   -3.0345 C.3     1  UNL1       -0.0219
     14 C          -2.8891    4.2383   -3.6939 C.3     1  UNL1       -0.0219
     15 C          -3.6195    3.3191   -2.7547 C.ar    1  UNL1       -0.0257
     16 C          -3.0138    2.8485   -1.5736 C.ar    1  UNL1        0.0372
     17 C          -3.7486    2.0237   -0.7065 C.ar    1  UNL1       -0.0401
     18 C          -5.0606    1.6620   -1.0088 C.ar    1  UNL1       -0.0600
     19 C          -5.6518    2.1165   -2.1826 C.ar    1  UNL1       -0.0614
     20 C          -4.9396    2.9438   -3.0487 C.ar    1  UNL1       -0.0568
     21 H           1.5904    0.7772    2.4173 H       1  UNL1        0.0777
     22 H           2.9290   -0.2593    1.8176 H       1  UNL1        0.0777
     23 H           1.2334   -0.8325    1.6782 H       1  UNL1        0.0777
     24 H           2.4459    1.4832    0.3093 H       1  UNL1        0.2011
     25 H          -0.1979    0.2364   -0.1498 H       1  UNL1        0.0814
     26 H           0.0549    1.7777    0.7222 H       1  UNL1        0.0814
     27 H           1.1968    2.7397   -1.3068 H       1  UNL1        0.0332
     28 H           1.0489    1.1937   -2.1204 H       1  UNL1        0.0332
     29 H          -0.5744    2.7108   -3.0154 H       1  UNL1        0.0470
     30 H          -1.3104    1.3125   -2.2497 H       1  UNL1        0.0470
     31 H          -0.1720    3.9599    0.7556 H       1  UNL1        0.0636
     32 H           0.4363    6.2352    1.4016 H       1  UNL1        0.0618
     33 H          -0.3169    8.1563    0.0314 H       1  UNL1        0.0618
     34 H          -1.6405    7.7654   -1.9916 H       1  UNL1        0.0621
     35 H          -3.5141    6.0474   -2.7338 H       1  UNL1        0.0317
     36 H          -2.1274    6.2111   -3.8090 H       1  UNL1        0.0317
     37 H          -1.9879    3.7619   -4.0882 H       1  UNL1        0.0317
     38 H          -3.5119    4.4378   -4.5761 H       1  UNL1        0.0317
     39 H          -3.3034    1.6795    0.2215 H       1  UNL1        0.0636
     40 H          -5.6230    1.0338   -0.3256 H       1  UNL1        0.0618
     41 H          -6.6762    1.8393   -2.4190 H       1  UNL1        0.0618
     42 H          -5.4270    3.3023   -3.9542 H       1  UNL1        0.0621
     43 H           2.1631    0.0163   -0.3752 H       1  UNL1        0.2011
@<TRIPOS>UNITY_ATOM_ATTR
2 1
charge 1
@<TRIPOS>BOND
     1     1     2    1
     2     1    21    1
     3     1    22    1
     4     1    23    1
     5     2     3    1
     6     2    24    1
     7     2    43    1
     8     3     4    1
     9     3    25    1
    10     3    26    1
    11     4     5    1
    12     4    27    1
    13     4    28    1
    14     5     6    1
    15     5    29    1
    16     5    30    1
    17     6    16    1
    18     6     7    1
    19     7    12   ar
    20     7     8   ar
    21     8     9   ar
    22     8    31    1
    23     9    10   ar
    24     9    32    1
    25    10    11   ar
    26    10    33    1
    27    11    12   ar
    28    11    34    1
    29    12    13    1
    30    13    14    1
    31    13    35    1
    32    13    36    1
    33    14    15    1
    34    14    37    1
    35    14    38    1
    36    15    20   ar
    37    15    16   ar
    38    16    17   ar
    39    17    18   ar
    40    17    39    1
    41    18    19   ar
    42    18    40    1
    43    19    20   ar
    44    19    41    1
    45    20    42    1
