@<TRIPOS>MOLECULE
ZINC01546066
 52 54 0 0 0
SMALL
GASTEIGER

@<TRIPOS>ATOM
      1 C           1.9279   -0.2266   -7.6594 C.3     1  UNL1        0.0366
      2 O           1.9943    0.7540   -6.6161 O.3     1  UNL1       -0.3796
      3 C           2.6229    0.4045   -5.3506 C.3     1  UNL1        0.0814
      4 C           1.6435    0.6970   -4.1219 C.3     1  UNL1        0.1130
      5 O           2.1946    0.6165   -2.7412 O.3     1  UNL1       -0.4860
      6 C           1.6045    1.3200   -1.6741 C.ar    1  UNL1        0.1628
      7 C           1.0153    2.5974   -1.8534 C.ar    1  UNL1       -0.0038
      8 C           0.5245    3.4107   -0.7306 C.ar    1  UNL1        0.0441
      9 C           0.5088    2.8759    0.5372 C.ar    1  UNL1        0.0797
     10 C           0.9426    1.6030    0.6648 C.ar    1  UNL1        0.0098
     11 C           1.6502    0.8870   -0.3089 C.ar    1  UNL1        0.1641
     12 O           2.2970   -0.2103    0.2468 O.3     1  UNL1       -0.4860
     13 C           3.0432    0.0830    1.5065 C.3     1  UNL1        0.1130
     14 C           2.3883    0.1195    2.9497 C.3     1  UNL1        0.0814
     15 O           1.8088   -1.0933    3.4260 O.3     1  UNL1       -0.3796
     16 C           0.5192   -1.3677    2.9021 C.3     1  UNL1        0.0366
     17 N           0.1558    3.4769    1.6819 N.ar    1  UNL1       -0.2352
     18 C          -0.2080    4.7339    1.5907 C.ar    1  UNL1        0.1187
     19 N          -0.2975    5.3960    0.4421 N.ar    1  UNL1       -0.2200
     20 C           0.0648    4.7400   -0.6934 C.ar    1  UNL1        0.1340
     21 N          -0.0215    5.4554   -1.9017 N.pl3   1  UNL1       -0.2988
     22 C           0.0590    6.8579   -1.9835 C.ar    1  UNL1        0.0335
     23 C          -0.6127    7.5268   -3.0080 C.ar    1  UNL1       -0.0404
     24 C          -0.4815    8.9058   -3.1497 C.ar    1  UNL1       -0.0589
     25 C           0.3346    9.6226   -2.2798 C.ar    1  UNL1       -0.0462
     26 C           1.0378    8.9648   -1.2636 C.ar    1  UNL1        0.0264
     27 C           0.9031    7.5879   -1.1237 C.ar    1  UNL1       -0.0251
     28 C           1.9054    9.6778   -0.3768 C.1     1  UNL1       -0.0696
     29 C           2.6073   10.3002    0.3539 C.1     1  UNL1       -0.1139
     30 H           2.4736    0.1134   -8.5532 H       1  UNL1        0.0524
     31 H           0.8798   -0.3104   -7.9754 H       1  UNL1        0.0524
     32 H           2.2893   -1.2215   -7.3847 H       1  UNL1        0.0524
     33 H           2.9931   -0.6272   -5.3659 H       1  UNL1        0.0593
     34 H           3.5023    1.0537   -5.2661 H       1  UNL1        0.0593
     35 H           1.1815    1.6667   -4.3213 H       1  UNL1        0.0720
     36 H           0.8458   -0.0533   -4.1955 H       1  UNL1        0.0720
     37 H           0.9919    3.0642   -2.8344 H       1  UNL1        0.0663
     38 H           0.7425    1.1614    1.6195 H       1  UNL1        0.0677
     39 H           3.8067   -0.6988    1.5608 H       1  UNL1        0.0720
     40 H           3.5773    1.0354    1.3764 H       1  UNL1        0.0720
     41 H           3.2051    0.3316    3.6548 H       1  UNL1        0.0593
     42 H           1.7054    0.9519    3.1572 H       1  UNL1        0.0593
     43 H          -0.1279   -0.4843    2.8980 H       1  UNL1        0.0524
     44 H           0.6205   -1.7772    1.8965 H       1  UNL1        0.0524
     45 H           0.0418   -2.1200    3.5389 H       1  UNL1        0.0524
     46 H          -0.4459    5.2701    2.5088 H       1  UNL1        0.1048
     47 H          -0.7703    5.0646   -2.4605 H       1  UNL1        0.1536
     48 H          -1.2527    6.9794   -3.6934 H       1  UNL1        0.0636
     49 H          -1.0170    9.4186   -3.9478 H       1  UNL1        0.0619
     50 H           0.4407   10.6813   -2.4021 H       1  UNL1        0.0630
     51 H           1.4640    7.0859   -0.3375 H       1  UNL1        0.0648
     52 H           3.2717   10.8299    1.0193 H       1  UNL1        0.1232
@<TRIPOS>BOND
     1     1     2    1
     2     1    30    1
     3     1    31    1
     4     1    32    1
     5     2     3    1
     6     3     4    1
     7     3    33    1
     8     3    34    1
     9     4     5    1
    10     4    35    1
    11     4    36    1
    12     5     6    1
    13     6    11   ar
    14     6     7   ar
    15     7     8   ar
    16     7    37    1
    17     8    20   ar
    18     8     9   ar
    19     9    10   ar
    20     9    17   ar
    21    10    11   ar
    22    10    38    1
    23    11    12    1
    24    12    13    1
    25    13    14    1
    26    13    39    1
    27    13    40    1
    28    14    15    1
    29    14    41    1
    30    14    42    1
    31    15    16    1
    32    16    43    1
    33    16    44    1
    34    16    45    1
    35    17    18   ar
    36    18    19   ar
    37    18    46    1
    38    19    20   ar
    39    20    21    1
    40    21    22    1
    41    21    47    1
    42    22    27   ar
    43    22    23   ar
    44    23    24   ar
    45    23    48    1
    46    24    25   ar
    47    24    49    1
    48    25    26   ar
    49    25    50    1
    50    26    27   ar
    51    26    28    1
    52    27    51    1
    53    28    29    3
    54    29    52    1
