@<TRIPOS>MOLECULE
ZINC00000740
 34 36 0 0 0
SMALL
GASTEIGER

@<TRIPOS>ATOM
      1 C           0.9376    0.0249    0.0276 C.3     1  UNL1        0.0084
      2 N           0.3904    0.1998   -1.3114 N.am    1  UNL1       -0.2701
      3 C          -0.3142   -0.8747   -1.9310 C.ar    1  UNL1        0.0453
      4 C           0.0768   -2.1986   -1.6535 C.ar    1  UNL1       -0.0383
      5 C          -0.5826   -3.2892   -2.2283 C.ar    1  UNL1       -0.0416
      6 C          -1.6428   -3.0739   -3.0984 C.ar    1  UNL1        0.0417
      7 C          -2.0443   -1.7778   -3.4049 C.ar    1  UNL1       -0.0324
      8 C          -1.4009   -0.6775   -2.8096 C.ar    1  UNL1        0.0234
      9 C          -1.9464    0.6802   -3.1187 C.2     1  UNL1        0.0780
     10 N          -1.2152    1.6900   -3.4468 N.2     1  UNL1       -0.2428
     11 C           0.2311    1.5324   -3.4483 C.3     1  UNL1        0.2248
     12 H           0.5542    0.6322   -3.9772 H       1  UNL1        0.0952
     13 C           0.6618    1.4277   -1.9451 C.2     1  UNL1        0.2709
     14 O           1.2471    2.3419   -1.3630 O.2     1  UNL1       -0.2702
     15 O           0.8405    2.6018   -4.1385 O.3     1  UNL1       -0.3636
     16 C          -3.4310    0.9069   -3.0623 C.ar    1  UNL1        0.0007
     17 C          -3.9938    1.9008   -3.8733 C.ar    1  UNL1       -0.0526
     18 C          -5.3680    2.1456   -3.8383 C.ar    1  UNL1       -0.0611
     19 C          -6.1861    1.3999   -2.9914 C.ar    1  UNL1       -0.0617
     20 C          -5.6317    0.4198   -2.1691 C.ar    1  UNL1       -0.0611
     21 C          -4.2555    0.1785   -2.1948 C.ar    1  UNL1       -0.0526
     22 CL         -2.4748   -4.4119   -3.7847 Cl      1  UNL1       -0.0835
     23 H           0.4930   -0.8305    0.5465 H       1  UNL1        0.0433
     24 H           0.7236    0.9146    0.6288 H       1  UNL1        0.0433
     25 H           2.0224   -0.0983   -0.0421 H       1  UNL1        0.0433
     26 H           0.9328   -2.4076   -1.0147 H       1  UNL1        0.0637
     27 H          -0.2545   -4.3002   -1.9976 H       1  UNL1        0.0633
     28 H          -2.8708   -1.6278   -4.0965 H       1  UNL1        0.0639
     29 H           0.1536    3.2882   -4.1006 H       1  UNL1        0.2125
     30 H          -3.3660    2.4926   -4.5359 H       1  UNL1        0.0624
     31 H          -5.7962    2.9209   -4.4682 H       1  UNL1        0.0618
     32 H          -7.2563    1.5910   -2.9650 H       1  UNL1        0.0618
     33 H          -6.2713   -0.1511   -1.5014 H       1  UNL1        0.0618
     34 H          -3.8488   -0.5698   -1.5211 H       1  UNL1        0.0624
@<TRIPOS>BOND
     1     1     2    1
     2     1    23    1
     3     1    24    1
     4     1    25    1
     5     2    13   am
     6     2     3    1
     7     3     8   ar
     8     3     4   ar
     9     4     5   ar
    10     4    26    1
    11     5     6   ar
    12     5    27    1
    13     6     7   ar
    14     6    22    1
    15     7     8   ar
    16     7    28    1
    17     8     9    1
    18     9    10    2
    19     9    16    1
    20    10    11    1
    21    11    12    1
    22    11    13    1
    23    11    15    1
    24    13    14    2
    25    15    29    1
    26    16    21   ar
    27    16    17   ar
    28    17    18   ar
    29    17    30    1
    30    18    19   ar
    31    18    31    1
    32    19    20   ar
    33    19    32    1
    34    20    21   ar
    35    20    33    1
    36    21    34    1
