@<TRIPOS>MOLECULE
ZINC02568036
 33 35 0 0 0
SMALL
GASTEIGER

@<TRIPOS>ATOM
      1 C          -0.2852   -1.0037   -1.2467 C.ar    1  UNL1       -0.0491
      2 C          -0.7146    0.3166   -1.4274 C.ar    1  UNL1       -0.0349
      3 C          -0.3317    1.3020   -0.5103 C.ar    1  UNL1        0.0752
      4 C           0.4327    0.9659    0.6116 C.ar    1  UNL1       -0.0349
      5 C           0.8507   -0.3590    0.7820 C.ar    1  UNL1       -0.0491
      6 C           0.5269   -1.3543   -0.1587 C.ar    1  UNL1        0.0174
      7 C           1.0807   -2.7025   -0.0239 C.ar    1  UNL1        0.1357
      8 C           1.8909   -3.2991    0.9190 C.ar    1  UNL1       -0.0152
      9 C           2.1575   -4.6121    0.4672 C.ar    1  UNL1       -0.0143
     10 C           1.4889   -4.7617   -0.7287 C.ar    1  UNL1        0.1480
     11 O           0.8263   -3.5989   -1.0291 O.2     1  UNL1       -0.4539
     12 C           1.3936   -5.8687   -1.6413 C.2     1  UNL1        0.0881
     13 N           1.9934   -6.9975   -1.4057 N.2     1  UNL1       -0.1802
     14 N           1.8952   -7.9757   -2.3668 N.am    1  UNL1       -0.1678
     15 C           2.1680   -9.3597   -2.0465 C.3     1  UNL1        0.1159
     16 C           2.0268   -9.9849   -3.4206 C.2     1  UNL1        0.2399
     17 O           2.1367  -11.1757   -3.6824 O.2     1  UNL1       -0.2736
     18 N           1.7738   -9.0137   -4.3358 N.am    1  UNL1       -0.2373
     19 C           1.7317   -7.7890   -3.7486 C.2     1  UNL1        0.3284
     20 O           1.5855   -6.7492   -4.3646 O.2     1  UNL1       -0.2504
     21 N          -0.7016    2.7022   -0.7497 N.pl3   1  UNL1       -0.1866
     22 O          -1.3508    2.9593   -1.7741 O.2     1  UNL1       -0.1726
     23 O          -0.3316    3.5463    0.0783 O.co2   1  UNL1       -0.7770
     24 H          -0.5686   -1.7528   -1.9839 H       1  UNL1        0.0625
     25 H          -1.3193    0.5589   -2.2997 H       1  UNL1        0.0639
     26 H           0.7327    1.7164    1.3404 H       1  UNL1        0.0639
     27 H           1.4632   -0.5938    1.6510 H       1  UNL1        0.0625
     28 H           2.2681   -2.8354    1.8199 H       1  UNL1        0.0656
     29 H           2.7665   -5.3647    0.9442 H       1  UNL1        0.0656
     30 H           0.7569   -5.7025   -2.5229 H       1  UNL1        0.0883
     31 H           3.1852   -9.4790   -1.6691 H       1  UNL1        0.0582
     32 H           1.4067   -9.7425   -1.3638 H       1  UNL1        0.0582
     33 H           1.6709   -9.1642   -5.3238 H       1  UNL1        0.1592
@<TRIPOS>UNITY_ATOM_ATTR
23 1
charge -1
@<TRIPOS>BOND
     1     1     6   ar
     2     1     2   ar
     3     1    24    1
     4     2     3   ar
     5     2    25    1
     6     3     4   ar
     7     3    21    1
     8     4     5   ar
     9     4    26    1
    10     5     6   ar
    11     5    27    1
    12     6     7    1
    13     7    11   ar
    14     7     8   ar
    15     8     9   ar
    16     8    28    1
    17     9    10   ar
    18     9    29    1
    19    10    11   ar
    20    10    12    1
    21    12    13    2
    22    12    30    1
    23    13    14    1
    24    14    19   am
    25    14    15    1
    26    15    16    1
    27    15    31    1
    28    15    32    1
    29    16    17    2
    30    16    18   am
    31    18    19   am
    32    18    33    1
    33    19    20    2
    34    21    22    2
    35    21    23    1
