@<TRIPOS>MOLECULE
ZINC00001288
 36 36 0 0 0
SMALL
GASTEIGER

@<TRIPOS>ATOM
      1 C           0.3169    0.5981    0.3384 C.3     1  UNL1       -0.0492
      2 C           0.9837    1.5726    1.3076 C.3     1  UNL1        0.0133
      3 N           1.3762    2.8399    0.6601 N.am    1  UNL1       -0.2860
      4 C           0.2966    3.8377    0.6305 C.3     1  UNL1        0.0133
      5 C           0.2062    4.6744    1.9072 C.3     1  UNL1       -0.0492
      6 C           2.5455    2.7869   -0.0859 C.2     1  UNL1        0.3051
      7 O           3.1426    1.7208   -0.2375 O.2     1  UNL1       -0.2524
      8 N           3.0478    3.9134   -0.7071 N.am    1  UNL1       -0.2754
      9 C           2.8106    5.3081   -0.3887 C.3     1  UNL1        0.0564
     10 C           2.2632    6.0175   -1.6282 C.3     1  UNL1       -0.0159
     11 N           3.2955    5.9298   -2.7507 N.4     1  UNL1        0.2353
     12 C           3.7462    4.4869   -3.0195 C.3     1  UNL1       -0.0159
     13 C           4.1018    3.7422   -1.7175 C.3     1  UNL1        0.0564
     14 C           2.7929    6.5929   -4.0005 C.3     1  UNL1       -0.0430
     15 H          -0.4999    1.0721   -0.2153 H       1  UNL1        0.0245
     16 H          -0.0926   -0.2585    0.8823 H       1  UNL1        0.0245
     17 H           1.0316    0.2154   -0.3971 H       1  UNL1        0.0245
     18 H           0.2982    1.7970    2.1330 H       1  UNL1        0.0462
     19 H           1.8679    1.0998    1.7500 H       1  UNL1        0.0462
     20 H           0.3687    4.4656   -0.2580 H       1  UNL1        0.0462
     21 H          -0.6499    3.2960    0.5144 H       1  UNL1        0.0462
     22 H           0.8427    5.5620    1.8770 H       1  UNL1        0.0245
     23 H          -0.8159    5.0411    2.0435 H       1  UNL1        0.0245
     24 H           0.4940    4.1051    2.7957 H       1  UNL1        0.0245
     25 H           3.7732    5.7496   -0.0961 H       1  UNL1        0.0518
     26 H           2.1729    5.4329    0.4693 H       1  UNL1        0.0518
     27 H           2.0830    7.0778   -1.4295 H       1  UNL1        0.0830
     28 H           1.3493    5.5429   -2.0018 H       1  UNL1        0.0830
     29 H           2.9182    3.9861   -3.5312 H       1  UNL1        0.0830
     30 H           4.6148    4.5466   -3.6833 H       1  UNL1        0.0830
     31 H           5.0321    4.1462   -1.2955 H       1  UNL1        0.0518
     32 H           4.2855    2.6893   -1.9530 H       1  UNL1        0.0518
     33 H           2.4610    7.6019   -3.7409 H       1  UNL1        0.0778
     34 H           3.6185    6.6382   -4.7125 H       1  UNL1        0.0778
     35 H           1.9605    6.0040   -4.3971 H       1  UNL1        0.0778
     36 H           4.1241    6.4505   -2.4353 H       1  UNL1        0.2032
@<TRIPOS>UNITY_ATOM_ATTR
11 1
charge 1
@<TRIPOS>BOND
     1     1     2    1
     2     1    15    1
     3     1    16    1
     4     1    17    1
     5     2     3    1
     6     2    18    1
     7     2    19    1
     8     3     4    1
     9     3     6   am
    10     4     5    1
    11     4    20    1
    12     4    21    1
    13     5    22    1
    14     5    23    1
    15     5    24    1
    16     6     7    2
    17     6     8   am
    18     8    13    1
    19     8     9    1
    20     9    10    1
    21     9    25    1
    22     9    26    1
    23    10    11    1
    24    10    27    1
    25    10    28    1
    26    11    12    1
    27    11    14    1
    28    11    36    1
    29    12    13    1
    30    12    29    1
    31    12    30    1
    32    13    31    1
    33    13    32    1
    34    14    33    1
    35    14    34    1
    36    14    35    1
