@<TRIPOS>MOLECULE
ZINC00897240
 52 55 0 0 0
SMALL
GASTEIGER

@<TRIPOS>ATOM
      1 C           2.4212   -1.9942   -1.2796 C.3     1  UNL1       -0.0431
      2 N           1.5450   -1.3869   -0.2117 N.4     1  UNL1        0.2331
      3 C           1.2929    0.0685   -0.5080 C.3     1  UNL1       -0.0321
      4 C           0.2860    0.7135    0.4266 C.3     1  UNL1       -0.0106
      5 C          -1.1627    0.5481   -0.0417 C.3     1  UNL1       -0.0254
      6 C          -1.7680   -0.8646    0.0206 C.3     1  UNL1        0.0614
      7 H          -2.6914   -0.8094   -0.5729 H       1  UNL1        0.0548
      8 C          -0.8986   -1.9432   -0.6427 C.3     1  UNL1        0.0100
      9 C           0.3688   -2.2731    0.1268 C.3     1  UNL1       -0.0302
     10 N          -2.1879   -1.2631    1.3779 N.ar    1  UNL1       -0.2254
     11 C          -3.3094   -2.0810    1.5387 C.ar    1  UNL1        0.2753
     12 O          -3.9538   -2.5316    0.5980 O.2     1  UNL1       -0.2655
     13 C          -3.6792   -2.4293    2.9229 C.ar    1  UNL1        0.0498
     14 C          -4.8274   -3.1888    3.1759 C.ar    1  UNL1       -0.0487
     15 C          -5.1301   -3.5765    4.4810 C.ar    1  UNL1       -0.0610
     16 C          -4.2667   -3.2439    5.5228 C.ar    1  UNL1       -0.0611
     17 C          -3.1284   -2.4753    5.2732 C.ar    1  UNL1       -0.0521
     18 C          -2.8599   -2.0290    3.9739 C.ar    1  UNL1        0.0106
     19 C          -1.7371   -1.1288    3.6417 C.ar    1  UNL1        0.0738
     20 N          -1.4253   -0.8107    2.4214 N.ar    1  UNL1       -0.1720
     21 C          -0.9218   -0.4811    4.7514 C.3     1  UNL1        0.0171
     22 C           0.4013   -1.1457    5.0615 C.ar    1  UNL1       -0.0414
     23 C           0.6161   -2.5233    4.9108 C.ar    1  UNL1       -0.0568
     24 C           1.8298   -3.0997    5.2988 C.ar    1  UNL1       -0.0431
     25 C           2.8341   -2.3054    5.8466 C.ar    1  UNL1        0.0410
     26 C           2.6392   -0.9374    6.0050 C.ar    1  UNL1       -0.0431
     27 C           1.4259   -0.3622    5.6196 C.ar    1  UNL1       -0.0568
     28 CL          4.3173   -3.0223    6.3371 Cl      1  UNL1       -0.0835
     29 H           1.8497   -2.0406   -2.2103 H       1  UNL1        0.0777
     30 H           3.3056   -1.3615   -1.3933 H       1  UNL1        0.0777
     31 H           2.7233   -2.9920   -0.9511 H       1  UNL1        0.0777
     32 H           2.2643    0.5624   -0.3857 H       1  UNL1        0.0814
     33 H           0.9931    0.1581   -1.5577 H       1  UNL1        0.0814
     34 H           0.4885    1.7927    0.4309 H       1  UNL1        0.0317
     35 H           0.4407    0.3838    1.4570 H       1  UNL1        0.0317
     36 H          -1.2227    0.8972   -1.0817 H       1  UNL1        0.0288
     37 H          -1.7977    1.2324    0.5359 H       1  UNL1        0.0288
     38 H          -0.6729   -1.6688   -1.6801 H       1  UNL1        0.0338
     39 H          -1.4943   -2.8640   -0.7007 H       1  UNL1        0.0338
     40 H           0.6753   -3.3016   -0.0984 H       1  UNL1        0.0815
     41 H           0.2474   -2.2296    1.2112 H       1  UNL1        0.0815
     42 H          -5.4906   -3.4767    2.3618 H       1  UNL1        0.0625
     43 H          -6.0332   -4.1493    4.6840 H       1  UNL1        0.0618
     44 H          -4.4882   -3.5746    6.5362 H       1  UNL1        0.0618
     45 H          -2.4747   -2.2495    6.1110 H       1  UNL1        0.0624
     46 H          -0.7296    0.5511    4.4248 H       1  UNL1        0.0377
     47 H          -1.5056   -0.3938    5.6723 H       1  UNL1        0.0377
     48 H          -0.1556   -3.1775    4.5139 H       1  UNL1        0.0621
     49 H           1.9768   -4.1713    5.1935 H       1  UNL1        0.0632
     50 H           3.4141   -0.3181    6.4510 H       1  UNL1        0.0632
     51 H           1.2795    0.7053    5.7813 H       1  UNL1        0.0621
     52 H           2.1156   -1.3920    0.6458 H       1  UNL1        0.2030
@<TRIPOS>UNITY_ATOM_ATTR
2 1
charge 1
@<TRIPOS>BOND
     1     1     2    1
     2     1    29    1
     3     1    30    1
     4     1    31    1
     5     2     9    1
     6     2     3    1
     7     2    52    1
     8     3     4    1
     9     3    32    1
    10     3    33    1
    11     4     5    1
    12     4    34    1
    13     4    35    1
    14     5     6    1
    15     5    36    1
    16     5    37    1
    17     6     7    1
    18     6     8    1
    19     6    10    1
    20     8     9    1
    21     8    38    1
    22     8    39    1
    23     9    40    1
    24     9    41    1
    25    10    20   ar
    26    10    11   ar
    27    11    12    2
    28    11    13   ar
    29    13    18   ar
    30    13    14   ar
    31    14    15   ar
    32    14    42    1
    33    15    16   ar
    34    15    43    1
    35    16    17   ar
    36    16    44    1
    37    17    18   ar
    38    17    45    1
    39    18    19   ar
    40    19    20   ar
    41    19    21    1
    42    21    22    1
    43    21    46    1
    44    21    47    1
    45    22    27   ar
    46    22    23   ar
    47    23    24   ar
    48    23    48    1
    49    24    25   ar
    50    24    49    1
    51    25    26   ar
    52    25    28    1
    53    26    27   ar
    54    26    50    1
    55    27    51    1
