@<TRIPOS>MOLECULE
ZINC00056556
 41 42 0 0 0
SMALL
GASTEIGER

@<TRIPOS>ATOM
      1 C           3.4480   -2.4456    1.2566 C.3     1  UNL1       -0.0219
      2 C           2.3910   -2.9918    2.2085 C.3     1  UNL1       -0.0283
      3 C           2.5307   -2.3352    3.5819 C.3     1  UNL1       -0.0219
      4 N           1.0078   -2.6965    1.6973 N.4     1  UNL1        0.2307
      5 C           0.5940   -3.2191    0.3328 C.3     1  UNL1       -0.0035
      6 C          -0.8923   -2.8427    0.1189 C.3     1  UNL1        0.1285
      7 H          -0.9754   -1.7561    0.0059 H       1  UNL1        0.0681
      8 C          -1.5158   -3.5595   -1.0919 C.3     1  UNL1        0.1204
      9 O          -1.0657   -2.9992   -2.3320 O.3     1  UNL1       -0.4886
     10 C          -1.6055   -3.5885   -3.4696 C.ar    1  UNL1        0.1283
     11 C          -1.9372   -4.9519   -3.5112 C.ar    1  UNL1       -0.0193
     12 C          -2.4104   -5.5376   -4.6823 C.ar    1  UNL1       -0.0577
     13 C          -2.5609   -4.7746   -5.8326 C.ar    1  UNL1       -0.0538
     14 C          -2.2776   -3.4066   -5.8242 C.ar    1  UNL1       -0.0144
     15 C          -1.7805   -2.7859   -4.6382 C.ar    1  UNL1        0.0238
     16 C          -1.5292   -1.3961   -4.6995 C.ar    1  UNL1       -0.0505
     17 C          -1.7783   -0.6527   -5.8633 C.ar    1  UNL1       -0.0611
     18 C          -2.2652   -1.2802   -7.0032 C.ar    1  UNL1       -0.0612
     19 C          -2.4977   -2.6533   -6.9843 C.ar    1  UNL1       -0.0539
     20 O          -1.5784   -3.2015    1.3353 O.3     1  UNL1       -0.3831
     21 H           3.2262   -1.4174    0.9510 H       1  UNL1        0.0284
     22 H           3.5241   -3.0638    0.3569 H       1  UNL1        0.0284
     23 H           4.4373   -2.4455    1.7313 H       1  UNL1        0.0284
     24 H           2.4778   -4.0797    2.3043 H       1  UNL1        0.0845
     25 H           2.4114   -1.2472    3.5189 H       1  UNL1        0.0284
     26 H           1.7843   -2.7181    4.2853 H       1  UNL1        0.0284
     27 H           3.5209   -2.5336    4.0086 H       1  UNL1        0.0284
     28 H           0.3051   -3.0913    2.3480 H       1  UNL1        0.2017
     29 H           1.2445   -2.7763   -0.4235 H       1  UNL1        0.0841
     30 H           0.7304   -4.3051    0.3814 H       1  UNL1        0.0841
     31 H          -1.2494   -4.6173   -1.0077 H       1  UNL1        0.0725
     32 H          -2.6086   -3.4728   -1.0385 H       1  UNL1        0.0725
     33 H          -1.8322   -5.6076   -2.6562 H       1  UNL1        0.0654
     34 H          -2.6615   -6.5958   -4.7004 H       1  UNL1        0.0619
     35 H          -2.9190   -5.2594   -6.7393 H       1  UNL1        0.0624
     36 H          -1.1452   -0.8776   -3.8256 H       1  UNL1        0.0625
     37 H          -1.5996    0.4190   -5.8770 H       1  UNL1        0.0618
     38 H          -2.4713   -0.7074   -7.9052 H       1  UNL1        0.0618
     39 H          -2.8760   -3.1260   -7.8879 H       1  UNL1        0.0624
     40 H          -2.5406   -3.0829    1.1877 H       1  UNL1        0.2102
     41 H           0.8348   -1.6838    1.7299 H       1  UNL1        0.2017
@<TRIPOS>UNITY_ATOM_ATTR
4 1
charge 1
@<TRIPOS>BOND
     1     1     2    1
     2     1    21    1
     3     1    22    1
     4     1    23    1
     5     2     3    1
     6     2     4    1
     7     2    24    1
     8     3    25    1
     9     3    26    1
    10     3    27    1
    11     4     5    1
    12     4    28    1
    13     4    41    1
    14     5     6    1
    15     5    29    1
    16     5    30    1
    17     6     7    1
    18     6     8    1
    19     6    20    1
    20     8     9    1
    21     8    31    1
    22     8    32    1
    23     9    10    1
    24    10    15   ar
    25    10    11   ar
    26    11    12   ar
    27    11    33    1
    28    12    13   ar
    29    12    34    1
    30    13    14   ar
    31    13    35    1
    32    14    19   ar
    33    14    15   ar
    34    15    16   ar
    35    16    17   ar
    36    16    36    1
    37    17    18   ar
    38    17    37    1
    39    18    19   ar
    40    18    38    1
    41    19    39    1
    42    20    40    1
