@<TRIPOS>MOLECULE
ZINC00000440
 34 37 0 0 0
SMALL
GASTEIGER

@<TRIPOS>ATOM
      1 C           0.4007   -2.8525   -4.1273 C.ar    1  UNL1       -0.0609
      2 C           0.7181   -4.2050   -3.8964 C.ar    1  UNL1       -0.0612
      3 C           0.6555   -4.7607   -2.6132 C.ar    1  UNL1       -0.0508
      4 C           0.2195   -3.9568   -1.5744 C.ar    1  UNL1        0.0453
      5 C          -0.2926   -2.6752   -1.8786 C.ar    1  UNL1        0.0714
      6 C          -0.1191   -2.0636   -3.1052 C.ar    1  UNL1       -0.0465
      7 C          -1.3980   -2.5478   -0.9757 C.2     1  UNL1        0.2759
      8 C          -3.4600   -2.3325   -0.1533 C.3     1  UNL1        0.1203
      9 C          -2.7677   -3.5637    0.5196 C.3     1  UNL1        0.1210
     10 N          -1.5409   -3.6225   -0.2276 N.pl3   1  UNL1       -0.1829
     11 C          -0.2649   -4.2995   -0.1663 C.3     1  UNL1        0.2562
     12 C          -0.0806   -5.7265    0.2989 C.ar    1  UNL1        0.0307
     13 C          -1.0879   -6.5731    0.7694 C.ar    1  UNL1       -0.0503
     14 C          -0.7657   -7.8297    1.3125 C.ar    1  UNL1       -0.0429
     15 C           0.5626   -8.2523    1.3986 C.ar    1  UNL1        0.0410
     16 C           1.5808   -7.4496    0.9148 C.ar    1  UNL1       -0.0429
     17 C           1.2619   -6.2045    0.3693 C.ar    1  UNL1       -0.0503
     18 CL          0.9501   -9.7634    2.1185 Cl      1  UNL1       -0.0835
     19 O           0.4370   -3.5300    0.8120 O.3     1  UNL1       -0.3462
     20 H           0.4610   -2.4551   -5.1376 H       1  UNL1        0.0618
     21 H           0.9657   -4.8425   -4.7456 H       1  UNL1        0.0618
     22 H           0.8195   -5.8275   -2.4845 H       1  UNL1        0.0623
     23 H          -0.4970   -1.0683   -3.3150 H       1  UNL1        0.0626
     24 H          -4.1794   -2.6667   -0.9114 H       1  UNL1        0.0783
     25 H          -3.9440   -1.6575    0.5540 H       1  UNL1        0.0783
     26 H          -2.5707   -3.3948    1.5785 H       1  UNL1        0.0767
     27 H          -3.3697   -4.4620    0.3628 H       1  UNL1        0.0767
     28 H          -2.1306   -6.2847    0.7536 H       1  UNL1        0.0623
     29 H          -1.5542   -8.4707    1.7057 H       1  UNL1        0.0632
     30 H           2.6214   -7.7609    0.9793 H       1  UNL1        0.0632
     31 H           2.0891   -5.5778    0.0421 H       1  UNL1        0.0623
     32 H           1.3034   -3.2990    0.4437 H       1  UNL1        0.2149
     33 N          -2.3722   -1.6634   -0.8906 N.2     1  UNL1       -0.2714
     34 H          -2.3427   -0.7985   -1.4103 H       1  UNL1        0.3040
@<TRIPOS>BOND
     1     1     6   ar
     2     1     2   ar
     3     1    20    1
     4     2     3   ar
     5     2    21    1
     6     3     4   ar
     7     3    22    1
     8     4    11    1
     9     4     5   ar
    10     5     6   ar
    11     5     7    1
    12     6    23    1
    13     7    10    1
    14     7    33    2
    15     8     9    1
    16     8    24    1
    17     8    25    1
    18     8    33    1
    19     9    10    1
    20     9    26    1
    21     9    27    1
    22    10    11    1
    23    11    12    1
    24    11    19    1
    25    12    17   ar
    26    12    13   ar
    27    13    14   ar
    28    13    28    1
    29    14    15   ar
    30    14    29    1
    31    15    16   ar
    32    15    18    1
    33    16    17   ar
    34    16    30    1
    35    17    31    1
    36    19    32    1
    37    33    34    1
