@<TRIPOS>MOLECULE
ZINC00898188
 50 55 0 0 0
SMALL
GASTEIGER

@<TRIPOS>ATOM
      1 C           2.8438    3.5671    0.7069 C.3     1  UNL1       -0.0649
      2 C           2.6116    2.2341    0.0150 C.3     1  UNL1       -0.0492
      3 C           1.1232    1.9364   -0.2567 C.3     1  UNL1        0.0018
      4 H           0.7318    2.7858   -0.8344 H       1  UNL1        0.0342
      5 C           0.9682    0.6618   -1.1132 C.3     1  UNL1       -0.0265
      6 H           1.5090    0.7499   -2.0617 H       1  UNL1        0.0309
      7 C          -0.5483    0.5603   -1.3658 C.3     1  UNL1       -0.0319
      8 C          -1.2233   -0.0155   -0.0846 C.3     1  UNL1        0.0327
      9 H          -2.2088    0.4501    0.0280 H       1  UNL1        0.0482
     10 C          -1.3979   -1.5663   -0.3497 C.3     1  UNL1        0.0509
     11 H          -1.5842   -1.6695   -1.4304 H       1  UNL1        0.0525
     12 C          -0.1041   -2.3496   -0.0123 C.3     1  UNL1        0.0450
     13 C           0.3579   -1.9592    1.3860 C.3     1  UNL1       -0.0230
     14 C           0.8250   -0.5464    1.1175 C.3     1  UNL1        0.0195
     15 H           1.5336   -0.2476    1.8992 H       1  UNL1        0.0467
     16 C           1.4725   -0.5673   -0.3053 C.3     1  UNL1        0.0049
     17 H           2.5630   -0.5305   -0.2018 H       1  UNL1        0.0344
     18 C           1.0417   -1.9102   -0.9229 C.3     1  UNL1        0.0712
     19 H           0.7436   -1.8419   -1.9739 H       1  UNL1        0.0606
     20 O           2.1644   -2.7874   -0.8485 O.3     1  UNL1       -0.3905
     21 N          -0.3505    0.3599    1.1009 N.3     1  UNL1       -0.2693
     22 C           0.2367    1.7232    1.0083 C.3     1  UNL1        0.1123
     23 H           0.8369    1.9021    1.9091 H       1  UNL1        0.0770
     24 O          -0.7963    2.6857    1.0416 O.3     1  UNL1       -0.3769
     25 C          -0.6229   -3.7417   -0.0243 C.ar    1  UNL1       -0.0159
     26 C           0.0843   -4.9259   -0.1370 C.ar    1  UNL1       -0.0561
     27 C          -0.6083   -6.1155    0.0242 C.ar    1  UNL1       -0.0614
     28 C          -1.9776   -6.0931    0.3354 C.ar    1  UNL1       -0.0600
     29 C          -2.6793   -4.8769    0.4595 C.ar    1  UNL1       -0.0404
     30 C          -2.0032   -3.6905    0.2424 C.ar    1  UNL1        0.0336
     31 N          -2.5124   -2.3739    0.2040 N.pl3   1  UNL1       -0.3272
     32 C          -3.4939   -1.9158    1.1526 C.3     1  UNL1        0.0011
     33 H           2.4179    4.3917    0.1275 H       1  UNL1        0.0230
     34 H           2.4044    3.5794    1.7075 H       1  UNL1        0.0230
     35 H           3.9188    3.7482    0.8125 H       1  UNL1        0.0230
     36 H           3.0774    1.4468    0.6155 H       1  UNL1        0.0267
     37 H           3.1457    2.2544   -0.9449 H       1  UNL1        0.0267
     38 H          -0.9686    1.5468   -1.6014 H       1  UNL1        0.0284
     39 H          -0.7374   -0.0457   -2.2583 H       1  UNL1        0.0284
     40 H          -0.4332   -1.9995    2.1486 H       1  UNL1        0.0290
     41 H           1.1769   -2.5925    1.7442 H       1  UNL1        0.0290
     42 H           2.6150   -2.7431   -1.7103 H       1  UNL1        0.2098
     43 H          -1.3004    2.4534    1.8397 H       1  UNL1        0.2115
     44 H           1.1550   -4.9329   -0.3188 H       1  UNL1        0.0621
     45 H          -0.0807   -7.0621   -0.0740 H       1  UNL1        0.0618
     46 H          -2.4989   -7.0354    0.4780 H       1  UNL1        0.0618
     47 H          -3.7383   -4.8937    0.6851 H       1  UNL1        0.0636
     48 H          -4.3856   -2.5553    1.1292 H       1  UNL1        0.0428
     49 H          -3.8357   -0.9067    0.9012 H       1  UNL1        0.0428
     50 H          -3.1011   -1.9071    2.1736 H       1  UNL1        0.0428
@<TRIPOS>BOND
     1     1     2    1
     2     1    33    1
     3     1    34    1
     4     1    35    1
     5     2     3    1
     6     2    36    1
     7     2    37    1
     8     3     4    1
     9     3    22    1
    10     3     5    1
    11     5     6    1
    12     5    16    1
    13     5     7    1
    14     7     8    1
    15     7    38    1
    16     7    39    1
    17     8     9    1
    18     8    21    1
    19     8    10    1
    20    10    11    1
    21    10    31    1
    22    10    12    1
    23    12    18    1
    24    12    13    1
    25    12    25    1
    26    13    14    1
    27    13    40    1
    28    13    41    1
    29    14    15    1
    30    14    16    1
    31    14    21    1
    32    16    17    1
    33    16    18    1
    34    18    19    1
    35    18    20    1
    36    20    42    1
    37    21    22    1
    38    22    23    1
    39    22    24    1
    40    24    43    1
    41    25    30   ar
    42    25    26   ar
    43    26    27   ar
    44    26    44    1
    45    27    28   ar
    46    27    45    1
    47    28    29   ar
    48    28    46    1
    49    29    30   ar
    50    29    47    1
    51    30    31    1
    52    31    32    1
    53    32    48    1
    54    32    49    1
    55    32    50    1
