@<TRIPOS>MOLECULE
ZINC03785276
 58 57 0 0 0
SMALL
GASTEIGER

@<TRIPOS>ATOM
      1 C          -0.8119  -10.3671   -4.8524 C.3     1  UNL1       -0.0618
      2 C          -1.7975   -9.7148   -5.8107 C.3     1  UNL1       -0.0376
      3 C          -3.1912   -9.6914   -5.2515 C.2     1  UNL1       -0.0879
      4 C          -3.9050   -8.5740   -5.0497 C.2     1  UNL1       -0.0842
      5 C          -3.3538   -7.1870   -5.2688 C.3     1  UNL1       -0.0165
      6 C          -4.3210   -6.1221   -4.8277 C.2     1  UNL1       -0.0839
      7 C          -4.3339   -5.6028   -3.5872 C.2     1  UNL1       -0.0839
      8 C          -3.3895   -6.0402   -2.5018 C.3     1  UNL1       -0.0165
      9 C          -3.5841   -7.4725   -2.1350 C.2     1  UNL1       -0.0839
     10 C          -4.4886   -7.8811   -1.2499 C.2     1  UNL1       -0.0839
     11 C          -5.3555   -6.9533   -0.4602 C.3     1  UNL1       -0.0165
     12 C          -5.6915   -7.5377    0.8714 C.2     1  UNL1       -0.0839
     13 C          -6.4462   -8.6386    0.9791 C.2     1  UNL1       -0.0839
     14 C          -7.0120   -9.3531   -0.2097 C.3     1  UNL1       -0.0165
     15 C          -6.4900  -10.7456   -0.2655 C.2     1  UNL1       -0.0842
     16 C          -7.2923  -11.8167   -0.2535 C.2     1  UNL1       -0.0876
     17 C          -8.7887  -11.7250   -0.2062 C.3     1  UNL1       -0.0343
     18 C          -9.3963  -11.6238   -1.6084 C.3     1  UNL1       -0.0395
     19 C          -9.0835  -12.8422   -2.4748 C.3     1  UNL1        0.0452
     20 C          -9.7279  -12.7588   -3.8391 C.2     1  UNL1        0.3071
     21 O         -10.3750  -11.8300   -4.2534 O.2     1  UNL1       -0.2509
     22 O          -9.4434  -13.8957   -4.5490 O.3     1  UNL1       -0.4649
     23 C          -9.8984  -13.9163   -5.9152 C.3     1  UNL1        0.0896
     24 C         -11.3461  -14.3565   -5.9993 C.3     1  UNL1       -0.0306
     25 H          -0.8196   -9.8623   -3.8754 H       1  UNL1        0.0233
     26 H           0.1965  -10.3057   -5.2583 H       1  UNL1        0.0233
     27 H          -1.0521  -11.4218   -4.6910 H       1  UNL1        0.0233
     28 H          -1.4306   -8.7066   -6.0235 H       1  UNL1        0.0305
     29 H          -1.8095  -10.2501   -6.7652 H       1  UNL1        0.0305
     30 H          -3.6332  -10.6478   -4.9800 H       1  UNL1        0.0569
     31 H          -4.8834   -8.6652   -4.5767 H       1  UNL1        0.0572
     32 H          -2.4146   -7.0886   -4.7103 H       1  UNL1        0.0350
     33 H          -3.1104   -7.0282   -6.3167 H       1  UNL1        0.0350
     34 H          -5.0334   -5.7735   -5.5677 H       1  UNL1        0.0572
     35 H          -5.0729   -4.8462   -3.3320 H       1  UNL1        0.0572
     36 H          -2.3487   -5.8791   -2.8110 H       1  UNL1        0.0350
     37 H          -3.5157   -5.4015   -1.6243 H       1  UNL1        0.0350
     38 H          -3.0196   -8.2375   -2.6644 H       1  UNL1        0.0572
     39 H          -4.5969   -8.9571   -1.1436 H       1  UNL1        0.0572
     40 H          -4.8526   -6.0029   -0.2699 H       1  UNL1        0.0350
     41 H          -6.2838   -6.7054   -0.9962 H       1  UNL1        0.0350
     42 H          -5.2969   -7.0461    1.7560 H       1  UNL1        0.0572
     43 H          -6.6600   -9.0512    1.9600 H       1  UNL1        0.0572
     44 H          -8.0962   -9.2681   -0.1383 H       1  UNL1        0.0350
     45 H          -6.8032   -8.8910   -1.1809 H       1  UNL1        0.0350
     46 H          -5.4182  -10.8986   -0.3571 H       1  UNL1        0.0572
     47 H          -6.8492  -12.8125   -0.3294 H       1  UNL1        0.0569
     48 H          -9.1831  -12.5862    0.3423 H       1  UNL1        0.0307
     49 H          -9.1137  -10.8608    0.3814 H       1  UNL1        0.0307
     50 H         -10.4819  -11.5010   -1.5090 H       1  UNL1        0.0273
     51 H          -9.0371  -10.7205   -2.1076 H       1  UNL1        0.0273
     52 H          -7.9972  -12.9183   -2.6283 H       1  UNL1        0.0378
     53 H          -9.4276  -13.7513   -1.9666 H       1  UNL1        0.0378
     54 H          -9.7411  -12.9441   -6.3910 H       1  UNL1        0.0694
     55 H          -9.2663  -14.6376   -6.4479 H       1  UNL1        0.0694
     56 H         -11.9993  -13.6831   -5.4359 H       1  UNL1        0.0262
     57 H         -11.6851  -14.3799   -7.0394 H       1  UNL1        0.0262
     58 H         -11.4688  -15.3545   -5.5689 H       1  UNL1        0.0262
@<TRIPOS>BOND
     1     1     2    1
     2     1    25    1
     3     1    26    1
     4     1    27    1
     5     2     3    1
     6     2    28    1
     7     2    29    1
     8     3     4    2
     9     3    30    1
    10     4     5    1
    11     4    31    1
    12     5     6    1
    13     5    32    1
    14     5    33    1
    15     6     7    2
    16     6    34    1
    17     7     8    1
    18     7    35    1
    19     8     9    1
    20     8    36    1
    21     8    37    1
    22     9    10    2
    23     9    38    1
    24    10    11    1
    25    10    39    1
    26    11    12    1
    27    11    40    1
    28    11    41    1
    29    12    13    2
    30    12    42    1
    31    13    14    1
    32    13    43    1
    33    14    15    1
    34    14    44    1
    35    14    45    1
    36    15    16    2
    37    15    46    1
    38    16    17    1
    39    16    47    1
    40    17    18    1
    41    17    48    1
    42    17    49    1
    43    18    19    1
    44    18    50    1
    45    18    51    1
    46    19    20    1
    47    19    52    1
    48    19    53    1
    49    20    21    2
    50    20    22    1
    51    22    23    1
    52    23    24    1
    53    23    54    1
    54    23    55    1
    55    24    56    1
    56    24    57    1
    57    24    58    1
