@<TRIPOS>MOLECULE
ZINC01481789
 47 49 0 0 0
SMALL
GASTEIGER

@<TRIPOS>ATOM
      1 C          -1.0456    0.4578    1.1401 C.3     1  UNL1       -0.0529
      2 C           0.4906    0.5711    1.2442 C.3     1  UNL1        0.0241
      3 H           0.7168    1.6413    1.2872 H       1  UNL1        0.0410
      4 C           1.1966    0.0798   -0.0150 C.ar    1  UNL1        0.0484
      5 C           2.5506   -0.2599   -0.0043 C.ar    1  UNL1       -0.0398
      6 C           3.1550   -0.6950   -1.1809 C.ar    1  UNL1       -0.0586
      7 C           2.4080   -0.7565   -2.3492 C.ar    1  UNL1       -0.0436
      8 C           1.0823   -0.3711   -2.2918 C.ar    1  UNL1        0.0279
      9 N           0.4698    0.0474   -1.1612 N.ar    1  UNL1       -0.2593
     10 C           0.9464   -0.0692    2.5391 C.2     1  UNL1       -0.0316
     11 C           1.4931    0.4970    3.6456 C.2     1  UNL1       -0.0559
     12 C           1.8089   -0.5324    4.7202 C.3     1  UNL1       -0.0051
     13 C           1.3230   -1.7881    4.0815 C.ar    1  UNL1       -0.0359
     14 C           0.8684   -1.5163    2.7859 C.ar    1  UNL1       -0.0178
     15 C           0.4611   -2.5602    1.9669 C.ar    1  UNL1       -0.0540
     16 C           0.4678   -3.8624    2.4766 C.ar    1  UNL1       -0.0612
     17 C           0.8771   -4.1129    3.7933 C.ar    1  UNL1       -0.0615
     18 C           1.3214   -3.0708    4.6062 C.ar    1  UNL1       -0.0577
     19 C           1.8900    1.9246    3.8884 C.3     1  UNL1        0.0095
     20 C           0.7575    2.9588    3.9399 C.3     1  UNL1       -0.0286
     21 N          -0.3316    2.6020    4.9307 N.4     1  UNL1        0.2311
     22 C           0.1186    2.6146    6.3650 C.3     1  UNL1       -0.0433
     23 C          -1.5359    3.4893    4.7435 C.3     1  UNL1       -0.0433
     24 H          -1.5343    0.7948    2.0614 H       1  UNL1        0.0239
     25 H          -1.3730   -0.5701    0.9458 H       1  UNL1        0.0239
     26 H          -1.4334    1.0757    0.3220 H       1  UNL1        0.0239
     27 H           3.1383   -0.2136    0.9060 H       1  UNL1        0.0636
     28 H           4.2010   -0.9913   -1.1832 H       1  UNL1        0.0619
     29 H           2.8486   -1.0950   -3.2798 H       1  UNL1        0.0633
     30 H           0.4556   -0.3906   -3.1790 H       1  UNL1        0.0829
     31 H           1.2596   -0.3244    5.6426 H       1  UNL1        0.0359
     32 H           2.8860   -0.5793    4.9099 H       1  UNL1        0.0359
     33 H           0.1542   -2.3971    0.9379 H       1  UNL1        0.0624
     34 H           0.1567   -4.6900    1.8420 H       1  UNL1        0.0618
     35 H           0.8629   -5.1319    4.1745 H       1  UNL1        0.0618
     36 H           1.6638   -3.2710    5.6166 H       1  UNL1        0.0621
     37 H           2.4632    1.9818    4.8228 H       1  UNL1        0.0362
     38 H           2.6000    2.2254    3.1076 H       1  UNL1        0.0362
     39 H           1.1454    3.9454    4.2210 H       1  UNL1        0.0817
     40 H           0.2771    3.0462    2.9610 H       1  UNL1        0.0817
     41 H           0.5068    3.6089    6.6016 H       1  UNL1        0.0777
     42 H          -0.7422    2.3721    6.9944 H       1  UNL1        0.0777
     43 H           0.8884    1.8534    6.4984 H       1  UNL1        0.0777
     44 H          -1.8728    3.3954    3.7080 H       1  UNL1        0.0777
     45 H          -2.3212    3.1461    5.4222 H       1  UNL1        0.0777
     46 H          -1.2456    4.5193    4.9698 H       1  UNL1        0.0777
     47 H          -0.6362    1.6422    4.7083 H       1  UNL1        0.2028
@<TRIPOS>UNITY_ATOM_ATTR
21 1
charge 1
@<TRIPOS>BOND
     1     1    24    1
     2     1    25    1
     3     1    26    1
     4     2     4    1
     5     2    10    1
     6     4     9   ar
     7     4     5   ar
     8     5     6   ar
     9     5    27    1
    10     6     7   ar
    11     6    28    1
    12     7     8   ar
    13     7    29    1
    14     8     9   ar
    15     8    30    1
    16    10    14    1
    17    10    11    2
    18    11    12    1
    19    11    19    1
    20    12    13    1
    21    12    31    1
    22    12    32    1
    23    13    18   ar
    24    13    14   ar
    25    14    15   ar
    26    15    16   ar
    27    15    33    1
    28    16    17   ar
    29    16    34    1
    30    17    18   ar
    31    17    35    1
    32    18    36    1
    33    19    20    1
    34    19    37    1
    35    19    38    1
    36    20    21    1
    37    20    39    1
    38    20    40    1
    39    21    22    1
    40    21    23    1
    41    21    47    1
    42    22    41    1
    43    22    42    1
    44    22    43    1
    45    23    44    1
    46    23    45    1
    47    23    46    1
    48     2     3    1
    49     2     1    1
