@<TRIPOS>MOLECULE
ZINC00020235
 30 32 0 0 0
SMALL
GASTEIGER

@<TRIPOS>ATOM
      1 C           1.1758   -1.8573   -1.9343 C.3     1  UNL1       -0.0480
      2 C           0.5968   -1.1699   -0.6971 C.3     1  UNL1        0.0829
      3 H           0.9343   -0.1246   -0.7321 H       1  UNL1        0.0461
      4 C          -0.9260   -1.1953   -0.7011 C.ar    1  UNL1       -0.0318
      5 C          -1.6421    0.0096   -0.6901 C.ar    1  UNL1       -0.0571
      6 C          -3.0429    0.0268   -0.7055 C.ar    1  UNL1       -0.0517
      7 C          -3.7494   -1.1914   -0.7338 C.ar    1  UNL1        0.0075
      8 C          -5.1375   -1.5388   -0.7615 C.ar    1  UNL1        0.0088
      9 C          -6.3317   -0.7878   -0.7817 C.ar    1  UNL1       -0.0336
     10 C          -7.5542   -1.4621   -0.8176 C.ar    1  UNL1        0.0417
     11 C          -7.6113   -2.8540   -0.8249 C.ar    1  UNL1       -0.0414
     12 C          -6.4409   -3.6188   -0.7999 C.ar    1  UNL1       -0.0364
     13 C          -5.2212   -2.9317   -0.7721 C.ar    1  UNL1        0.0476
     14 N          -3.9314   -3.4105   -0.7462 N.ar    1  UNL1       -0.3541
     15 H          -3.6719   -4.3847   -0.7386 H       1  UNL1        0.1659
     16 C          -3.0239   -2.3792   -0.7345 C.ar    1  UNL1        0.0478
     17 C          -1.6243   -2.4143   -0.7151 C.ar    1  UNL1       -0.0338
     18 CL         -9.0184   -0.5530   -0.8598 Cl      1  UNL1       -0.0835
     19 C           1.1498   -1.7724    0.6146 C.2     1  UNL1        0.3630
     20 O           1.4487   -3.0024    0.5866 O.co2   1  UNL1       -0.2457
     21 O           1.2778   -0.9476    1.5682 O.co2   1  UNL1       -0.2457
     22 H           0.7806   -1.4095   -2.8530 H       1  UNL1        0.0241
     23 H           0.9481   -2.9284   -1.9662 H       1  UNL1        0.0241
     24 H           2.2667   -1.7561   -1.9516 H       1  UNL1        0.0241
     25 H          -1.1039    0.9548   -0.6537 H       1  UNL1        0.0621
     26 H          -3.5724    0.9732   -0.6860 H       1  UNL1        0.0624
     27 H          -6.2904    0.2962   -0.7738 H       1  UNL1        0.0639
     28 H          -8.5736   -3.3592   -0.8502 H       1  UNL1        0.0633
     29 H          -6.4807   -4.7034   -0.8033 H       1  UNL1        0.0639
     30 H          -1.0829   -3.3571   -0.6926 H       1  UNL1        0.0641
@<TRIPOS>BOND
     1     1     2    1
     2     1    22    1
     3     1    23    1
     4     1    24    1
     5     2     3    1
     6     2     4    1
     7     2    19    1
     8     4    17   ar
     9     4     5   ar
    10     5     6   ar
    11     5    25    1
    12     6     7   ar
    13     6    26    1
    14     7    16   ar
    15     7     8   ar
    16     8    13   ar
    17     8     9   ar
    18     9    10   ar
    19     9    27    1
    20    10    11   ar
    21    10    18    1
    22    11    12   ar
    23    11    28    1
    24    12    13   ar
    25    12    29    1
    26    13    14   ar
    27    14    15    1
    28    14    16   ar
    29    16    17   ar
    30    17    30    1
    31    19    20   ar
    32    19    21   ar
