@<TRIPOS>MOLECULE
ZINC00020228
 35 35 0 0 0
SMALL
GASTEIGER

@<TRIPOS>ATOM
      1 C           0.9675   -0.4354    0.1083 C.3     1  UNL1       -0.0142
      2 C           0.4618   -0.5562   -1.3138 C.3     1  UNL1        0.0390
      3 H           1.0186   -1.3633   -1.8088 H       1  UNL1        0.0933
      4 C          -1.0179   -0.9046   -1.5193 C.2     1  UNL1        0.2100
      5 O          -1.6894   -0.1880   -2.2694 O.2     1  UNL1       -0.2860
      6 C          -1.6368   -2.1698   -1.0364 C.ar    1  UNL1        0.0245
      7 C          -0.9055   -3.2524   -0.5336 C.ar    1  UNL1       -0.0510
      8 C          -1.5542   -4.4635   -0.2572 C.ar    1  UNL1       -0.0597
      9 C          -2.9245   -4.6027   -0.4890 C.ar    1  UNL1       -0.0433
     10 C          -3.6546   -3.5238   -0.9701 C.ar    1  UNL1        0.0416
     11 C          -3.0207   -2.3119   -1.2330 C.ar    1  UNL1       -0.0327
     12 CL         -5.3368   -3.6915   -1.2803 Cl      1  UNL1       -0.0835
     13 N           0.8527    0.6732   -2.1603 N.4     1  UNL1        0.2383
     14 C           0.5878    2.1416   -1.8468 C.3     1  UNL1       -0.0197
     15 C           1.2991    2.5860   -0.5689 C.3     1  UNL1       -0.0193
     16 C           1.1941    2.9143   -3.0369 C.3     1  UNL1       -0.0193
     17 C          -0.9052    2.4589   -1.7725 C.3     1  UNL1       -0.0193
     18 H           0.9919   -1.4079    0.6079 H       1  UNL1        0.0289
     19 H           0.3309    0.2065    0.7203 H       1  UNL1        0.0289
     20 H           1.9976   -0.0602    0.1293 H       1  UNL1        0.0289
     21 H           0.1664   -3.2184   -0.3765 H       1  UNL1        0.0625
     22 H          -0.9893   -5.3158    0.1156 H       1  UNL1        0.0618
     23 H          -3.4127   -5.5573   -0.3042 H       1  UNL1        0.0632
     24 H          -3.6132   -1.4869   -1.6337 H       1  UNL1        0.0639
     25 H           1.8436    0.5744   -2.4088 H       1  UNL1        0.2026
     26 H           2.3351    2.2344   -0.5348 H       1  UNL1        0.0287
     27 H           1.3232    3.6808   -0.5040 H       1  UNL1        0.0287
     28 H           0.7792    2.2471    0.3302 H       1  UNL1        0.0287
     29 H           0.7425    2.6043   -3.9865 H       1  UNL1        0.0287
     30 H           1.0335    3.9934   -2.9327 H       1  UNL1        0.0287
     31 H           2.2750    2.7467   -3.1110 H       1  UNL1        0.0287
     32 H          -1.4210    2.1955   -2.7015 H       1  UNL1        0.0287
     33 H          -1.3899    1.9496   -0.9345 H       1  UNL1        0.0287
     34 H          -1.0641    3.5340   -1.6249 H       1  UNL1        0.0287
     35 H           0.3304    0.5131   -3.0397 H       1  UNL1        0.2026
@<TRIPOS>UNITY_ATOM_ATTR
13 1
charge 1
@<TRIPOS>BOND
     1     1     2    1
     2     1    18    1
     3     1    19    1
     4     1    20    1
     5     2     3    1
     6     2     4    1
     7     2    13    1
     8     4     5    2
     9     4     6    1
    10     6    11   ar
    11     6     7   ar
    12     7     8   ar
    13     7    21    1
    14     8     9   ar
    15     8    22    1
    16     9    10   ar
    17     9    23    1
    18    10    11   ar
    19    10    12    1
    20    11    24    1
    21    13    14    1
    22    13    25    1
    23    13    35    1
    24    14    15    1
    25    14    16    1
    26    14    17    1
    27    15    26    1
    28    15    27    1
    29    15    28    1
    30    16    29    1
    31    16    30    1
    32    16    31    1
    33    17    32    1
    34    17    33    1
    35    17    34    1
