@<TRIPOS>MOLECULE
ZINC00895099
 19 18 0 0 0
SMALL
GASTEIGER

@<TRIPOS>ATOM
      1 CG1         1.1330    0.0840   -0.0471 C.3     1  VAL1       -0.0570
      2 CB          0.5708    0.6236   -1.3683 C.3     1  VAL1        0.0070
      3 CG2         1.1583   -0.2015   -2.5209 C.3     1  VAL1       -0.0570
      4 CA         -0.9698    0.6225   -1.3574 C.3     1  VAL1        0.0809
      5 HA         -1.3822   -0.3839   -1.2257 H       1  VAL1        0.0972
      6 C          -1.5178    1.5966   -0.2637 C.2     1  VAL1        0.4029
      7 O          -1.7142    2.7510   -0.7608 O.co2   1  VAL1       -0.2400
      8 HG11        0.8380   -0.9587    0.1116 H       1  VAL1        0.0234
      9 HG12        0.7942    0.6714    0.8113 H       1  VAL1        0.0234
     10 HG13        2.2293    0.1264   -0.0495 H       1  VAL1        0.0234
     11 HB          0.9273    1.6574   -1.4808 H       1  VAL1        0.0356
     12 HG21        0.8478   -1.2498   -2.4549 H       1  VAL1        0.0234
     13 HG22        0.8559    0.1839   -3.4986 H       1  VAL1        0.0234
     14 HG23        2.2536   -0.1735   -2.4963 H       1  VAL1        0.0234
     15 H1         -1.1720    2.0952   -2.7621 H       1  VAL1        0.2003
     16 H2         -1.2451    0.5537   -3.5217 H       1  VAL1        0.2003
     17 OXT        -1.8222    1.0885    0.8378 O.co2   1  VAL1       -0.2400
     18 N          -1.4832    1.1079   -2.7031 N.4     1  VAL1        0.2291
     19 H3         -2.4996    1.2173   -2.6012 H       1  VAL1        0.2003
@<TRIPOS>UNITY_ATOM_ATTR
18 1
charge 1
@<TRIPOS>BOND
     1     1     2    1
     2     1     8    1
     3     1     9    1
     4     1    10    1
     5     2     3    1
     6     2     4    1
     7     2    11    1
     8     3    12    1
     9     3    13    1
    10     3    14    1
    11     4     5    1
    12     4     6    1
    13     4    18    1
    14     6     7   ar
    15     6    17   ar
    16    15    18    1
    17    16    18    1
    18    18    19    1
