@<TRIPOS>MOLECULE
ZINC01540228
 51 54 0 0 0
SMALL
GASTEIGER

@<TRIPOS>ATOM
      1 C           0.1319   -0.0303   -0.3868 C.3     1  UNL1       -0.0354
      2 C           0.0497    1.2481   -1.1506 C.ar    1  UNL1        0.0077
      3 C          -0.5430    1.4739   -2.4070 C.ar    1  UNL1        0.0783
      4 N          -0.2847    2.8361   -2.6608 N.ar    1  UNL1       -0.2297
      5 N           0.4690    3.4270   -1.6780 N.ar    1  UNL1       -0.1608
      6 C           0.6644    2.4866   -0.7438 C.ar    1  UNL1        0.1522
      7 C           1.4474    2.7443    0.5249 C.2     1  UNL1        0.2781
      8 O           1.5998    1.8873    1.3838 O.2     1  UNL1       -0.2671
      9 N           1.9967    4.0421    0.6357 N.am    1  UNL1       -0.2429
     10 N           2.7534    4.5105    1.7582 N.3     1  UNL1       -0.2268
     11 C           1.9773    4.6295    3.0051 C.3     1  UNL1        0.0167
     12 C           2.7565    5.4890    4.0083 C.3     1  UNL1       -0.0386
     13 C           4.1318    4.8970    4.3192 C.3     1  UNL1       -0.0506
     14 C           4.8779    4.5465    3.0312 C.3     1  UNL1       -0.0386
     15 C           4.0047    3.7775    2.0229 C.3     1  UNL1        0.0167
     16 C          -0.7822    3.6603   -3.7211 C.ar    1  UNL1        0.0844
     17 C          -2.1067    3.4757   -4.1633 C.ar    1  UNL1       -0.0334
     18 C          -2.6054    4.2031   -5.2483 C.ar    1  UNL1       -0.0413
     19 C          -1.8051    5.1603   -5.8618 C.ar    1  UNL1        0.0425
     20 C          -0.5046    5.3806   -5.4164 C.ar    1  UNL1       -0.0230
     21 C           0.0168    4.6290   -4.3509 C.ar    1  UNL1        0.0677
     22 CL          1.6973    4.8750   -4.0143 Cl      1  UNL1       -0.0813
     23 CL         -2.4268    6.0679   -7.1839 Cl      1  UNL1       -0.0835
     24 C          -1.2109    0.5085   -3.3504 C.ar    1  UNL1        0.0008
     25 C          -1.1841    0.6698   -4.7520 C.ar    1  UNL1       -0.0512
     26 C          -1.9081   -0.1695   -5.6145 C.ar    1  UNL1       -0.0428
     27 C          -2.5705   -1.2806   -5.1125 C.ar    1  UNL1        0.0410
     28 C          -2.5487   -1.5247   -3.7485 C.ar    1  UNL1       -0.0428
     29 C          -1.9200   -0.6144   -2.8857 C.ar    1  UNL1       -0.0512
     30 CL         -3.4272   -2.3348   -6.1633 Cl      1  UNL1       -0.0835
     31 H          -0.7614   -0.6396   -0.4599 H       1  UNL1        0.0279
     32 H           0.2453    0.1321    0.6909 H       1  UNL1        0.0279
     33 H           0.9828   -0.6236   -0.7462 H       1  UNL1        0.0279
     34 H           1.8041    4.6842   -0.1326 H       1  UNL1        0.1696
     35 H           1.7726    3.6455    3.4433 H       1  UNL1        0.0443
     36 H           1.0119    5.1119    2.8106 H       1  UNL1        0.0443
     37 H           2.1871    5.5947    4.9407 H       1  UNL1        0.0278
     38 H           2.8883    6.5007    3.6032 H       1  UNL1        0.0278
     39 H           4.7184    5.6065    4.9102 H       1  UNL1        0.0266
     40 H           4.0133    3.9974    4.9349 H       1  UNL1        0.0266
     41 H           5.2367    5.4744    2.5689 H       1  UNL1        0.0278
     42 H           5.7689    3.9577    3.2826 H       1  UNL1        0.0278
     43 H           4.5784    3.6584    1.0953 H       1  UNL1        0.0443
     44 H           3.8053    2.7736    2.4160 H       1  UNL1        0.0443
     45 H          -2.7698    2.7550   -3.6861 H       1  UNL1        0.0640
     46 H          -3.6141    4.0125   -5.6078 H       1  UNL1        0.0633
     47 H           0.1164    6.1197   -5.9192 H       1  UNL1        0.0647
     48 H          -0.6259    1.4755   -5.2167 H       1  UNL1        0.0625
     49 H          -1.9465    0.0526   -6.6782 H       1  UNL1        0.0632
     50 H          -3.0329   -2.4073   -3.3390 H       1  UNL1        0.0632
     51 H          -2.0422   -0.8157   -1.8283 H       1  UNL1        0.0625
@<TRIPOS>BOND
     1     1     2    1
     2     1    31    1
     3     1    32    1
     4     1    33    1
     5     2     6   ar
     6     2     3   ar
     7     3     4   ar
     8     3    24    1
     9     4     5   ar
    10     4    16    1
    11     5     6   ar
    12     6     7    1
    13     7     8    2
    14     7     9   am
    15     9    10    1
    16     9    34    1
    17    10    15    1
    18    10    11    1
    19    11    12    1
    20    11    35    1
    21    11    36    1
    22    12    13    1
    23    12    37    1
    24    12    38    1
    25    13    14    1
    26    13    39    1
    27    13    40    1
    28    14    15    1
    29    14    41    1
    30    14    42    1
    31    15    43    1
    32    15    44    1
    33    16    21   ar
    34    16    17   ar
    35    17    18   ar
    36    17    45    1
    37    18    19   ar
    38    18    46    1
    39    19    20   ar
    40    19    23    1
    41    20    21   ar
    42    20    47    1
    43    21    22    1
    44    24    29   ar
    45    24    25   ar
    46    25    26   ar
    47    25    48    1
    48    26    27   ar
    49    26    49    1
    50    27    28   ar
    51    27    30    1
    52    28    29   ar
    53    28    50    1
    54    29    51    1
