@<TRIPOS>MOLECULE
ZINC00537928
 68 71 0 0 0
SMALL
GASTEIGER

@<TRIPOS>ATOM
      1 C          -1.8156    5.0549    5.5954 C.3     1  UNL1        0.0029
      2 N          -0.7281    5.0392    4.6230 N.am    1  UNL1       -0.3066
      3 C           0.2830    6.0559    4.8423 C.3     1  UNL1        0.0029
      4 C          -0.8298    4.1197    3.5938 C.2     1  UNL1        0.2302
      5 O          -1.8787    3.4507    3.5264 O.2     1  UNL1       -0.2743
      6 C           0.2576    3.8811    2.4599 C.3     1  UNL1        0.1016
      7 C          -0.3066    2.6618    1.5506 C.3     1  UNL1        0.0095
      8 C          -1.6636    2.7180    0.7816 C.3     1  UNL1       -0.0303
      9 N          -1.7760    3.7943   -0.2729 N.4     1  UNL1        0.2354
     10 C          -3.1979    4.1494   -0.6792 C.3     1  UNL1       -0.0289
     11 C          -3.6204    3.5516   -2.0098 C.3     1  UNL1        0.0207
     12 C          -2.6146    3.8762   -3.1279 C.3     1  UNL1        0.1005
     13 C          -1.3164    3.1904   -2.7092 C.3     1  UNL1        0.0207
     14 C          -0.7739    3.6835   -1.3858 C.3     1  UNL1       -0.0289
     15 C          -2.5502    5.3761   -3.4370 C.ar    1  UNL1       -0.0157
     16 C          -3.7332    6.0652   -3.7721 C.ar    1  UNL1       -0.0545
     17 C          -3.7560    7.4599   -3.8939 C.ar    1  UNL1       -0.0430
     18 C          -2.5935    8.1919   -3.6875 C.ar    1  UNL1        0.0410
     19 C          -1.3965    7.5334   -3.4406 C.ar    1  UNL1       -0.0430
     20 C          -1.3705    6.1365   -3.3638 C.ar    1  UNL1       -0.0545
     21 CL         -2.6280    9.9082   -3.7403 Cl      1  UNL1       -0.0835
     22 O          -3.0568    3.2112   -4.3066 O.3     1  UNL1       -0.3836
     23 C           0.5065    5.0722    1.4820 C.ar    1  UNL1       -0.0279
     24 C           1.4912    4.9242    0.4676 C.ar    1  UNL1       -0.0573
     25 C           1.8726    5.9845   -0.3525 C.ar    1  UNL1       -0.0615
     26 C           1.2820    7.2272   -0.1785 C.ar    1  UNL1       -0.0617
     27 C           0.2999    7.3974    0.7960 C.ar    1  UNL1       -0.0615
     28 C          -0.1026    6.3278    1.6059 C.ar    1  UNL1       -0.0573
     29 C           1.6465    3.4328    3.0781 C.ar    1  UNL1       -0.0279
     30 C           2.7217    4.3519    3.2058 C.ar    1  UNL1       -0.0573
     31 C           4.0060    3.9654    3.5875 C.ar    1  UNL1       -0.0615
     32 C           4.2666    2.6284    3.8467 C.ar    1  UNL1       -0.0617
     33 C           3.2328    1.7008    3.7682 C.ar    1  UNL1       -0.0615
     34 C           1.9351    2.0970    3.4118 C.ar    1  UNL1       -0.0573
     35 H          -1.6458    5.8187    6.3582 H       1  UNL1        0.0428
     36 H          -1.8831    4.0752    6.0789 H       1  UNL1        0.0428
     37 H          -2.7596    5.2682    5.0826 H       1  UNL1        0.0428
     38 H           1.0738    6.0353    4.1102 H       1  UNL1        0.0428
     39 H          -0.2039    7.0347    4.7754 H       1  UNL1        0.0428
     40 H           0.7031    5.9334    5.8435 H       1  UNL1        0.0428
     41 H           0.4764    2.3368    0.8542 H       1  UNL1        0.0333
     42 H          -0.4458    1.7974    2.2144 H       1  UNL1        0.0333
     43 H          -1.8150    1.7678    0.2538 H       1  UNL1        0.0815
     44 H          -2.5118    2.8368    1.4572 H       1  UNL1        0.0815
     45 H          -3.2349    5.2439   -0.7195 H       1  UNL1        0.0815
     46 H          -3.8767    3.8338    0.1205 H       1  UNL1        0.0815
     47 H          -4.6276    3.9040   -2.2675 H       1  UNL1        0.0348
     48 H          -3.7319    2.4627   -1.9109 H       1  UNL1        0.0348
     49 H          -1.4843    2.1051   -2.6417 H       1  UNL1        0.0348
     50 H          -0.5515    3.2998   -3.4885 H       1  UNL1        0.0348
     51 H           0.0360    3.0223   -1.0738 H       1  UNL1        0.0815
     52 H          -0.3530    4.6796   -1.4821 H       1  UNL1        0.0815
     53 H          -4.6622    5.5197   -3.9392 H       1  UNL1        0.0622
     54 H          -4.6864    7.9674   -4.1393 H       1  UNL1        0.0632
     55 H          -0.4771    8.0998   -3.3078 H       1  UNL1        0.0632
     56 H          -0.3925    5.6837   -3.2370 H       1  UNL1        0.0622
     57 H          -2.5405    3.5336   -5.0701 H       1  UNL1        0.2106
     58 H           2.0291    3.9809    0.3509 H       1  UNL1        0.0621
     59 H           2.6605    5.8477   -1.0905 H       1  UNL1        0.0618
     60 H           1.6115    8.0733   -0.7781 H       1  UNL1        0.0618
     61 H          -0.1220    8.3890    0.9567 H       1  UNL1        0.0618
     62 H          -0.8493    6.5329    2.3691 H       1  UNL1        0.0621
     63 H           2.6090    5.4057    2.9577 H       1  UNL1        0.0621
     64 H           4.8031    4.7011    3.6463 H       1  UNL1        0.0618
     65 H           5.2732    2.3124    4.1097 H       1  UNL1        0.0618
     66 H           3.4444    0.6520    3.9710 H       1  UNL1        0.0618
     67 H           1.1838    1.3149    3.3714 H       1  UNL1        0.0621
     68 H          -1.4978    4.6405    0.2378 H       1  UNL1        0.2033
@<TRIPOS>UNITY_ATOM_ATTR
9 1
charge 1
@<TRIPOS>BOND
     1     1     2    1
     2     1    35    1
     3     1    36    1
     4     1    37    1
     5     2     3    1
     6     2     4   am
     7     3    38    1
     8     3    39    1
     9     3    40    1
    10     4     5    2
    11     4     6    1
    12     6     7    1
    13     6    23    1
    14     6    29    1
    15     7     8    1
    16     7    41    1
    17     7    42    1
    18     8    43    1
    19     8    44    1
    20     9    14    1
    21     9    10    1
    22    10    11    1
    23    10    45    1
    24    10    46    1
    25    11    12    1
    26    11    47    1
    27    11    48    1
    28    12    13    1
    29    13    14    1
    30    13    49    1
    31    13    50    1
    32    14    51    1
    33    14    52    1
    34    15    20   ar
    35    15    16   ar
    36    16    17   ar
    37    16    53    1
    38    17    18   ar
    39    17    54    1
    40    18    19   ar
    41    18    21    1
    42    19    20   ar
    43    19    55    1
    44    20    56    1
    45    22    57    1
    46    23    28   ar
    47    23    24   ar
    48    24    25   ar
    49    24    58    1
    50    25    26   ar
    51    25    59    1
    52    26    27   ar
    53    26    60    1
    54    27    28   ar
    55    27    61    1
    56    28    62    1
    57    29    34   ar
    58    29    30   ar
    59    30    31   ar
    60    30    63    1
    61    31    32   ar
    62    31    64    1
    63    32    33   ar
    64    32    65    1
    65    33    34   ar
    66    33    66    1
    67    34    67    1
    68     9    68    1
    69     9     8    1
    70    12    22    1
    71    12    15    1
