@<TRIPOS>MOLECULE
ZINC00003642
 41 43 0 0 0
SMALL
GASTEIGER

@<TRIPOS>ATOM
      1 C           1.0498    0.5797    2.4417 C.3     1  UNL1       -0.0612
      2 C           0.6139    1.0378    1.0583 C.3     1  UNL1       -0.0286
      3 C           1.0749    2.4345    0.7301 C.ar    1  UNL1       -0.0237
      4 C           0.3253    3.5480    1.1558 C.ar    1  UNL1       -0.0566
      5 C           0.6877    4.8515    0.8211 C.ar    1  UNL1       -0.0608
      6 C           1.8202    5.0961    0.0416 C.ar    1  UNL1       -0.0523
      7 C           2.6090    4.0130   -0.3875 C.ar    1  UNL1        0.0035
      8 C           2.2325    2.7170   -0.0234 C.ar    1  UNL1        0.0502
      9 N           3.1743    1.8615   -0.5654 N.ar    1  UNL1       -0.3552
     10 H           3.1690    0.8575   -0.4649 H       1  UNL1        0.1657
     11 C           4.0971    2.5665   -1.2904 C.ar    1  UNL1        0.0531
     12 C           3.7654    3.9002   -1.2046 C.ar    1  UNL1       -0.0141
     13 C           4.5196    4.9264   -1.9663 C.3     1  UNL1       -0.0018
     14 C           5.7597    4.3162   -2.6406 C.3     1  UNL1        0.0529
     15 O           5.5736    2.9673   -3.0825 O.3     1  UNL1       -0.3664
     16 C           5.2583    1.9730   -2.0668 C.3     1  UNL1        0.1192
     17 C           6.4702    1.7624   -1.1158 C.3     1  UNL1       -0.0205
     18 C           6.2639    0.7330   -0.0056 C.3     1  UNL1       -0.0623
     19 C           4.8023    0.7177   -2.8222 C.3     1  UNL1        0.0837
     20 C           5.8911    0.0059   -3.6150 C.2     1  UNL1        0.3591
     21 O           6.7398   -0.6255   -2.9205 O.co2   1  UNL1       -0.2463
     22 O           5.7632    0.0253   -4.8712 O.co2   1  UNL1       -0.2463
     23 H           2.1298    0.6898    2.5800 H       1  UNL1        0.0233
     24 H           0.7933   -0.4741    2.5841 H       1  UNL1        0.0233
     25 H           0.5465    1.1559    3.2244 H       1  UNL1        0.0233
     26 H           0.9999    0.3376    0.3091 H       1  UNL1        0.0311
     27 H          -0.4794    0.9881    0.9804 H       1  UNL1        0.0311
     28 H          -0.5763    3.3917    1.7459 H       1  UNL1        0.0621
     29 H           0.0754    5.6861    1.1511 H       1  UNL1        0.0618
     30 H           2.0857    6.1101   -0.2390 H       1  UNL1        0.0624
     31 H           4.8213    5.7598   -1.3228 H       1  UNL1        0.0336
     32 H           3.8556    5.3342   -2.7381 H       1  UNL1        0.0336
     33 H           6.6373    4.3761   -1.9906 H       1  UNL1        0.0563
     34 H           5.9997    4.9122   -3.5280 H       1  UNL1        0.0563
     35 H           7.3587    1.4980   -1.7007 H       1  UNL1        0.0294
     36 H           6.7396    2.7069   -0.6265 H       1  UNL1        0.0294
     37 H           5.9390   -0.2365   -0.3903 H       1  UNL1        0.0231
     38 H           7.2022    0.5777    0.5377 H       1  UNL1        0.0231
     39 H           5.5252    1.0771    0.7252 H       1  UNL1        0.0231
     40 H           4.3765   -0.0284   -2.1405 H       1  UNL1        0.0411
     41 H           3.9952    0.9840   -3.5212 H       1  UNL1        0.0411
@<TRIPOS>BOND
     1     1     2    1
     2     1    23    1
     3     1    24    1
     4     1    25    1
     5     2     3    1
     6     2    26    1
     7     2    27    1
     8     3     8   ar
     9     3     4   ar
    10     4     5   ar
    11     4    28    1
    12     5     6   ar
    13     5    29    1
    14     6     7   ar
    15     6    30    1
    16     7    12   ar
    17     7     8   ar
    18     8     9   ar
    19     9    10    1
    20     9    11   ar
    21    11    16    1
    22    11    12   ar
    23    12    13    1
    24    13    14    1
    25    13    31    1
    26    13    32    1
    27    14    15    1
    28    14    33    1
    29    14    34    1
    30    15    16    1
    31    17    18    1
    32    17    35    1
    33    17    36    1
    34    18    37    1
    35    18    38    1
    36    18    39    1
    37    19    20    1
    38    19    40    1
    39    19    41    1
    40    20    21   ar
    41    20    22   ar
    42    16    19    1
    43    16    17    1
