@<TRIPOS>MOLECULE
ZINC00967917
 42 42 0 0 0
SMALL
GASTEIGER

@<TRIPOS>ATOM
      1 C           3.2601    1.9825   -1.9249 C.3     1  UNL1       -0.0219
      2 C           2.2006    2.2347   -2.9913 C.3     1  UNL1       -0.0283
      3 C           2.3286    1.2028   -4.1108 C.3     1  UNL1       -0.0219
      4 N           0.8195    2.1180   -2.4081 N.4     1  UNL1        0.2307
      5 C           0.4171    3.0651   -1.2924 C.3     1  UNL1       -0.0035
      6 C          -1.0727    2.8096   -0.9687 C.3     1  UNL1        0.1285
      7 H          -1.1590    1.8173   -0.5068 H       1  UNL1        0.0681
      8 C          -1.6619    3.8687   -0.0176 C.3     1  UNL1        0.1204
      9 O          -0.9474    3.8227    1.2150 O.3     1  UNL1       -0.4892
     10 C          -1.1092    4.8875    2.0608 C.ar    1  UNL1        0.1207
     11 C          -2.1708    5.7922    2.0632 C.ar    1  UNL1       -0.0182
     12 C          -2.1857    6.8683    2.9703 C.ar    1  UNL1       -0.0370
     13 C          -1.1502    7.0412    3.8922 C.ar    1  UNL1        0.0336
     14 C          -0.1089    6.1077    3.9074 C.ar    1  UNL1       -0.0370
     15 C          -0.0940    5.0375    3.0052 C.ar    1  UNL1       -0.0182
     16 N          -1.0761    8.0898    4.8323 N.am    1  UNL1       -0.2857
     17 C          -1.9616    9.1404    5.0041 C.2     1  UNL1        0.2141
     18 O          -2.9647    9.3683    4.3424 O.2     1  UNL1       -0.2758
     19 C          -1.5406   10.0450    6.1423 C.3     1  UNL1        0.0125
     20 O          -1.7801    2.7604   -2.2161 O.3     1  UNL1       -0.3831
     21 H           3.0468    1.0756   -1.3491 H       1  UNL1        0.0284
     22 H           3.3268    2.8237   -1.2283 H       1  UNL1        0.0284
     23 H           4.2504    1.8624   -2.3812 H       1  UNL1        0.0284
     24 H           2.2951    3.2456   -3.4026 H       1  UNL1        0.0845
     25 H           2.2092    0.1817   -3.7300 H       1  UNL1        0.0284
     26 H           1.5781    1.3646   -4.8908 H       1  UNL1        0.0284
     27 H           3.3163    1.2651   -4.5827 H       1  UNL1        0.0284
     28 H           0.1157    2.2847   -3.1499 H       1  UNL1        0.2017
     29 H           1.0647    2.8776   -0.4327 H       1  UNL1        0.0841
     30 H           0.5709    4.0755   -1.6867 H       1  UNL1        0.0841
     31 H          -1.5908    4.8574   -0.4872 H       1  UNL1        0.0725
     32 H          -2.7223    3.6453    0.1563 H       1  UNL1        0.0725
     33 H          -3.0154    5.6917    1.3876 H       1  UNL1        0.0655
     34 H          -3.0279    7.5546    2.9367 H       1  UNL1        0.0637
     35 H           0.7079    6.1988    4.6182 H       1  UNL1        0.0637
     36 H           0.7224    4.3238    3.0462 H       1  UNL1        0.0655
     37 H          -0.2778    8.0762    5.4557 H       1  UNL1        0.1548
     38 H          -1.4917    9.4737    7.0740 H       1  UNL1        0.0323
     39 H          -0.5627   10.4877    5.9305 H       1  UNL1        0.0323
     40 H          -2.2705   10.8504    6.2652 H       1  UNL1        0.0323
     41 H          -2.7368    2.6752   -2.0191 H       1  UNL1        0.2102
     42 H           0.6440    1.1497   -2.1098 H       1  UNL1        0.2017
@<TRIPOS>UNITY_ATOM_ATTR
4 1
charge 1
@<TRIPOS>BOND
     1     1     2    1
     2     1    21    1
     3     1    22    1
     4     1    23    1
     5     2     3    1
     6     2     4    1
     7     2    24    1
     8     3    25    1
     9     3    26    1
    10     3    27    1
    11     4     5    1
    12     4    28    1
    13     4    42    1
    14     5     6    1
    15     5    29    1
    16     5    30    1
    17     6     7    1
    18     6     8    1
    19     6    20    1
    20     8     9    1
    21     8    31    1
    22     8    32    1
    23     9    10    1
    24    10    15   ar
    25    10    11   ar
    26    11    12   ar
    27    11    33    1
    28    12    13   ar
    29    12    34    1
    30    13    14   ar
    31    13    16    1
    32    14    15   ar
    33    14    35    1
    34    15    36    1
    35    16    17   am
    36    16    37    1
    37    17    18    2
    38    17    19    1
    39    19    38    1
    40    19    39    1
    41    19    40    1
    42    20    41    1
