@<TRIPOS>MOLECULE
ZINC00056645
 39 40 0 0 0
SMALL
GASTEIGER

@<TRIPOS>ATOM
      1 C          -3.1864   -2.5555    1.2908 C.3     1  UNL1       -0.0219
      2 C          -1.6755   -2.3829    1.1911 C.3     1  UNL1       -0.0283
      3 C          -0.9673   -3.5402    1.8950 C.3     1  UNL1       -0.0219
      4 N          -1.2364   -2.3825   -0.2429 N.4     1  UNL1        0.2307
      5 C          -1.7923   -1.3258   -1.1876 C.3     1  UNL1       -0.0035
      6 C          -1.1223   -1.5602   -2.5509 C.3     1  UNL1        0.1285
      7 H          -1.3848   -2.5677   -2.8978 H       1  UNL1        0.0681
      8 C          -1.5344   -0.5811   -3.6654 C.3     1  UNL1        0.1204
      9 O          -1.2037    0.7769   -3.3669 O.3     1  UNL1       -0.4885
     10 C          -1.6932    1.6658   -4.3335 C.ar    1  UNL1        0.1297
     11 C          -2.2552    2.8524   -3.8261 C.ar    1  UNL1       -0.0192
     12 C          -2.8229    3.8043   -4.6754 C.ar    1  UNL1       -0.0563
     13 C          -2.8503    3.6122   -6.0553 C.ar    1  UNL1       -0.0376
     14 C          -2.2206    2.4693   -6.5605 C.ar    1  UNL1        0.0500
     15 C          -1.6114    1.5024   -5.7476 C.ar    1  UNL1        0.0413
     16 C          -0.9912    0.5810   -6.6454 C.ar    1  UNL1       -0.0332
     17 C          -1.2912    0.9465   -7.9357 C.ar    1  UNL1        0.0028
     18 N          -2.0547    2.0759   -7.8732 N.ar    1  UNL1       -0.3605
     19 H          -2.4011    2.5933   -8.6744 H       1  UNL1        0.1653
     20 O           0.2976   -1.5886   -2.3200 O.3     1  UNL1       -0.3831
     21 H          -3.5504   -3.3505    0.6303 H       1  UNL1        0.0284
     22 H          -3.7044   -1.6276    1.0285 H       1  UNL1        0.0284
     23 H          -3.4828   -2.8109    2.3145 H       1  UNL1        0.0284
     24 H          -1.3608   -1.4295    1.6272 H       1  UNL1        0.0845
     25 H          -1.2476   -4.5065    1.4594 H       1  UNL1        0.0284
     26 H           0.1211   -3.4417    1.8289 H       1  UNL1        0.0284
     27 H          -1.2345   -3.5678    2.9575 H       1  UNL1        0.0284
     28 H          -0.2098   -2.2458   -0.2926 H       1  UNL1        0.2017
     29 H          -2.8754   -1.4554   -1.2405 H       1  UNL1        0.0841
     30 H          -1.5240   -0.3585   -0.7540 H       1  UNL1        0.0841
     31 H          -0.9768   -0.8988   -4.5447 H       1  UNL1        0.0725
     32 H          -2.6111   -0.6759   -3.8538 H       1  UNL1        0.0725
     33 H          -2.2538    3.0410   -2.7564 H       1  UNL1        0.0654
     34 H          -3.2558    4.7135   -4.2613 H       1  UNL1        0.0619
     35 H          -3.2985    4.3485   -6.7153 H       1  UNL1        0.0638
     36 H          -0.3607   -0.2599   -6.3972 H       1  UNL1        0.0640
     37 H          -1.0186    0.5098   -8.8859 H       1  UNL1        0.0807
     38 H           0.7491   -1.4227   -3.1733 H       1  UNL1        0.2102
     39 H          -1.3816   -3.3142   -0.6513 H       1  UNL1        0.2017
@<TRIPOS>UNITY_ATOM_ATTR
4 1
charge 1
@<TRIPOS>BOND
     1     1     2    1
     2     1    21    1
     3     1    22    1
     4     1    23    1
     5     2     3    1
     6     2     4    1
     7     2    24    1
     8     3    25    1
     9     3    26    1
    10     3    27    1
    11     4     5    1
    12     4    28    1
    13     4    39    1
    14     5     6    1
    15     5    29    1
    16     5    30    1
    17     6     7    1
    18     6     8    1
    19     6    20    1
    20     8     9    1
    21     8    31    1
    22     8    32    1
    23     9    10    1
    24    10    15   ar
    25    10    11   ar
    26    11    12   ar
    27    11    33    1
    28    12    13   ar
    29    12    34    1
    30    13    14   ar
    31    13    35    1
    32    14    18   ar
    33    14    15   ar
    34    15    16   ar
    35    16    17   ar
    36    16    36    1
    37    17    18   ar
    38    17    37    1
    39    18    19    1
    40    20    38    1
