@<TRIPOS>MOLECULE
ZINC03831581
 51 55 0 0 0
SMALL
GASTEIGER

@<TRIPOS>ATOM
      1 C           5.7930    4.1315   -1.0622 C.ar    1  UNL1       -0.0617
      2 C           5.4308    3.6032    0.1763 C.ar    1  UNL1       -0.0615
      3 C           4.2953    2.8097    0.2805 C.ar    1  UNL1       -0.0571
      4 C           3.5111    2.5596   -0.8533 C.ar    1  UNL1       -0.0300
      5 C           3.9292    3.0152   -2.1084 C.ar    1  UNL1       -0.0571
      6 C           5.0639    3.8134   -2.2074 C.ar    1  UNL1       -0.0615
      7 C           2.1320    2.0054   -0.6718 C.3     1  UNL1        0.0416
      8 N           1.2459    3.0480   -0.1843 N.am    1  UNL1       -0.2755
      9 C           0.9268    4.2251   -0.9743 C.3     1  UNL1        0.0557
     10 H           1.3037    4.1345   -1.9984 H       1  UNL1        0.0528
     11 C           1.3997    5.5395   -0.3328 C.3     1  UNL1        0.0059
     12 S           0.4254    6.8037   -1.2305 S.3     1  UNL1       -0.2015
     13 C          -0.0155    7.9105    0.1537 C.3     1  UNL1       -0.0146
     14 C          -1.5126    7.7548    0.3467 C.3     1  UNL1       -0.0437
     15 C          -1.7504    6.2600    0.3168 C.3     1  UNL1       -0.0394
     16 C          -1.0872    5.7335   -0.9593 C.3     1  UNL1        0.0171
     17 H          -1.7286    5.9260   -1.8261 H       1  UNL1        0.0423
     18 C          -0.6124    4.2629   -0.9575 C.3     1  UNL1        0.0582
     19 H          -0.9952    3.7297   -1.8363 H       1  UNL1        0.0530
     20 N          -0.9303    3.4527    0.2088 N.am    1  UNL1       -0.2753
     21 C           0.1628    2.6736    0.5889 C.2     1  UNL1        0.3060
     22 O           0.1550    1.7802    1.4120 O.2     1  UNL1       -0.2524
     23 C          -2.2722    3.1358    0.6291 C.3     1  UNL1        0.0416
     24 C          -2.8671    1.8456    0.1252 C.ar    1  UNL1       -0.0300
     25 C          -3.7521    1.8444   -0.9601 C.ar    1  UNL1       -0.0571
     26 C          -4.5550    0.7290   -1.2031 C.ar    1  UNL1       -0.0615
     27 C          -4.4485   -0.4013   -0.3932 C.ar    1  UNL1       -0.0617
     28 C          -3.4868   -0.4499    0.6115 C.ar    1  UNL1       -0.0615
     29 C          -2.6906    0.6646    0.8607 C.ar    1  UNL1       -0.0571
     30 H           6.6401    4.8048   -1.1340 H       1  UNL1        0.0618
     31 H           6.0072    3.8415    1.0649 H       1  UNL1        0.0618
     32 H           3.9767    2.4427    1.2542 H       1  UNL1        0.0621
     33 H           3.3325    2.8131   -2.9965 H       1  UNL1        0.0621
     34 H           5.3485    4.2287   -3.1701 H       1  UNL1        0.0618
     35 H           1.7153    1.6322   -1.6159 H       1  UNL1        0.0514
     36 H           2.1442    1.1525    0.0169 H       1  UNL1        0.0514
     37 H           2.4666    5.7306   -0.4793 H       1  UNL1        0.0387
     38 H           1.1852    5.5709    0.7412 H       1  UNL1        0.0387
     39 H           0.5363    7.6456    1.0594 H       1  UNL1        0.0369
     40 H           0.2373    8.9382   -0.1216 H       1  UNL1        0.0369
     41 H          -2.0664    8.2381   -0.4682 H       1  UNL1        0.0273
     42 H          -1.8510    8.1979    1.2883 H       1  UNL1        0.0273
     43 H          -1.3128    5.8150    1.2185 H       1  UNL1        0.0276
     44 H          -2.8234    6.0487    0.3219 H       1  UNL1        0.0276
     45 H          -2.2736    3.1158    1.7254 H       1  UNL1        0.0514
     46 H          -2.9396    3.9482    0.3390 H       1  UNL1        0.0514
     47 H          -3.8766    2.7328   -1.5739 H       1  UNL1        0.0621
     48 H          -5.2976    0.7575   -1.9958 H       1  UNL1        0.0618
     49 H          -5.1217   -1.2416   -0.5367 H       1  UNL1        0.0618
     50 H          -3.3829   -1.3339    1.2343 H       1  UNL1        0.0618
     51 H          -1.9733    0.6284    1.6791 H       1  UNL1        0.0621
@<TRIPOS>BOND
     1     1     6   ar
     2     1     2   ar
     3     1    30    1
     4     2     3   ar
     5     2    31    1
     6     3     4   ar
     7     3    32    1
     8     4     5   ar
     9     4     7    1
    10     5     6   ar
    11     5    33    1
    12     6    34    1
    13     7     8    1
    14     7    35    1
    15     7    36    1
    16     8    21   am
    17     8     9    1
    18     9    10    1
    19     9    18    1
    20     9    11    1
    21    11    37    1
    22    11    38    1
    23    12    11    1
    24    12    16    1
    25    12    13    1
    26    13    14    1
    27    13    39    1
    28    13    40    1
    29    14    15    1
    30    14    41    1
    31    14    42    1
    32    15    16    1
    33    15    43    1
    34    15    44    1
    35    16    17    1
    36    16    18    1
    37    18    19    1
    38    18    20    1
    39    20    21   am
    40    20    23    1
    41    21    22    2
    42    23    24    1
    43    23    45    1
    44    23    46    1
    45    24    29   ar
    46    24    25   ar
    47    25    26   ar
    48    25    47    1
    49    26    27   ar
    50    26    48    1
    51    27    28   ar
    52    27    49    1
    53    28    29   ar
    54    28    50    1
    55    29    51    1
