@<TRIPOS>MOLECULE
ZINC00057435
 44 45 0 0 0
SMALL
GASTEIGER

@<TRIPOS>ATOM
      1 C          -3.0951   -0.3441    0.0938 C.3     1  UNL1       -0.0394
      2 C          -1.6449    0.0717    0.0480 C.ar    1  UNL1       -0.0460
      3 C          -0.7059   -0.9832    0.0315 C.ar    1  UNL1       -0.0514
      4 C           0.6804   -0.7739   -0.0523 C.ar    1  UNL1       -0.0001
      5 C           1.1010    0.5639   -0.1379 C.ar    1  UNL1        0.1237
      6 C           0.1920    1.6516   -0.1756 C.ar    1  UNL1       -0.0048
      7 C          -1.1957    1.4059   -0.0060 C.ar    1  UNL1       -0.0267
      8 C          -2.1808    2.5564    0.0886 C.3     1  UNL1        0.0721
      9 C          -2.7498    3.0143   -1.2010 C.2     1  UNL1        0.2428
     10 N          -2.4374    2.5105   -2.3789 N.2     1  UNL1       -0.2754
     11 C          -3.1016    3.2742   -3.4422 C.3     1  UNL1        0.1197
     12 C          -4.0761    4.1681   -2.6592 C.3     1  UNL1        0.1149
     13 N          -3.6347    3.9922   -1.2661 N.pl3   1  UNL1       -0.2367
     14 C           0.7316    3.0424   -0.4221 C.3     1  UNL1       -0.0360
     15 O           2.4447    0.8090   -0.2126 O.3     1  UNL1       -0.5062
     16 C           1.6651   -1.9718   -0.0719 C.3     1  UNL1       -0.0092
     17 C           0.9571   -3.3541   -0.0409 C.3     1  UNL1       -0.0559
     18 C           2.5035   -1.9544   -1.3710 C.3     1  UNL1       -0.0559
     19 C           2.6044   -1.9493    1.1520 C.3     1  UNL1       -0.0559
     20 H          -3.3253   -0.9484   -0.7917 H       1  UNL1        0.0278
     21 H          -3.2889   -0.9412    0.9909 H       1  UNL1        0.0278
     22 H          -3.7941    0.4943    0.0921 H       1  UNL1        0.0278
     23 H          -1.1040   -1.9934    0.0887 H       1  UNL1        0.0624
     24 H          -2.9952    2.2948    0.7750 H       1  UNL1        0.0434
     25 H          -1.7046    3.4082    0.5893 H       1  UNL1        0.0434
     26 H          -3.6103    2.6046   -4.1401 H       1  UNL1        0.0782
     27 H          -2.3484    3.8692   -3.9673 H       1  UNL1        0.0782
     28 H          -4.0156    5.2196   -2.9516 H       1  UNL1        0.0764
     29 H          -5.1079    3.8115   -2.7442 H       1  UNL1        0.0764
     30 H          -3.9554    4.4783   -0.4356 H       1  UNL1        0.2910
     31 H           1.2024    3.4359    0.4833 H       1  UNL1        0.0279
     32 H           1.4643    3.0206   -1.2347 H       1  UNL1        0.0279
     33 H          -0.0379    3.7469   -0.7490 H       1  UNL1        0.0279
     34 H           2.6519    1.6919    0.1339 H       1  UNL1        0.2922
     35 H           0.2937   -3.4847   -0.9047 H       1  UNL1        0.0238
     36 H           1.6851   -4.1743   -0.0717 H       1  UNL1        0.0238
     37 H           0.3667   -3.4875    0.8722 H       1  UNL1        0.0238
     38 H           3.1490   -1.0762   -1.4515 H       1  UNL1        0.0238
     39 H           3.1623   -2.8282   -1.4255 H       1  UNL1        0.0238
     40 H           1.8546   -1.9679   -2.2540 H       1  UNL1        0.0238
     41 H           3.2442   -1.0617    1.1850 H       1  UNL1        0.0238
     42 H           2.0385   -1.9825    2.0908 H       1  UNL1        0.0238
     43 H           3.2773   -2.8175    1.1466 H       1  UNL1        0.0238
     44 H          -1.7755    1.7415   -2.4602 H       1  UNL1        0.3036
@<TRIPOS>BOND
     1     1     2    1
     2     1    20    1
     3     1    21    1
     4     1    22    1
     5     2     7   ar
     6     2     3   ar
     7     3     4   ar
     8     3    23    1
     9     4     5   ar
    10     4    16    1
    11     5     6   ar
    12     5    15    1
    13     6     7   ar
    14     6    14    1
    15     7     8    1
    16     8     9    1
    17     8    24    1
    18     8    25    1
    19     9    13    1
    20     9    10    2
    21    10    11    1
    22    10    44    1
    23    11    12    1
    24    11    26    1
    25    11    27    1
    26    12    13    1
    27    12    28    1
    28    12    29    1
    29    13    30    1
    30    14    31    1
    31    14    32    1
    32    14    33    1
    33    15    34    1
    34    16    17    1
    35    16    18    1
    36    16    19    1
    37    17    35    1
    38    17    36    1
    39    17    37    1
    40    18    38    1
    41    18    39    1
    42    18    40    1
    43    19    41    1
    44    19    42    1
    45    19    43    1
