@<TRIPOS>MOLECULE
ZINC01530820
 50 49 0 0 0
SMALL
GASTEIGER

@<TRIPOS>ATOM
      1 C          -2.5955   -1.0082    4.1432 C.3     1  UNL1       -0.0417
      2 N          -2.2243   -0.2159    2.8757 N.4     1  UNL1        0.2393
      3 C          -3.4988   -0.0481    2.0481 C.3     1  UNL1       -0.0417
      4 C          -1.7185    1.1583    3.3060 C.3     1  UNL1       -0.0417
      5 C          -1.1321   -1.0127    2.0808 C.3     1  UNL1        0.0042
      6 C          -0.6417   -0.2944    0.8024 C.3     1  UNL1        0.1321
      7 O           0.4751   -0.9193    0.1204 O.3     1  UNL1       -0.4592
      8 C           0.1513   -1.9564   -0.6966 C.2     1  UNL1        0.3078
      9 O          -0.9072   -2.5696   -0.5851 O.2     1  UNL1       -0.2508
     10 C           1.1251   -2.1567   -1.8507 C.3     1  UNL1        0.0550
     11 C           2.5542   -1.6683   -1.6118 C.3     1  UNL1        0.0550
     12 C           3.5193   -1.9894   -2.7492 C.2     1  UNL1        0.3078
     13 O           3.4562   -2.9544   -3.4924 O.2     1  UNL1       -0.2508
     14 O           4.5669   -1.1106   -2.7471 O.3     1  UNL1       -0.4592
     15 C           5.8099   -1.5897   -3.3126 C.3     1  UNL1        0.1321
     16 C           5.9357   -1.4336   -4.8411 C.3     1  UNL1        0.0042
     17 N           7.3564   -1.7795   -5.4017 N.4     1  UNL1        0.2393
     18 C           8.4174   -0.8065   -4.8886 C.3     1  UNL1       -0.0417
     19 C           7.7700   -3.2056   -5.0432 C.3     1  UNL1       -0.0417
     20 C           7.3180   -1.6789   -6.9377 C.3     1  UNL1       -0.0417
     21 H          -3.0410   -0.3210    4.8707 H       1  UNL1        0.0778
     22 H          -1.6893   -1.4573    4.5572 H       1  UNL1        0.0778
     23 H          -3.3206   -1.7822    3.8753 H       1  UNL1        0.0778
     24 H          -4.2508    0.4450    2.6727 H       1  UNL1        0.0778
     25 H          -3.2756    0.5710    1.1767 H       1  UNL1        0.0778
     26 H          -3.8447   -1.0388    1.7405 H       1  UNL1        0.0778
     27 H          -0.7707    1.0270    3.8343 H       1  UNL1        0.0778
     28 H          -1.5931    1.7828    2.4178 H       1  UNL1        0.0778
     29 H          -2.4654    1.6175    3.9609 H       1  UNL1        0.0778
     30 H          -0.2920   -1.1623    2.7689 H       1  UNL1        0.0849
     31 H          -1.5617   -1.9954    1.8591 H       1  UNL1        0.0849
     32 H          -1.4611   -0.1597    0.0877 H       1  UNL1        0.0752
     33 H          -0.2805    0.7049    1.0583 H       1  UNL1        0.0752
     34 H           1.1395   -3.2278   -2.0883 H       1  UNL1        0.0383
     35 H           0.7108   -1.6359   -2.7115 H       1  UNL1        0.0383
     36 H           2.5442   -0.5827   -1.4642 H       1  UNL1        0.0383
     37 H           2.9631   -2.1339   -0.7087 H       1  UNL1        0.0383
     38 H           6.5855   -1.0001   -2.8176 H       1  UNL1        0.0752
     39 H           5.9613   -2.6331   -3.0062 H       1  UNL1        0.0752
     40 H           5.2232   -2.0779   -5.3673 H       1  UNL1        0.0849
     41 H           5.7279   -0.3964   -5.1343 H       1  UNL1        0.0849
     42 H           8.5417   -0.9524   -3.8133 H       1  UNL1        0.0778
     43 H           9.3639   -1.0247   -5.3928 H       1  UNL1        0.0778
     44 H           8.0893    0.2119   -5.1130 H       1  UNL1        0.0778
     45 H           6.9803   -3.8865   -5.3732 H       1  UNL1        0.0778
     46 H           8.7124   -3.4304   -5.5535 H       1  UNL1        0.0778
     47 H           7.9105   -3.2709   -3.9619 H       1  UNL1        0.0778
     48 H           6.8961   -2.6048   -7.3386 H       1  UNL1        0.0778
     49 H           6.7005   -0.8217   -7.2185 H       1  UNL1        0.0778
     50 H           8.3401   -1.5463   -7.3091 H       1  UNL1        0.0778
@<TRIPOS>UNITY_ATOM_ATTR
2 1
charge 1
17 1
charge 1
@<TRIPOS>BOND
     1     1     2    1
     2     1    21    1
     3     1    22    1
     4     1    23    1
     5     2     3    1
     6     2     4    1
     7     2     5    1
     8     3    24    1
     9     3    25    1
    10     3    26    1
    11     4    27    1
    12     4    28    1
    13     4    29    1
    14     5     6    1
    15     5    30    1
    16     5    31    1
    17     6     7    1
    18     6    32    1
    19     6    33    1
    20     7     8    1
    21     8     9    2
    22     8    10    1
    23    10    11    1
    24    10    34    1
    25    10    35    1
    26    11    12    1
    27    11    36    1
    28    11    37    1
    29    12    13    2
    30    12    14    1
    31    14    15    1
    32    15    16    1
    33    15    38    1
    34    15    39    1
    35    16    17    1
    36    16    40    1
    37    16    41    1
    38    17    18    1
    39    17    19    1
    40    17    20    1
    41    18    42    1
    42    18    43    1
    43    18    44    1
    44    19    45    1
    45    19    46    1
    46    19    47    1
    47    20    48    1
    48    20    49    1
    49    20    50    1
