@<TRIPOS>MOLECULE
ZINC00057493
 26 27 0 0 0
SMALL
GASTEIGER

@<TRIPOS>ATOM
      1 C          -0.2414    2.0980   -3.1172 C.3     1  UNL1       -0.0140
      2 C           1.0918    1.5375   -2.7950 C.ar    1  UNL1        0.1007
      3 N           2.2426    2.0850   -3.1211 N.ar    1  UNL1       -0.1449
      4 N           3.3148    1.3342   -2.6717 N.ar    1  UNL1       -0.1226
      5 C           2.9356    0.2688   -1.9914 C.ar    1  UNL1        0.2237
      6 S           1.2255    0.0517   -1.9515 S.2     1  UNL1       -0.0327
      7 N           3.7432   -0.6903   -1.4895 N.pl3   1  UNL1       -0.0685
      8 S           4.1333   -0.4119    0.0359 S.O2    1  UNL1        0.0935
      9 O           3.2702    0.4792    0.8153 O.2     1  UNL1       -0.1483
     10 O           4.5109   -1.6261    0.7674 O.2     1  UNL1       -0.1483
     11 C           5.7057    0.4947   -0.0039 C.ar    1  UNL1        0.1106
     12 C           5.7030    1.8877   -0.0178 C.ar    1  UNL1       -0.0333
     13 C           6.9218    2.5724   -0.0399 C.ar    1  UNL1       -0.0392
     14 C           8.1364    1.8760    0.0018 C.ar    1  UNL1        0.0247
     15 C           8.1162    0.4771   -0.0294 C.ar    1  UNL1       -0.0392
     16 C           6.9051   -0.2180   -0.0059 C.ar    1  UNL1       -0.0333
     17 N           9.3516    2.5640   -0.1532 N.pl3   1  UNL1       -0.3580
     18 H          -0.8146    1.4076   -3.7449 H       1  UNL1        0.0298
     19 H          -0.8124    2.2952   -2.2040 H       1  UNL1        0.0298
     20 H          -0.1416    3.0421   -3.6615 H       1  UNL1        0.0298
     21 H           4.7606    2.4288   -0.0371 H       1  UNL1        0.0638
     22 H           6.9087    3.6565   -0.0917 H       1  UNL1        0.0636
     23 H           9.0422   -0.0873   -0.0697 H       1  UNL1        0.0636
     24 H           6.8930   -1.3040   -0.0045 H       1  UNL1        0.0638
     25 H          10.1445    2.0459    0.2085 H       1  UNL1        0.1423
     26 H           9.3094    3.5148    0.1972 H       1  UNL1        0.1423
@<TRIPOS>BOND
     1     1     2    1
     2     1    18    1
     3     1    19    1
     4     1    20    1
     5     2     6   ar
     6     2     3   ar
     7     3     4   ar
     8     4     5   ar
     9     5     6   ar
    10     5     7    1
    11     7     8    1
    12     8     9    2
    13     8    10    2
    14     8    11    1
    15    11    16   ar
    16    11    12   ar
    17    12    13   ar
    18    12    21    1
    19    13    14   ar
    20    13    22    1
    21    14    15   ar
    22    14    17    1
    23    15    16   ar
    24    15    23    1
    25    16    24    1
    26    17    25    1
    27    17    26    1
