@<TRIPOS>MOLECULE
ZINC01530580
 57 60 0 0 0
SMALL
GASTEIGER

@<TRIPOS>ATOM
      1 C           3.1425    4.6272   -0.6969 C.3     1  UNL1        0.0790
      2 O           1.7475    4.9506   -0.6435 O.3     1  UNL1       -0.4915
      3 C           1.4510    6.2348   -1.0293 C.ar    1  UNL1        0.1615
      4 C           2.1724    6.8719   -2.0517 C.ar    1  UNL1       -0.0163
      5 C           1.9393    8.2137   -2.3554 C.ar    1  UNL1       -0.0581
      6 C           0.9879    8.9289   -1.6417 C.ar    1  UNL1       -0.0581
      7 C           0.2289    8.2842   -0.6694 C.ar    1  UNL1       -0.0163
      8 C           0.4124    6.9221   -0.3890 C.ar    1  UNL1        0.1622
      9 O          -0.4927    6.4555    0.5254 O.3     1  UNL1       -0.4830
     10 C          -0.6744    5.0607    0.7452 C.3     1  UNL1        0.1292
     11 C          -1.2809    4.3151   -0.4478 C.3     1  UNL1        0.0014
     12 N          -1.8274    2.9597   -0.1287 N.4     1  UNL1        0.2313
     13 C          -0.9591    1.7292   -0.2783 C.3     1  UNL1       -0.0037
     14 C           0.0603    1.4471    0.8507 C.3     1  UNL1        0.1285
     15 H           0.4551    0.4374    0.6789 H       1  UNL1        0.0681
     16 C          -0.5075    1.4723    2.3042 C.3     1  UNL1        0.1204
     17 O           0.5467    1.4344    3.2786 O.3     1  UNL1       -0.4885
     18 C           0.4027    0.6141    4.4395 C.ar    1  UNL1        0.1303
     19 C           1.6940    0.3442    4.9230 C.ar    1  UNL1       -0.0192
     20 C           2.1493   -0.9712    4.9031 C.ar    1  UNL1       -0.0563
     21 C           1.3583   -1.9888    4.3313 C.ar    1  UNL1       -0.0375
     22 C           0.0244   -1.6521    3.9851 C.ar    1  UNL1        0.0510
     23 C          -0.4957   -0.4792    4.5702 C.ar    1  UNL1        0.0490
     24 C          -1.1134   -1.2087    5.7270 C.ar    1  UNL1        0.0109
     25 C          -1.1586   -1.0859    7.1348 C.ar    1  UNL1       -0.0519
     26 C          -1.6899   -2.1523    7.8953 C.ar    1  UNL1       -0.0611
     27 C          -2.2696   -3.2676    7.2897 C.ar    1  UNL1       -0.0598
     28 C          -2.2705   -3.4110    5.9039 C.ar    1  UNL1       -0.0378
     29 C          -1.6059   -2.4111    5.1905 C.ar    1  UNL1        0.0476
     30 N          -1.1190   -2.4289    3.8860 N.ar    1  UNL1       -0.3540
     31 H          -1.7787   -2.3386    3.1280 H       1  UNL1        0.1659
     32 O           1.1627    2.3168    0.6048 O.3     1  UNL1       -0.3831
     33 H           3.3330    3.8203    0.0167 H       1  UNL1        0.0660
     34 H           3.7816    5.4712   -0.4101 H       1  UNL1        0.0660
     35 H           3.4020    4.2650   -1.6967 H       1  UNL1        0.0660
     36 H           2.9329    6.3488   -2.6252 H       1  UNL1        0.0655
     37 H           2.5186    8.7086   -3.1296 H       1  UNL1        0.0619
     38 H           0.8347    9.9884   -1.8426 H       1  UNL1        0.0619
     39 H          -0.5120    8.8590   -0.1148 H       1  UNL1        0.0655
     40 H           0.2358    4.6146    1.1372 H       1  UNL1        0.0751
     41 H          -1.4002    5.0013    1.5665 H       1  UNL1        0.0751
     42 H          -2.1484    4.9072   -0.8030 H       1  UNL1        0.0847
     43 H          -0.6121    4.2422   -1.3226 H       1  UNL1        0.0847
     44 H          -2.3264    2.9797    0.7657 H       1  UNL1        0.2016
     45 H          -1.6607    0.8922   -0.3559 H       1  UNL1        0.0840
     46 H          -0.4483    1.8398   -1.2422 H       1  UNL1        0.0840
     47 H          -1.0365    2.4104    2.4769 H       1  UNL1        0.0725
     48 H          -1.2194    0.6480    2.4074 H       1  UNL1        0.0725
     49 H           2.4111    1.1523    5.0660 H       1  UNL1        0.0654
     50 H           3.1475   -1.2037    5.2666 H       1  UNL1        0.0619
     51 H           1.6853   -3.0221    4.3401 H       1  UNL1        0.0638
     52 H          -0.6658   -0.2647    7.6455 H       1  UNL1        0.0624
     53 H          -1.6100   -2.1376    8.9833 H       1  UNL1        0.0618
     54 H          -2.6566   -4.0832    7.8968 H       1  UNL1        0.0618
     55 H          -2.6537   -4.3143    5.4270 H       1  UNL1        0.0638
     56 H           1.2762    2.9494    1.3298 H       1  UNL1        0.2102
     57 H          -2.5705    2.8237   -0.8307 H       1  UNL1        0.2016
@<TRIPOS>UNITY_ATOM_ATTR
12 1
charge 1
@<TRIPOS>BOND
     1     1     2    1
     2     1    33    1
     3     1    34    1
     4     1    35    1
     5     2     3    1
     6     3     8   ar
     7     3     4   ar
     8     4     5   ar
     9     4    36    1
    10     5     6   ar
    11     5    37    1
    12     6     7   ar
    13     6    38    1
    14     7     8   ar
    15     7    39    1
    16     8     9    1
    17     9    10    1
    18    10    11    1
    19    10    40    1
    20    10    41    1
    21    11    12    1
    22    11    42    1
    23    11    43    1
    24    12    13    1
    25    12    44    1
    26    12    57    1
    27    13    45    1
    28    13    46    1
    29    14    16    1
    30    14    32    1
    31    16    17    1
    32    16    47    1
    33    16    48    1
    34    17    18    1
    35    18    23   ar
    36    18    19   ar
    37    19    20   ar
    38    19    49    1
    39    20    21   ar
    40    20    50    1
    41    21    22   ar
    42    21    51    1
    43    22    30   ar
    44    22    23   ar
    45    23    24   ar
    46    24    29   ar
    47    24    25   ar
    48    25    26   ar
    49    25    52    1
    50    26    27   ar
    51    26    53    1
    52    27    28   ar
    53    27    54    1
    54    28    29   ar
    55    28    55    1
    56    29    30   ar
    57    30    31    1
    58    32    56    1
    59    14    15    1
    60    14    13    1
