@<TRIPOS>MOLECULE
ZINC00897288
 12 12 0 0 0
SMALL
GASTEIGER

@<TRIPOS>ATOM
      1 C           2.3167   -0.0613   -0.0061 C.3     1  UNL1       -0.0368
      2 C           0.8397    0.0112   -0.0021 C.ar    1  UNL1       -0.0133
      3 C           0.0386    1.1329   -0.0011 C.ar    1  UNL1        0.0252
      4 N          -1.2501    0.6860   -0.0019 N.ar    1  UNL1       -0.2845
      5 H          -2.1051    1.2324   -0.0042 H       1  UNL1        0.1882
      6 N          -1.3497   -0.6524    0.0002 N.ar    1  UNL1       -0.1821
      7 C          -0.0793   -1.0625   -0.0001 C.ar    1  UNL1        0.0520
      8 H           2.6769   -0.6018    0.8752 H       1  UNL1        0.0278
      9 H           2.6720   -0.5826   -0.9007 H       1  UNL1        0.0278
     10 H           2.7630    0.9382    0.0035 H       1  UNL1        0.0278
     11 H           0.2675    2.1889   -0.0009 H       1  UNL1        0.0826
     12 H           0.1269   -2.1254    0.0010 H       1  UNL1        0.0850
@<TRIPOS>BOND
     1     1     2    1
     2     1     8    1
     3     1     9    1
     4     1    10    1
     5     2     7   ar
     6     2     3   ar
     7     3     4   ar
     8     3    11    1
     9     4     5    1
    10     4     6   ar
    11     6     7   ar
    12     7    12    1
