@<TRIPOS>MOLECULE
ZINC00001735
 30 31 0 0 0
SMALL
GASTEIGER

@<TRIPOS>ATOM
      1 C           1.2005   -0.2677   -0.6069 C.2     1  UNL1        0.0665
      2 C           0.0715   -1.1256   -0.7557 C.3     1  UNL1        0.2138
      3 N          -1.0836   -0.7304   -0.1490 N.3     1  UNL1       -0.2855
      4 O          -2.2903   -1.4496   -0.3063 O.co2   1  UNL1       -0.6872
      5 C          -1.1138    0.5111    0.4837 C.2     1  UNL1        0.4142
      6 N          -0.1173    1.3577    0.5563 N.2     1  UNL1        0.0226
      7 C           1.0824    0.9510   -0.0253 C.2     1  UNL1        0.3214
      8 N           2.1998    1.8008   -0.0628 N.pl3   1  UNL1       -0.2205
      9 C           3.0434    1.9057   -1.2545 C.3     1  UNL1        0.0806
     10 C           4.4859    1.6648   -0.8349 C.3     1  UNL1       -0.0166
     11 C           4.8973    2.6746    0.2350 C.3     1  UNL1       -0.0463
     12 C           3.9039    2.6995    1.4045 C.3     1  UNL1       -0.0166
     13 C           2.4476    2.8313    0.9360 C.3     1  UNL1        0.0806
     14 N          -2.3557    0.8299    0.9570 N.pl3   1  UNL1       -0.2421
     15 N           0.1114   -2.2583   -1.6064 N.3     1  UNL1       -0.2884
     16 H           2.1395   -0.6140   -1.0093 H       1  UNL1        0.0706
     17 H           2.9274    2.9014   -1.7002 H       1  UNL1        0.0726
     18 H           2.7650    1.1944   -2.0400 H       1  UNL1        0.0726
     19 H           5.1452    1.7422   -1.7052 H       1  UNL1        0.0301
     20 H           4.5894    0.6471   -0.4362 H       1  UNL1        0.0301
     21 H           5.9000    2.4340    0.6018 H       1  UNL1        0.0268
     22 H           4.9479    3.6731   -0.2170 H       1  UNL1        0.0268
     23 H           4.0111    1.7676    1.9746 H       1  UNL1        0.0301
     24 H           4.1543    3.5212    2.0837 H       1  UNL1        0.0301
     25 H           1.7847    2.7383    1.8038 H       1  UNL1        0.0726
     26 H           2.2773    3.8238    0.4999 H       1  UNL1        0.0726
     27 H          -2.6355    1.7083    0.5534 H       1  UNL1        0.2421
     28 H          -2.9132    0.0590    0.5637 H       1  UNL1        0.2421
     29 H           0.9144   -2.8381   -1.4252 H       1  UNL1        0.1221
     30 H          -0.7757   -2.7263   -1.3950 H       1  UNL1        0.1221
@<TRIPOS>UNITY_ATOM_ATTR
4 1
charge -1
@<TRIPOS>BOND
     1     1     7    2
     2     1     2    1
     3     1    16    1
     4     2     3    1
     5     2    15    1
     6     3     4    1
     7     3     5    1
     8     5     6    2
     9     5    14    1
    10     6     7    1
    11     7     8    1
    12     8    13    1
    13     8     9    1
    14     9    10    1
    15     9    17    1
    16     9    18    1
    17    10    11    1
    18    10    19    1
    19    10    20    1
    20    11    12    1
    21    11    21    1
    22    11    22    1
    23    12    13    1
    24    12    23    1
    25    12    24    1
    26    13    25    1
    27    13    26    1
    28    14    27    1
    29    14    28    1
    30    15    29    1
    31    15    30    1
