@<TRIPOS>MOLECULE
ZINC03830946
 60 60 0 0 0
SMALL
GASTEIGER

@<TRIPOS>ATOM
      1 C          10.6440    0.8123    0.3081 C.3     1  UNL1        0.0127
      2 C          10.6468   -0.1406   -0.8638 C.2     1  UNL1        0.2168
      3 O          11.6297   -0.8522   -1.0794 O.2     1  UNL1       -0.2756
      4 N           9.4875   -0.2061   -1.6424 N.am    1  UNL1       -0.2671
      5 C           9.4384   -1.2699   -2.6872 C.3     1  UNL1        0.0480
      6 C           9.5706   -2.7336   -2.1596 C.3     1  UNL1        0.0943
      7 H          10.4926   -2.8780   -1.5944 H       1  UNL1        0.0632
      8 C           9.5432   -3.7523   -3.3088 C.3     1  UNL1        0.0716
      9 O           9.7366   -5.0710   -2.7894 O.3     1  UNL1       -0.3924
     10 O           8.4971   -3.1001   -1.2750 O.3     1  UNL1       -0.3880
     11 C           8.6344    0.9377   -1.8907 C.ar    1  UNL1        0.0641
     12 C           7.2535    0.8124   -1.5686 C.ar    1  UNL1        0.0489
     13 C           6.2658    1.6437   -2.1476 C.ar    1  UNL1        0.0654
     14 C           6.7068    2.7609   -2.8696 C.ar    1  UNL1        0.0397
     15 C           8.0866    3.0955   -2.9234 C.ar    1  UNL1        0.0654
     16 C           9.0545    2.1335   -2.5389 C.ar    1  UNL1        0.0489
     17 I          11.0878    2.4093   -3.1005 I       1  UNL1       -0.0411
     18 C           8.3959    4.5604   -3.0372 C.2     1  UNL1        0.2462
     19 O           7.7978    5.3137   -2.2752 O.2     1  UNL1       -0.2701
     20 N           9.2902    5.0078   -3.9750 N.am    1  UNL1       -0.3088
     21 C           9.5635    6.4323   -4.1935 C.3     1  UNL1        0.0401
     22 C           8.9546    6.9089   -5.5185 C.3     1  UNL1        0.0936
     23 H           7.8708    6.7474   -5.5124 H       1  UNL1        0.0632
     24 C           9.2586    8.3771   -5.8294 C.3     1  UNL1        0.0716
     25 O           8.6830    8.7112   -7.0989 O.3     1  UNL1       -0.3924
     26 O           9.4880    6.1030   -6.5876 O.3     1  UNL1       -0.3880
     27 I           5.3860    3.8544   -4.1796 I       1  UNL1       -0.0422
     28 C           4.8234    1.2557   -2.0220 C.2     1  UNL1        0.2462
     29 O           4.4999    0.0829   -2.1626 O.2     1  UNL1       -0.2701
     30 N           3.9189    2.2522   -1.7587 N.am    1  UNL1       -0.3088
     31 C           2.5013    2.0018   -1.4882 C.3     1  UNL1        0.0401
     32 C           1.5965    1.8774   -2.7275 C.3     1  UNL1        0.0936
     33 H           0.5526    1.9075   -2.3911 H       1  UNL1        0.0632
     34 C           1.7951    0.6002   -3.5444 C.3     1  UNL1        0.0716
     35 O           0.8058    0.5436   -4.5794 O.3     1  UNL1       -0.3924
     36 O           1.7508    3.0146   -3.5934 O.3     1  UNL1       -0.3880
     37 I           6.7317   -0.3886    0.1655 I       1  UNL1       -0.0411
     38 H          11.3931    0.4708    1.0307 H       1  UNL1        0.0323
     39 H           9.6796    0.8142    0.8153 H       1  UNL1        0.0323
     40 H          10.9057    1.8206   -0.0078 H       1  UNL1        0.0323
     41 H           8.4891   -1.1827   -3.2320 H       1  UNL1        0.0495
     42 H          10.2544   -1.0743   -3.3934 H       1  UNL1        0.0495
     43 H           8.5710   -3.7485   -3.8139 H       1  UNL1        0.0583
     44 H          10.3287   -3.5608   -4.0446 H       1  UNL1        0.0583
     45 H           9.2170   -5.1045   -1.9602 H       1  UNL1        0.2095
     46 H           7.8466   -2.3788   -1.2502 H       1  UNL1        0.2099
     47 H           9.7420    4.3653   -4.6155 H       1  UNL1        0.1491
     48 H           9.1771    7.0279   -3.3581 H       1  UNL1        0.0488
     49 H          10.6543    6.5364   -4.2149 H       1  UNL1        0.0488
     50 H           8.8263    9.0456   -5.0786 H       1  UNL1        0.0583
     51 H          10.3354    8.5703   -5.8942 H       1  UNL1        0.0583
     52 H           9.3672    8.5523   -7.7738 H       1  UNL1        0.2095
     53 H           8.9721    6.3601   -7.3742 H       1  UNL1        0.2099
     54 H           4.2277    3.2150   -1.6847 H       1  UNL1        0.1491
     55 H           2.4059    1.1134   -0.8567 H       1  UNL1        0.0488
     56 H           2.1672    2.8689   -0.9080 H       1  UNL1        0.0488
     57 H           2.7680    0.5885   -4.0418 H       1  UNL1        0.0583
     58 H           1.6878   -0.2937   -2.9246 H       1  UNL1        0.0583
     59 H           0.6404    1.4659   -4.8556 H       1  UNL1        0.2095
     60 H           2.6431    2.9532   -3.9801 H       1  UNL1        0.2099
@<TRIPOS>BOND
     1     1     2    1
     2     1    38    1
     3     1    39    1
     4     1    40    1
     5     2     3    2
     6     2     4   am
     7     4     5    1
     8     4    11    1
     9     5    41    1
    10     5    42    1
    11     6     8    1
    12     6    10    1
    13     8     9    1
    14     8    43    1
    15     8    44    1
    16     9    45    1
    17    10    46    1
    18    11    16   ar
    19    11    12   ar
    20    12    13   ar
    21    12    37    1
    22    13    14   ar
    23    13    28    1
    24    14    15   ar
    25    14    27    1
    26    15    16   ar
    27    15    18    1
    28    16    17    1
    29    18    19    2
    30    18    20   am
    31    20    21    1
    32    20    47    1
    33    21    22    1
    34    21    48    1
    35    21    49    1
    36    22    23    1
    37    22    24    1
    38    22    26    1
    39    24    25    1
    40    24    50    1
    41    24    51    1
    42    25    52    1
    43    26    53    1
    44    28    29    2
    45    28    30   am
    46    30    31    1
    47    30    54    1
    48    31    55    1
    49    31    56    1
    50    32    34    1
    51    32    36    1
    52    34    35    1
    53    34    57    1
    54    34    58    1
    55    35    59    1
    56    36    60    1
    57     6     7    1
    58     6     5    1
    59    32    33    1
    60    32    31    1
