@<TRIPOS>MOLECULE
ZINC00592419
 40 42 0 0 0
SMALL
GASTEIGER

@<TRIPOS>ATOM
      1 C           1.2608   -0.0814   -0.4428 C.ar    1  UNL1       -0.0459
      2 C           0.6357    1.1690   -0.3670 C.ar    1  UNL1       -0.0154
      3 C          -0.7355    1.2812   -0.0962 C.ar    1  UNL1        0.1683
      4 C          -1.5078    0.1208    0.0333 C.ar    1  UNL1        0.1628
      5 C          -0.8660   -1.1248    0.0209 C.ar    1  UNL1       -0.0042
      6 C           0.5161   -1.2405   -0.2181 C.ar    1  UNL1        0.0407
      7 C           1.0913   -2.6214   -0.2517 C.2     1  UNL1        0.2484
      8 O           0.3428   -3.5727   -0.0339 O.2     1  UNL1       -0.2698
      9 N           2.4590   -2.7528   -0.4453 N.am    1  UNL1       -0.2790
     10 C           3.0722   -4.0450   -0.4357 C.ar    1  UNL1        0.0736
     11 C           4.1749   -4.2549    0.4033 C.ar    1  UNL1        0.0816
     12 C           4.7099   -5.5333    0.5000 C.ar    1  UNL1        0.0478
     13 N           4.2574   -6.5962   -0.2039 N.ar    1  UNL1       -0.2602
     14 C           3.2323   -6.3576   -1.0572 C.ar    1  UNL1        0.0478
     15 C           2.6205   -5.1194   -1.2202 C.ar    1  UNL1        0.0816
     16 CL          1.4699   -4.9519   -2.4998 Cl      1  UNL1       -0.0800
     17 CL          4.8482   -2.9819    1.3552 Cl      1  UNL1       -0.0800
     18 O          -2.8665    0.2522    0.1574 O.3     1  UNL1       -0.4880
     19 C          -3.6503   -0.8105   -0.4009 C.3     1  UNL1        0.0926
     20 C          -5.0892   -0.3813   -0.4274 C.3     1  UNL1       -0.0068
     21 C          -5.8008   -0.0931   -1.7268 C.3     1  UNL1       -0.0468
     22 C          -6.1391   -1.3313   -0.9494 C.3     1  UNL1       -0.0468
     23 O          -1.2033    2.5678   -0.0778 O.3     1  UNL1       -0.4305
     24 C          -2.1956    2.8566    0.8983 C.3     1  UNL1        0.3894
     25 F          -1.7507    2.4897    2.1267 F       1  UNL1       -0.1663
     26 F          -2.3223    4.2123    0.9343 F       1  UNL1       -0.1663
     27 H           2.3184   -0.1108   -0.6831 H       1  UNL1        0.0626
     28 H           1.2241    2.0717   -0.5242 H       1  UNL1        0.0655
     29 H          -1.4347   -2.0356    0.1920 H       1  UNL1        0.0663
     30 H           3.0278   -2.0046   -0.0652 H       1  UNL1        0.1552
     31 H           5.5366   -5.7505    1.1715 H       1  UNL1        0.0845
     32 H           2.9196   -7.2198   -1.6429 H       1  UNL1        0.0845
     33 H          -3.3031   -1.0468   -1.4155 H       1  UNL1        0.0699
     34 H          -3.5748   -1.6990    0.2345 H       1  UNL1        0.0699
     35 H          -5.3557    0.2013    0.4474 H       1  UNL1        0.0334
     36 H          -6.5317    0.7083   -1.7422 H       1  UNL1        0.0269
     37 H          -5.2681   -0.2190   -2.6632 H       1  UNL1        0.0269
     38 H          -5.8263   -2.2881   -1.3535 H       1  UNL1        0.0269
     39 H          -7.0939   -1.3635   -0.4328 H       1  UNL1        0.0269
     40 H          -3.1823    2.4409    0.6858 H       1  UNL1        0.1520
@<TRIPOS>BOND
     1     1     6   ar
     2     1     2   ar
     3     1    27    1
     4     2     3   ar
     5     2    28    1
     6     3     4   ar
     7     3    23    1
     8     4     5   ar
     9     4    18    1
    10     5     6   ar
    11     5    29    1
    12     6     7    1
    13     7     8    2
    14     7     9   am
    15     9    10    1
    16     9    30    1
    17    10    15   ar
    18    10    11   ar
    19    11    12   ar
    20    11    17    1
    21    12    13   ar
    22    12    31    1
    23    13    14   ar
    24    14    15   ar
    25    14    32    1
    26    15    16    1
    27    18    19    1
    28    19    20    1
    29    19    33    1
    30    19    34    1
    31    20    22    1
    32    20    21    1
    33    20    35    1
    34    21    22    1
    35    21    36    1
    36    21    37    1
    37    22    38    1
    38    22    39    1
    39    23    24    1
    40    24    25    1
    41    24    26    1
    42    24    40    1
