@<TRIPOS>MOLECULE
ZINC01536779
 41 43 0 0 0
SMALL
GASTEIGER

@<TRIPOS>ATOM
      1 C           1.0529    2.5807   -0.2753 C.3     1  UNL1       -0.0449
      2 N           0.5769    1.2995   -0.8543 N.4     1  UNL1        0.2249
      3 C           0.8988    1.1086   -2.2971 C.3     1  UNL1       -0.0302
      4 C           0.4009   -0.2464   -2.7802 C.3     1  UNL1        0.0292
      5 C          -1.1368   -0.3543   -2.8215 C.3     1  UNL1        0.1360
      6 H          -1.4738    0.4587   -3.4727 H       1  UNL1        0.0791
      7 C          -1.5213   -1.7106   -3.3487 C.ar    1  UNL1        0.0301
      8 C          -1.6104   -2.9202   -2.6850 C.ar    1  UNL1       -0.0480
      9 C          -1.9509   -3.9948   -3.5573 C.ar    1  UNL1       -0.0544
     10 C          -2.1160   -3.5736   -4.8570 C.ar    1  UNL1       -0.0240
     11 S          -1.8621   -1.8933   -5.0227 S.2     1  UNL1       -0.0979
     12 O          -1.6605   -0.2002   -1.4819 O.3     1  UNL1       -0.4829
     13 C          -2.9631    0.2426   -1.3206 C.ar    1  UNL1        0.1291
     14 C          -3.7639    0.6826   -2.3827 C.ar    1  UNL1       -0.0193
     15 C          -5.0365    1.1990   -2.1519 C.ar    1  UNL1       -0.0577
     16 C          -5.5387    1.2692   -0.8597 C.ar    1  UNL1       -0.0538
     17 C          -4.7882    0.7993    0.2200 C.ar    1  UNL1       -0.0144
     18 C          -3.4824    0.2720    0.0095 C.ar    1  UNL1        0.0238
     19 C          -2.7976   -0.2125    1.1501 C.ar    1  UNL1       -0.0505
     20 C          -3.3745   -0.1783    2.4281 C.ar    1  UNL1       -0.0611
     21 C          -4.6493    0.3519    2.6048 C.ar    1  UNL1       -0.0612
     22 C          -5.3476    0.8409    1.5061 C.ar    1  UNL1       -0.0539
     23 H           2.1448    2.5881   -0.3167 H       1  UNL1        0.0777
     24 H           0.7075    2.6172    0.7596 H       1  UNL1        0.0777
     25 H           0.6268    3.4027   -0.8547 H       1  UNL1        0.0777
     26 H           0.9648    0.5193   -0.3072 H       1  UNL1        0.2011
     27 H           0.4447    1.9339   -2.8559 H       1  UNL1        0.0815
     28 H           1.9888    1.1662   -2.3917 H       1  UNL1        0.0815
     29 H           0.7958   -0.4067   -3.7931 H       1  UNL1        0.0357
     30 H           0.8271   -1.0348   -2.1471 H       1  UNL1        0.0357
     31 H          -1.4370   -3.0390   -1.6218 H       1  UNL1        0.0627
     32 H          -2.0708   -5.0270   -3.2488 H       1  UNL1        0.0623
     33 H          -2.3758   -4.1742   -5.7191 H       1  UNL1        0.0693
     34 H          -3.4574    0.6378   -3.4202 H       1  UNL1        0.0654
     35 H          -5.6454    1.5406   -2.9863 H       1  UNL1        0.0619
     36 H          -6.5373    1.6746   -0.7081 H       1  UNL1        0.0624
     37 H          -1.8159   -0.6685    1.0523 H       1  UNL1        0.0625
     38 H          -2.8473   -0.5827    3.2872 H       1  UNL1        0.0618
     39 H          -5.1106    0.3683    3.5903 H       1  UNL1        0.0618
     40 H          -6.3491    1.2390    1.6613 H       1  UNL1        0.0624
     41 H          -0.4474    1.2265   -0.7234 H       1  UNL1        0.2011
@<TRIPOS>UNITY_ATOM_ATTR
2 1
charge 1
@<TRIPOS>BOND
     1     1     2    1
     2     1    23    1
     3     1    24    1
     4     1    25    1
     5     2     3    1
     6     2    26    1
     7     2    41    1
     8     3     4    1
     9     3    27    1
    10     3    28    1
    11     4     5    1
    12     4    29    1
    13     4    30    1
    14     5     6    1
    15     5     7    1
    16     5    12    1
    17     7    11   ar
    18     7     8   ar
    19     8     9   ar
    20     8    31    1
    21     9    10   ar
    22     9    32    1
    23    10    11   ar
    24    10    33    1
    25    12    13    1
    26    13    18   ar
    27    13    14   ar
    28    14    15   ar
    29    14    34    1
    30    15    16   ar
    31    15    35    1
    32    16    17   ar
    33    16    36    1
    34    17    22   ar
    35    17    18   ar
    36    18    19   ar
    37    19    20   ar
    38    19    37    1
    39    20    21   ar
    40    20    38    1
    41    21    22   ar
    42    21    39    1
    43    22    40    1
