@<TRIPOS>MOLECULE
ZINC00057455
 51 53 0 0 0
SMALL
GASTEIGER

@<TRIPOS>ATOM
      1 C           1.2973   -0.7634    0.2840 C.ar    1  UNL1       -0.0617
      2 C           0.2556   -1.6701    0.1137 C.ar    1  UNL1       -0.0614
      3 C          -1.0587   -1.2181   -0.0590 C.ar    1  UNL1       -0.0558
      4 C          -1.3601    0.1566   -0.0612 C.ar    1  UNL1       -0.0157
      5 C          -0.2857    1.0495    0.1150 C.ar    1  UNL1       -0.0558
      6 C           1.0291    0.6009    0.2800 C.ar    1  UNL1       -0.0614
      7 C          -2.8050    0.6673   -0.2471 C.3     1  UNL1        0.0985
      8 C          -3.0971    1.6842    0.9055 C.3     1  UNL1        0.0208
      9 C          -4.5667    2.0758    1.0578 C.3     1  UNL1       -0.0289
     10 N          -4.8496    2.9062    2.3048 N.4     1  UNL1        0.2353
     11 C          -4.1928    4.2649    2.3735 C.3     1  UNL1       -0.0317
     12 C          -3.1588    4.1313    3.4682 C.3     1  UNL1       -0.0077
     13 C          -3.8056    3.1991    4.4703 C.3     1  UNL1       -0.0077
     14 C          -4.6154    2.2150    3.6392 C.3     1  UNL1       -0.0317
     15 C          -3.0916    1.1899   -1.7137 C.3     1  UNL1       -0.0078
     16 C          -2.3528    2.4952   -2.0828 C.3     1  UNL1       -0.0473
     17 C          -2.5388    2.9304   -3.5367 C.3     1  UNL1       -0.0527
     18 C          -2.1937    1.8110   -4.5081 C.3     1  UNL1       -0.0530
     19 C          -3.0503    0.5855   -4.2195 C.3     1  UNL1       -0.0527
     20 C          -2.8376    0.0966   -2.7930 C.3     1  UNL1       -0.0473
     21 O          -3.7213   -0.4109    0.0438 O.3     1  UNL1       -0.3835
     22 H           2.3179   -1.1162    0.4100 H       1  UNL1        0.0618
     23 H           0.4683   -2.7363    0.1124 H       1  UNL1        0.0618
     24 H          -1.8439   -1.9597   -0.1917 H       1  UNL1        0.0621
     25 H          -0.4374    2.1258    0.1191 H       1  UNL1        0.0621
     26 H           1.8395    1.3133    0.4010 H       1  UNL1        0.0618
     27 H          -2.7803    1.2018    1.8419 H       1  UNL1        0.0348
     28 H          -2.4852    2.5839    0.8056 H       1  UNL1        0.0348
     29 H          -4.8943    2.6864    0.2107 H       1  UNL1        0.0815
     30 H          -5.2296    1.2079    1.1315 H       1  UNL1        0.0815
     31 H          -4.9777    4.9746    2.6501 H       1  UNL1        0.0814
     32 H          -3.7806    4.5333    1.3975 H       1  UNL1        0.0814
     33 H          -2.2332    3.6894    3.0745 H       1  UNL1        0.0319
     34 H          -2.9063    5.1010    3.9117 H       1  UNL1        0.0319
     35 H          -3.0651    2.6921    5.0957 H       1  UNL1        0.0319
     36 H          -4.4692    3.7604    5.1387 H       1  UNL1        0.0319
     37 H          -4.0918    1.2692    3.4784 H       1  UNL1        0.0814
     38 H          -5.5945    2.0156    4.0847 H       1  UNL1        0.0814
     39 H          -4.1676    1.4129   -1.7684 H       1  UNL1        0.0332
     40 H          -2.6897    3.3100   -1.4301 H       1  UNL1        0.0269
     41 H          -1.2757    2.3826   -1.9280 H       1  UNL1        0.0269
     42 H          -1.8965    3.7950   -3.7409 H       1  UNL1        0.0265
     43 H          -3.5730    3.2541   -3.6997 H       1  UNL1        0.0265
     44 H          -1.1317    1.5482   -4.4170 H       1  UNL1        0.0265
     45 H          -2.3514    2.1454   -5.5395 H       1  UNL1        0.0265
     46 H          -2.7984   -0.2115   -4.9263 H       1  UNL1        0.0265
     47 H          -4.1093    0.8313   -4.3808 H       1  UNL1        0.0265
     48 H          -1.8119   -0.2795   -2.7148 H       1  UNL1        0.0269
     49 H          -3.4989   -0.7634   -2.6268 H       1  UNL1        0.0269
     50 H          -4.2397   -0.6264   -0.7477 H       1  UNL1        0.2106
     51 H          -5.8613    3.0891    2.2626 H       1  UNL1        0.2033
@<TRIPOS>UNITY_ATOM_ATTR
10 1
charge 1
@<TRIPOS>BOND
     1     1     6   ar
     2     1     2   ar
     3     1    22    1
     4     2     3   ar
     5     2    23    1
     6     3     4   ar
     7     3    24    1
     8     4     5   ar
     9     4     7    1
    10     5     6   ar
    11     5    25    1
    12     6    26    1
    13     7     8    1
    14     7    15    1
    15     7    21    1
    16     8     9    1
    17     8    27    1
    18     8    28    1
    19     9    10    1
    20     9    29    1
    21     9    30    1
    22    10    14    1
    23    10    11    1
    24    10    51    1
    25    11    12    1
    26    11    31    1
    27    11    32    1
    28    12    13    1
    29    12    33    1
    30    12    34    1
    31    13    14    1
    32    13    35    1
    33    13    36    1
    34    14    37    1
    35    14    38    1
    36    15    20    1
    37    15    16    1
    38    15    39    1
    39    16    17    1
    40    16    40    1
    41    16    41    1
    42    17    18    1
    43    17    42    1
    44    17    43    1
    45    18    19    1
    46    18    44    1
    47    18    45    1
    48    19    20    1
    49    19    46    1
    50    19    47    1
    51    20    48    1
    52    20    49    1
    53    21    50    1
