@<TRIPOS>MOLECULE
ZINC00002235
 26 26 0 0 0
SMALL
GASTEIGER

@<TRIPOS>ATOM
      1 C           0.2482   -1.3968    1.0818 C.ar    1  UNL1        0.0327
      2 C           1.0859   -1.2558    0.0411 C.ar    1  UNL1        0.1113
      3 C           0.6132   -0.3230   -1.0575 C.ar    1  UNL1        0.2751
      4 O           1.3478    0.0580   -1.9646 O.2     1  UNL1       -0.2657
      5 N          -0.6951    0.0720   -0.9923 N.ar    1  UNL1       -0.2736
      6 H          -1.0289    0.6728   -1.7292 H       1  UNL1        0.1735
      7 C          -1.4817   -0.0289    0.1159 C.ar    1  UNL1        0.3268
      8 O          -2.5734    0.5220    0.2002 O.2     1  UNL1       -0.2467
      9 N          -0.9633   -0.7708    1.1390 N.ar    1  UNL1       -0.3125
     10 H          -1.5454   -0.8509    1.9663 H       1  UNL1        0.1699
     11 N           2.3121   -1.9153   -0.0928 N.pl3   1  UNL1       -0.3224
     12 C           2.4136   -3.3839    0.0208 C.3     1  UNL1        0.0258
     13 C           1.6199   -4.0746   -1.0946 C.3     1  UNL1        0.0383
     14 CL          1.8231   -5.8430   -1.0104 Cl      1  UNL1       -0.1238
     15 C           3.5848   -1.1695   -0.1720 C.3     1  UNL1        0.0258
     16 C           3.9051   -0.3989    1.1147 C.3     1  UNL1        0.0383
     17 CL          4.0548   -1.4760    2.5310 Cl      1  UNL1       -0.1238
     18 H           0.5116   -2.0030    1.9430 H       1  UNL1        0.0829
     19 H           3.4617   -3.7033   -0.0417 H       1  UNL1        0.0475
     20 H           2.0520   -3.7070    1.0032 H       1  UNL1        0.0475
     21 H           0.5498   -3.8652   -1.0121 H       1  UNL1        0.0445
     22 H           1.9586   -3.7446   -2.0814 H       1  UNL1        0.0445
     23 H           4.4176   -1.8466   -0.3990 H       1  UNL1        0.0475
     24 H           3.5525   -0.4625   -1.0067 H       1  UNL1        0.0475
     25 H           4.8589    0.1268    1.0100 H       1  UNL1        0.0445
     26 H           3.1313    0.3400    1.3428 H       1  UNL1        0.0445
@<TRIPOS>BOND
     1     1     9   ar
     2     1     2   ar
     3     1    18    1
     4     2     3   ar
     5     2    11    1
     6     3     4    2
     7     3     5   ar
     8     5     6    1
     9     5     7   ar
    10     7     8    2
    11     7     9   ar
    12     9    10    1
    13    11    12    1
    14    11    15    1
    15    12    13    1
    16    12    19    1
    17    12    20    1
    18    13    14    1
    19    13    21    1
    20    13    22    1
    21    15    16    1
    22    15    23    1
    23    15    24    1
    24    16    17    1
    25    16    25    1
    26    16    26    1
