@<TRIPOS>MOLECULE
ZINC01530283
 21 20 0 0 0
SMALL
GASTEIGER

@<TRIPOS>ATOM
      1 CB          0.5651   -0.1715    0.2293 C.3     1  GLU1       -0.0137
      2 CG          0.1085   -1.2863   -0.7213 C.3     1  GLU1        0.0514
      3 CD          0.9885   -1.6260   -1.9299 C.2     1  GLU1        0.3561
      4 OE1         2.0365   -0.9416   -2.0793 O.co2   1  GLU1       -0.2464
      5 OE2         0.5844   -2.6174   -2.6150 O.co2   1  GLU1       -0.2464
      6 CA          0.4498    1.2662   -0.3171 C.3     1  GLU1        0.1263
      7 HA          1.0259    1.3595   -1.2458 H       1  GLU1        0.0616
      8 C          -1.0471    1.6888   -0.6193 C.2     1  GLU1        0.3759
      9 O          -1.9519    1.1331    0.0712 O.co2   1  GLU1       -0.2443
     10 OXT        -1.1680    2.6709   -1.4172 O.co2   1  GLU1       -0.2443
     11 N           1.0378    2.2738    0.6375 N.am    1  GLU1       -0.2862
     12 C           2.2940    2.4871    1.0682 C.2     0  UNK0        0.2977
     13 O           2.5990    3.4729    1.7347 O.2     0  UNK0       -0.2531
     14 N           3.2142    1.5530    0.7759 N.am    0  UNK0       -0.3133
     15 HB1         1.5972   -0.3937    0.5168 H       1  GLU1        0.0294
     16 HB2        -0.0119   -0.2465    1.1590 H       1  GLU1        0.0294
     17 HG1         0.0658   -2.2108   -0.1290 H       1  GLU1        0.0380
     18 HG2        -0.9123   -1.0986   -1.0703 H       1  GLU1        0.0380
     19 H           0.4153    3.0510    0.8028 H       1  GLU1        0.1511
     20 H           3.0465    0.9426   -0.0185 H       0  UNK0        0.1465
     21 H           4.1648    1.7713    1.0107 H       0  UNK0        0.1465
@<TRIPOS>BOND
     1     1     2    1
     2     1     6    1
     3     1    15    1
     4     1    16    1
     5     2     3    1
     6     2    17    1
     7     2    18    1
     8     3     4   ar
     9     3     5   ar
    10     6     7    1
    11     6     8    1
    12     6    11    1
    13     8     9   ar
    14     8    10   ar
    15    11    12   am
    16    11    19    1
    17    12    13    2
    18    12    14   am
    19    14    20    1
    20    14    21    1
