@<TRIPOS>MOLECULE
ZINC00001028
 18 18 0 0 0
SMALL
GASTEIGER

@<TRIPOS>ATOM
      1 C           0.9360    0.6786    0.5023 C.ar    1  UNL1       -0.0211
      2 C           0.9750   -0.6695    0.2483 C.ar    1  UNL1        0.0226
      3 N          -0.1898   -0.9772   -0.3873 N.ar    1  UNL1       -0.2845
      4 H          -0.4928   -1.8897   -0.7190 H       1  UNL1        0.1882
      5 N          -0.9994    0.0950   -0.5665 N.ar    1  UNL1       -0.1787
      6 C          -0.2984    1.1106   -0.0273 C.ar    1  UNL1        0.0678
      7 C          -0.8696    2.4943   -0.0150 C.3     1  UNL1        0.0315
      8 C          -1.7709    2.7761   -1.2211 C.3     1  UNL1       -0.0298
      9 N          -2.9038    1.8111   -1.2532 N.4     1  UNL1        0.2188
     10 H           1.6959    1.2620    1.0053 H       1  UNL1        0.0651
     11 H           1.7154   -1.4271    0.4671 H       1  UNL1        0.0824
     12 H          -1.4385    2.6304    0.9130 H       1  UNL1        0.0381
     13 H          -0.0544    3.2278   -0.0043 H       1  UNL1        0.0381
     14 H          -2.2051    3.7782   -1.1781 H       1  UNL1        0.0817
     15 H          -1.2303    2.6508   -2.1643 H       1  UNL1        0.0817
     16 H          -3.5519    1.9190   -0.4656 H       1  UNL1        0.1994
     17 H          -3.4245    1.8271   -2.1354 H       1  UNL1        0.1994
     18 H          -2.4825    0.8598   -1.1537 H       1  UNL1        0.1994
@<TRIPOS>UNITY_ATOM_ATTR
9 1
charge 1
@<TRIPOS>BOND
     1     1     6   ar
     2     1     2   ar
     3     1    10    1
     4     2     3   ar
     5     2    11    1
     6     3     4    1
     7     3     5   ar
     8     5     6   ar
     9     6     7    1
    10     7     8    1
    11     7    12    1
    12     7    13    1
    13     8     9    1
    14     8    14    1
    15     8    15    1
    16     9    16    1
    17     9    17    1
    18     9    18    1
