@<TRIPOS>MOLECULE
ZINC00402981
 39 39 0 0 0
SMALL
GASTEIGER

@<TRIPOS>ATOM
      1 C           2.8701    3.4908   -4.7540 C.3     1  UNL1       -0.0601
      2 C           1.7887    2.4341   -4.9834 C.3     1  UNL1       -0.0098
      3 C           1.3369    1.7249   -3.6831 C.3     1  UNL1        0.0081
      4 H           2.2437    1.3232   -3.2110 H       1  UNL1        0.0880
      5 C           0.3824    0.4948   -3.9240 C.3     1  UNL1        0.1226
      6 H          -0.5430    0.8314   -4.3928 H       1  UNL1        0.0701
      7 C          -0.0054   -0.3633   -2.7166 C.ar    1  UNL1       -0.0101
      8 C          -0.6550    0.1912   -1.5901 C.ar    1  UNL1       -0.0522
      9 C          -1.1551   -0.5881   -0.5473 C.ar    1  UNL1       -0.0162
     10 C          -1.0464   -1.9598   -0.6233 C.ar    1  UNL1        0.1582
     11 C          -0.3981   -2.5504   -1.6972 C.ar    1  UNL1        0.1586
     12 C           0.1279   -1.7703   -2.7322 C.ar    1  UNL1       -0.0107
     13 O          -0.3299   -3.9149   -1.7095 O.3     1  UNL1       -0.5033
     14 O          -1.6111   -2.7155    0.3589 O.3     1  UNL1       -0.5033
     15 O           1.0117   -0.3321   -4.9117 O.3     1  UNL1       -0.3816
     16 N           0.8397    2.7644   -2.6961 N.4     1  UNL1        0.2330
     17 C          -0.2829    3.7285   -3.0078 C.3     1  UNL1       -0.0281
     18 C          -1.6040    3.0782   -3.4002 C.3     1  UNL1       -0.0219
     19 C          -0.4750    4.5842   -1.7575 C.3     1  UNL1       -0.0219
     20 H           2.4561    4.4015   -4.3102 H       1  UNL1        0.0232
     21 H           3.3364    3.7749   -5.7032 H       1  UNL1        0.0232
     22 H           3.6570    3.1141   -4.0925 H       1  UNL1        0.0232
     23 H           0.9339    2.8944   -5.4920 H       1  UNL1        0.0318
     24 H           2.2000    1.6959   -5.6808 H       1  UNL1        0.0318
     25 H          -0.8489    1.2463   -1.4786 H       1  UNL1        0.0622
     26 H          -1.6689   -0.1333    0.2964 H       1  UNL1        0.0655
     27 H           0.6074   -2.2739   -3.5688 H       1  UNL1        0.0659
     28 H           0.2529   -4.2018   -2.4333 H       1  UNL1        0.2923
     29 H          -1.5002   -3.6402    0.0630 H       1  UNL1        0.2923
     30 H           0.3207   -0.8900   -5.3166 H       1  UNL1        0.2105
     31 H           0.7063    2.3094   -1.7855 H       1  UNL1        0.2020
     32 H           0.0629    4.3633   -3.8294 H       1  UNL1        0.0845
     33 H          -1.9843    2.3788   -2.6615 H       1  UNL1        0.0284
     34 H          -2.3833    3.8422   -3.5066 H       1  UNL1        0.0284
     35 H          -1.5432    2.5804   -4.3697 H       1  UNL1        0.0284
     36 H           0.4426    5.1294   -1.5101 H       1  UNL1        0.0284
     37 H          -1.2700    5.3222   -1.9094 H       1  UNL1        0.0284
     38 H          -0.7492    3.9714   -0.8908 H       1  UNL1        0.0284
     39 H           1.6573    3.3571   -2.5030 H       1  UNL1        0.2020
@<TRIPOS>UNITY_ATOM_ATTR
16 1
charge 1
@<TRIPOS>BOND
     1     1     2    1
     2     1    20    1
     3     1    21    1
     4     1    22    1
     5     2    23    1
     6     2    24    1
     7     3    16    1
     8     5     7    1
     9     5    15    1
    10     7    12   ar
    11     7     8   ar
    12     8     9   ar
    13     8    25    1
    14     9    10   ar
    15     9    26    1
    16    10    11   ar
    17    10    14    1
    18    11    12   ar
    19    11    13    1
    20    12    27    1
    21    13    28    1
    22    14    29    1
    23    15    30    1
    24    16    17    1
    25    16    31    1
    26    16    39    1
    27    17    18    1
    28    17    19    1
    29    17    32    1
    30    18    33    1
    31    18    34    1
    32    18    35    1
    33    19    36    1
    34    19    37    1
    35    19    38    1
    36     3     4    1
    37     3     2    1
    38     5     6    1
    39     5     3    1
