@<TRIPOS>MOLECULE
ZINC00001131
 18 19 0 0 0
SMALL
GASTEIGER

@<TRIPOS>ATOM
      1 C          -2.4443    0.6274   -0.0601 C.ar    1  UNL1       -0.0430
      2 C          -1.2639    1.3575   -0.0146 C.ar    1  UNL1       -0.0496
      3 C          -0.0084    0.7077   -0.0089 C.ar    1  UNL1        0.0224
      4 C           1.2348    1.3915    0.0235 C.ar    1  UNL1        0.0517
      5 C           2.4444    0.7003    0.0106 C.ar    1  UNL1       -0.0208
      6 C           2.4298   -0.6838   -0.0283 C.ar    1  UNL1        0.0858
      7 C           1.2152   -1.3764   -0.0485 C.ar    1  UNL1        0.1611
      8 C          -0.0159   -0.7065   -0.0433 C.ar    1  UNL1        0.1151
      9 N          -1.1721   -1.4070   -0.0790 N.ar    1  UNL1       -0.2512
     10 C          -2.3463   -0.7449   -0.0895 C.ar    1  UNL1        0.0284
     11 O           1.2203   -2.7563   -0.0790 O.3     1  UNL1       -0.5033
     12 CL          3.9290   -1.5392   -0.0574 Cl      1  UNL1       -0.0796
     13 CL          1.3279    3.1220    0.0789 Cl      1  UNL1       -0.0828
     14 H          -3.4109    1.1180   -0.0737 H       1  UNL1        0.0633
     15 H          -1.3342    2.4427    0.0094 H       1  UNL1        0.0625
     16 H           3.3878    1.2400    0.0273 H       1  UNL1        0.0648
     17 H          -3.2309   -1.3739   -0.1259 H       1  UNL1        0.0830
     18 H           2.1463   -3.0568   -0.0810 H       1  UNL1        0.2923
@<TRIPOS>BOND
     1     1    10   ar
     2     1     2   ar
     3     1    14    1
     4     2     3   ar
     5     2    15    1
     6     3     8   ar
     7     3     4   ar
     8     4     5   ar
     9     4    13    1
    10     5     6   ar
    11     5    16    1
    12     6     7   ar
    13     6    12    1
    14     7     8   ar
    15     7    11    1
    16     8     9   ar
    17     9    10   ar
    18    10    17    1
    19    11    18    1
