@<TRIPOS>MOLECULE
ZINC00896887
 25 26 0 0 0
SMALL
GASTEIGER

@<TRIPOS>ATOM
      1 C           0.6730    0.0966   -0.0796 C.3     1  UNL1        0.0108
      2 N           0.5856   -0.5650   -1.3585 N.am    1  UNL1       -0.2448
      3 C           0.3427   -1.8964   -1.5161 C.2     1  UNL1        0.2226
      4 O           0.0589   -2.6963   -0.6369 O.2     1  UNL1       -0.2752
      5 C           0.4917   -2.2581   -2.9640 C.3     1  UNL1        0.0397
      6 C           0.6931   -0.9176   -3.6706 C.3     1  UNL1        0.0693
      7 H          -0.1983   -0.6908   -4.2701 H       1  UNL1        0.0448
      8 C           0.7431    0.0919   -2.5446 C.2     1  UNL1        0.2294
      9 O           0.8979    1.2976   -2.6802 O.2     1  UNL1       -0.2745
     10 C           1.9372   -0.8789   -4.5335 C.ar    1  UNL1       -0.0351
     11 C           3.2161   -1.0201   -3.9692 C.ar    1  UNL1       -0.0578
     12 C           4.3577   -0.9577   -4.7688 C.ar    1  UNL1       -0.0615
     13 C           4.2359   -0.7554   -6.1402 C.ar    1  UNL1       -0.0617
     14 C           2.9759   -0.6184   -6.7137 C.ar    1  UNL1       -0.0615
     15 C           1.8285   -0.6799   -5.9162 C.ar    1  UNL1       -0.0578
     16 H           0.2251   -0.5111    0.7100 H       1  UNL1        0.0433
     17 H           0.1887    1.0755   -0.1298 H       1  UNL1        0.0433
     18 H           1.7343    0.2481    0.1443 H       1  UNL1        0.0433
     19 H          -0.4141   -2.7609   -3.3169 H       1  UNL1        0.0369
     20 H           1.3408   -2.9419   -3.0685 H       1  UNL1        0.0369
     21 H           3.3414   -1.1656   -2.8986 H       1  UNL1        0.0620
     22 H           5.3407   -1.0557   -4.3170 H       1  UNL1        0.0618
     23 H           5.1258   -0.6974   -6.7644 H       1  UNL1        0.0618
     24 H           2.8814   -0.4521   -7.7843 H       1  UNL1        0.0618
     25 H           0.8558   -0.5572   -6.3870 H       1  UNL1        0.0620
@<TRIPOS>BOND
     1     1     2    1
     2     1    16    1
     3     1    17    1
     4     1    18    1
     5     2     8   am
     6     2     3   am
     7     3     4    2
     8     3     5    1
     9     5     6    1
    10     5    19    1
    11     5    20    1
    12     6     7    1
    13     6     8    1
    14     6    10    1
    15     8     9    2
    16    10    15   ar
    17    10    11   ar
    18    11    12   ar
    19    11    21    1
    20    12    13   ar
    21    12    22    1
    22    13    14   ar
    23    13    23    1
    24    14    15   ar
    25    14    24    1
    26    15    25    1
