@<TRIPOS>MOLECULE
ZINC01481833
 30 33 0 0 0
SMALL
GASTEIGER

@<TRIPOS>ATOM
      1 C           3.7570    0.7081   -0.2822 C.ar    1  UNL1        0.0464
      2 C           3.7925   -0.6697   -0.3682 C.ar    1  UNL1        0.0464
      3 N           2.6795   -1.4289   -0.2673 N.ar    1  UNL1       -0.2519
      4 C           1.5267   -0.7738   -0.0503 C.ar    1  UNL1        0.0894
      5 C           0.3546   -1.5082    0.0959 C.ar    1  UNL1       -0.0303
      6 C          -0.8304   -0.8481    0.3738 C.ar    1  UNL1       -0.0335
      7 C          -0.8585    0.5435    0.4897 C.ar    1  UNL1       -0.0335
      8 C           0.2880    1.2961    0.3128 C.ar    1  UNL1       -0.0303
      9 C           1.4917    0.6515    0.0497 C.ar    1  UNL1        0.0894
     10 N           2.6065    1.3892   -0.0808 N.ar    1  UNL1       -0.2519
     11 C          -2.2484    0.9845    0.8784 C.3     1  UNL1        0.0253
     12 H          -2.2293    1.8719    1.5168 H       1  UNL1        0.0401
     13 C          -2.6676   -0.2978    1.6383 C.3     1  UNL1       -0.0296
     14 C          -2.2049   -1.4008    0.6573 C.3     1  UNL1        0.0253
     15 H          -2.1585   -2.3919    1.1165 H       1  UNL1        0.0401
     16 C          -3.0635   -1.3765   -0.6241 C.3     1  UNL1       -0.0267
     17 C          -3.1061    1.1730   -0.3879 C.3     1  UNL1       -0.0267
     18 H           4.6579    1.3061   -0.3662 H       1  UNL1        0.0845
     19 H           4.7251   -1.2045   -0.5160 H       1  UNL1        0.0845
     20 H           0.3984   -2.5938    0.0363 H       1  UNL1        0.0642
     21 H           0.2775    2.3777    0.4166 H       1  UNL1        0.0642
     22 H          -3.7358   -0.3401    1.8744 H       1  UNL1        0.0281
     23 H          -2.1220   -0.3775    2.5905 H       1  UNL1        0.0281
     24 H          -3.8105   -2.1762   -0.6077 H       1  UNL1        0.0820
     25 H          -2.4766   -1.4556   -1.5453 H       1  UNL1        0.0820
     26 H          -3.8753    1.9349   -0.2280 H       1  UNL1        0.0820
     27 H          -2.5217    1.4377   -1.2757 H       1  UNL1        0.0820
     28 N          -3.8628   -0.0933   -0.7208 N.4     1  UNL1        0.2278
     29 H          -4.2674   -0.0118   -1.6647 H       1  UNL1        0.2014
     30 H          -4.6736   -0.1644   -0.0928 H       1  UNL1        0.2014
@<TRIPOS>UNITY_ATOM_ATTR
28 1
charge 1
@<TRIPOS>BOND
     1     1    10   ar
     2     1     2   ar
     3     2     3   ar
     4     3     4   ar
     5     4     9   ar
     6     4     5   ar
     7     5     6   ar
     8     6    14    1
     9     6     7   ar
    10     7     8   ar
    11     7    11    1
    12     8     9   ar
    13     9    10   ar
    14    11    17    1
    15    11    13    1
    16    13    14    1
    17    14    16    1
    18    16    28    1
    19    17    28    1
    20     1    18    1
    21     2    19    1
    22     5    20    1
    23     8    21    1
    24    11    12    1
    25    13    22    1
    26    13    23    1
    27    14    15    1
    28    16    24    1
    29    16    25    1
    30    17    26    1
    31    17    27    1
    32    28    29    1
    33    28    30    1
