@<TRIPOS>MOLECULE
ZINC00020245
 46 48 0 0 0
SMALL
GASTEIGER

@<TRIPOS>ATOM
      1 C          -0.0116    1.1799    1.5240 C.3     1  UNL1       -0.0433
      2 N           1.0128    0.2012    1.0138 N.4     1  UNL1        0.2309
      3 C           2.2722    0.2775    1.8477 C.3     1  UNL1       -0.0433
      4 C           0.5085   -1.2311    0.9622 C.3     1  UNL1       -0.0309
      5 C          -0.6411   -1.4230   -0.0186 C.3     1  UNL1        0.0036
      6 C          -1.1090   -2.8921   -0.0618 C.3     1  UNL1        0.0221
      7 N          -1.4689   -3.4005    1.2901 N.pl3   1  UNL1       -0.2994
      8 C          -2.8685   -3.3060    1.5621 C.ar    1  UNL1        0.0372
      9 C          -3.3491   -2.0427    1.9722 C.ar    1  UNL1       -0.0401
     10 C          -4.6679   -1.8450    2.3891 C.ar    1  UNL1       -0.0600
     11 C          -5.5433   -2.9149    2.4203 C.ar    1  UNL1       -0.0614
     12 C          -5.1027   -4.1687    2.0095 C.ar    1  UNL1       -0.0568
     13 C          -3.7775   -4.3874    1.5624 C.ar    1  UNL1       -0.0257
     14 C          -3.4879   -5.8155    1.1576 C.3     1  UNL1       -0.0219
     15 C          -2.2073   -6.0951    0.3804 C.3     1  UNL1       -0.0219
     16 C          -1.0019   -5.8390    1.2386 C.ar    1  UNL1       -0.0257
     17 C          -0.6891   -4.5347    1.6480 C.ar    1  UNL1        0.0372
     18 C           0.4183   -4.3471    2.4922 C.ar    1  UNL1       -0.0401
     19 C           1.1997   -5.4207    2.9179 C.ar    1  UNL1       -0.0600
     20 C           0.8708   -6.7102    2.5239 C.ar    1  UNL1       -0.0614
     21 C          -0.2259   -6.9203    1.6912 C.ar    1  UNL1       -0.0568
     22 H          -0.3787    0.8286    2.4932 H       1  UNL1        0.0777
     23 H          -0.8189    1.2522    0.7922 H       1  UNL1        0.0777
     24 H           0.4718    2.1553    1.6217 H       1  UNL1        0.0777
     25 H           2.0356   -0.0509    2.8646 H       1  UNL1        0.0777
     26 H           3.0239   -0.3731    1.3923 H       1  UNL1        0.0777
     27 H           2.6257    1.3118    1.8451 H       1  UNL1        0.0777
     28 H           1.3622   -1.8503    0.6624 H       1  UNL1        0.0815
     29 H           0.2134   -1.4720    1.9850 H       1  UNL1        0.0815
     30 H          -1.4848   -0.7788    0.2399 H       1  UNL1        0.0332
     31 H          -0.3248   -1.1205   -1.0248 H       1  UNL1        0.0332
     32 H          -1.9525   -2.9814   -0.7602 H       1  UNL1        0.0470
     33 H          -0.2943   -3.4828   -0.5053 H       1  UNL1        0.0470
     34 H          -2.6737   -1.1990    2.0369 H       1  UNL1        0.0636
     35 H          -4.9963   -0.8642    2.7227 H       1  UNL1        0.0618
     36 H          -6.5621   -2.7854    2.7759 H       1  UNL1        0.0618
     37 H          -5.8044   -5.0023    2.0519 H       1  UNL1        0.0621
     38 H          -3.5017   -6.4349    2.0672 H       1  UNL1        0.0317
     39 H          -4.3155   -6.1613    0.5271 H       1  UNL1        0.0317
     40 H          -2.1559   -5.4998   -0.5382 H       1  UNL1        0.0317
     41 H          -2.2146   -7.1437    0.0556 H       1  UNL1        0.0317
     42 H           0.6585   -3.3636    2.8731 H       1  UNL1        0.0636
     43 H           2.0414   -5.2536    3.5847 H       1  UNL1        0.0618
     44 H           1.4513   -7.5563    2.8841 H       1  UNL1        0.0618
     45 H          -0.4906   -7.9403    1.4193 H       1  UNL1        0.0621
     46 H           1.2710    0.4869    0.0595 H       1  UNL1        0.2028
@<TRIPOS>UNITY_ATOM_ATTR
2 1
charge 1
@<TRIPOS>BOND
     1     1     2    1
     2     1    22    1
     3     1    23    1
     4     1    24    1
     5     2     3    1
     6     2     4    1
     7     2    46    1
     8     3    25    1
     9     3    26    1
    10     3    27    1
    11     4     5    1
    12     4    28    1
    13     4    29    1
    14     5     6    1
    15     5    30    1
    16     5    31    1
    17     6     7    1
    18     6    32    1
    19     6    33    1
    20     7    17    1
    21     7     8    1
    22     8    13   ar
    23     8     9   ar
    24     9    10   ar
    25     9    34    1
    26    10    11   ar
    27    10    35    1
    28    11    12   ar
    29    11    36    1
    30    12    13   ar
    31    12    37    1
    32    13    14    1
    33    14    15    1
    34    14    38    1
    35    14    39    1
    36    15    16    1
    37    15    40    1
    38    15    41    1
    39    16    21   ar
    40    16    17   ar
    41    17    18   ar
    42    18    19   ar
    43    18    42    1
    44    19    20   ar
    45    19    43    1
    46    20    21   ar
    47    20    44    1
    48    21    45    1
