@<TRIPOS>MOLECULE
ZINC00113404
 39 40 0 0 0
SMALL
GASTEIGER

@<TRIPOS>ATOM
      1 C          -2.4732    1.4571    1.2466 C.3     1  UNL1       -0.0433
      2 N          -3.1026    0.3866    0.3993 N.4     1  UNL1        0.2309
      3 C          -3.0050    0.7059   -1.0680 C.3     1  UNL1       -0.0433
      4 C          -2.6757   -1.0292    0.7544 C.3     1  UNL1       -0.0315
      5 C          -1.1767   -1.2543    0.5818 C.3     1  UNL1       -0.0003
      6 C          -0.7351   -2.7096    0.9166 C.3     1  UNL1        0.0312
      7 H          -1.0266   -2.9030    1.9593 H       1  UNL1        0.0414
      8 C          -1.4425   -3.7139    0.0084 C.ar    1  UNL1       -0.0382
      9 C          -2.2297   -4.7380    0.5625 C.ar    1  UNL1       -0.0566
     10 C          -2.8837   -5.6536   -0.2663 C.ar    1  UNL1       -0.0431
     11 C          -2.7559   -5.5549   -1.6487 C.ar    1  UNL1        0.0410
     12 C          -1.9572   -4.5636   -2.2138 C.ar    1  UNL1       -0.0431
     13 C          -1.2955   -3.6524   -1.3875 C.ar    1  UNL1       -0.0566
     14 CL         -3.5881   -6.6591   -2.6694 Cl      1  UNL1       -0.0835
     15 C           0.7858   -2.8660    0.8621 C.ar    1  UNL1        0.0488
     16 C           1.3769   -4.1142    1.0749 C.ar    1  UNL1       -0.0398
     17 C           2.7579   -4.2393    0.9543 C.ar    1  UNL1       -0.0586
     18 C           3.5191   -3.1190    0.6548 C.ar    1  UNL1       -0.0436
     19 C           2.8653   -1.9108    0.4955 C.ar    1  UNL1        0.0279
     20 N           1.5235   -1.7600    0.5877 N.ar    1  UNL1       -0.2593
     21 H          -1.4379    1.6021    0.9274 H       1  UNL1        0.0777
     22 H          -2.5254    1.1441    2.2923 H       1  UNL1        0.0777
     23 H          -3.0494    2.3759    1.1030 H       1  UNL1        0.0777
     24 H          -1.9536    0.8289   -1.3382 H       1  UNL1        0.0777
     25 H          -3.4658   -0.1100   -1.6298 H       1  UNL1        0.0777
     26 H          -3.5559    1.6349   -1.2427 H       1  UNL1        0.0777
     27 H          -2.9800   -1.1894    1.7944 H       1  UNL1        0.0814
     28 H          -3.2755   -1.6899    0.1208 H       1  UNL1        0.0814
     29 H          -0.8760   -0.9969   -0.4408 H       1  UNL1        0.0326
     30 H          -0.6402   -0.5651    1.2457 H       1  UNL1        0.0326
     31 H          -2.3290   -4.8490    1.6402 H       1  UNL1        0.0621
     32 H          -3.4832   -6.4499    0.1708 H       1  UNL1        0.0632
     33 H          -1.8325   -4.5043   -3.2912 H       1  UNL1        0.0632
     34 H          -0.6433   -2.9090   -1.8467 H       1  UNL1        0.0621
     35 H           0.7802   -4.9923    1.3023 H       1  UNL1        0.0636
     36 H           3.2343   -5.2086    1.0815 H       1  UNL1        0.0619
     37 H           4.5963   -3.1868    0.5474 H       1  UNL1        0.0633
     38 H           3.4226   -1.0034    0.2773 H       1  UNL1        0.0829
     39 H          -4.1076    0.4181    0.6170 H       1  UNL1        0.2028
@<TRIPOS>UNITY_ATOM_ATTR
2 1
charge 1
@<TRIPOS>BOND
     1     1     2    1
     2     1    21    1
     3     1    22    1
     4     1    23    1
     5     2     3    1
     6     2     4    1
     7     2    39    1
     8     3    24    1
     9     3    25    1
    10     3    26    1
    11     4     5    1
    12     4    27    1
    13     4    28    1
    14     5     6    1
    15     5    29    1
    16     5    30    1
    17     6     7    1
    18     6     8    1
    19     6    15    1
    20     8    13   ar
    21     8     9   ar
    22     9    10   ar
    23     9    31    1
    24    10    11   ar
    25    10    32    1
    26    11    12   ar
    27    11    14    1
    28    12    13   ar
    29    12    33    1
    30    13    34    1
    31    15    20   ar
    32    15    16   ar
    33    16    17   ar
    34    16    35    1
    35    17    18   ar
    36    17    36    1
    37    18    19   ar
    38    18    37    1
    39    19    20   ar
    40    19    38    1
