@<TRIPOS>MOLECULE
ZINC00967933
 59 60 0 0 0
SMALL
GASTEIGER

@<TRIPOS>ATOM
      1 C           2.3984    3.4511    3.4333 C.3     1  UNL1       -0.0244
      2 C           1.9247    2.0198    3.1940 C.3     1  UNL1       -0.0330
      3 N           2.7150    1.2597    2.0794 N.4     1  UNL1        0.2428
      4 C           4.2472    1.3165    2.3340 C.3     1  UNL1       -0.0330
      5 C           4.6604    0.8071    3.7111 C.3     1  UNL1       -0.0244
      6 C           2.2846   -0.2329    2.0850 C.3     1  UNL1       -0.0330
      7 C           0.8064   -0.4778    1.8382 C.3     1  UNL1       -0.0244
      8 C           2.3825    1.9616    0.7148 C.3     1  UNL1       -0.0271
      9 C           2.9863    1.3226   -0.5401 C.3     1  UNL1        0.0208
     10 C           2.4975    1.9484   -1.8917 C.3     1  UNL1        0.0985
     11 C           2.7712    0.9931   -3.0883 C.ar    1  UNL1       -0.0157
     12 C           2.0946    1.1722   -4.3150 C.ar    1  UNL1       -0.0558
     13 C           2.2213    0.2531   -5.3669 C.ar    1  UNL1       -0.0614
     14 C           3.0379   -0.8629   -5.2274 C.ar    1  UNL1       -0.0617
     15 C           3.7715   -1.0321   -4.0545 C.ar    1  UNL1       -0.0614
     16 C           3.6496   -0.1090   -3.0071 C.ar    1  UNL1       -0.0558
     17 C           3.0140    3.4108   -2.2368 C.3     1  UNL1       -0.0078
     18 C           2.3707    4.5621   -1.4237 C.3     1  UNL1       -0.0473
     19 C           2.8974    5.9429   -1.8162 C.3     1  UNL1       -0.0527
     20 C           4.4165    6.0031   -1.7369 C.3     1  UNL1       -0.0530
     21 C           5.0464    4.9160   -2.5922 C.3     1  UNL1       -0.0527
     22 C           4.5539    3.5217   -2.2042 C.3     1  UNL1       -0.0473
     23 O           1.0624    1.9529   -1.7386 O.3     1  UNL1       -0.3835
     24 H           3.4394    3.5022    3.7595 H       1  UNL1        0.0281
     25 H           1.7944    3.9030    4.2277 H       1  UNL1        0.0281
     26 H           2.2772    4.0819    2.5491 H       1  UNL1        0.0281
     27 H           1.9988    1.4273    4.1115 H       1  UNL1        0.0812
     28 H           0.8740    2.0460    2.8868 H       1  UNL1        0.0812
     29 H           4.7267    0.7119    1.5585 H       1  UNL1        0.0812
     30 H           4.5625    2.3588    2.1989 H       1  UNL1        0.0812
     31 H           4.4394   -0.2551    3.8454 H       1  UNL1        0.0281
     32 H           5.7440    0.9152    3.8282 H       1  UNL1        0.0281
     33 H           4.1964    1.3650    4.5297 H       1  UNL1        0.0281
     34 H           2.8997   -0.7574    1.3469 H       1  UNL1        0.0812
     35 H           2.5311   -0.6329    3.0727 H       1  UNL1        0.0812
     36 H           0.5068   -0.1987    0.8255 H       1  UNL1        0.0281
     37 H           0.6011   -1.5480    1.9584 H       1  UNL1        0.0281
     38 H           0.1674    0.0434    2.5549 H       1  UNL1        0.0281
     39 H           1.2916    2.0218    0.6600 H       1  UNL1        0.0816
     40 H           2.7901    2.9607    0.8267 H       1  UNL1        0.0816
     41 H           4.0789    1.3284   -0.4926 H       1  UNL1        0.0348
     42 H           2.6695    0.2730   -0.5368 H       1  UNL1        0.0348
     43 H           1.4359    2.0263   -4.4635 H       1  UNL1        0.0621
     44 H           1.6679    0.4075   -6.2904 H       1  UNL1        0.0618
     45 H           3.1024   -1.5957   -6.0280 H       1  UNL1        0.0618
     46 H           4.4204   -1.8948   -3.9516 H       1  UNL1        0.0618
     47 H           4.2467   -0.2973   -2.1195 H       1  UNL1        0.0621
     48 H           2.7114    3.6243   -3.2741 H       1  UNL1        0.0332
     49 H           1.2834    4.5716   -1.5465 H       1  UNL1        0.0269
     50 H           2.5684    4.4470   -0.3609 H       1  UNL1        0.0269
     51 H           2.4660    6.6992   -1.1491 H       1  UNL1        0.0265
     52 H           2.5683    6.1897   -2.8326 H       1  UNL1        0.0265
     53 H           4.7367    5.8784   -0.6946 H       1  UNL1        0.0265
     54 H           4.7651    6.9907   -2.0610 H       1  UNL1        0.0265
     55 H           6.1371    4.9628   -2.5044 H       1  UNL1        0.0265
     56 H           4.8109    5.1085   -3.6543 H       1  UNL1        0.0265
     57 H           4.9280    3.2953   -1.2006 H       1  UNL1        0.0269
     58 H           5.0010    2.7930   -2.8870 H       1  UNL1        0.0269
     59 H           0.6892    2.7545   -2.1379 H       1  UNL1        0.2106
@<TRIPOS>UNITY_ATOM_ATTR
3 1
charge 1
@<TRIPOS>BOND
     1     1     2    1
     2     1    24    1
     3     1    25    1
     4     1    26    1
     5     2     3    1
     6     2    27    1
     7     2    28    1
     8     3     4    1
     9     3     6    1
    10     3     8    1
    11     4     5    1
    12     4    29    1
    13     4    30    1
    14     5    31    1
    15     5    32    1
    16     5    33    1
    17     6     7    1
    18     6    34    1
    19     6    35    1
    20     7    36    1
    21     7    37    1
    22     7    38    1
    23     8     9    1
    24     8    39    1
    25     8    40    1
    26     9    41    1
    27     9    42    1
    28    10    17    1
    29    10    23    1
    30    11    16   ar
    31    11    12   ar
    32    12    13   ar
    33    12    43    1
    34    13    14   ar
    35    13    44    1
    36    14    15   ar
    37    14    45    1
    38    15    16   ar
    39    15    46    1
    40    16    47    1
    41    17    22    1
    42    17    18    1
    43    17    48    1
    44    18    19    1
    45    18    49    1
    46    18    50    1
    47    19    20    1
    48    19    51    1
    49    19    52    1
    50    20    21    1
    51    20    53    1
    52    20    54    1
    53    21    22    1
    54    21    55    1
    55    21    56    1
    56    22    57    1
    57    22    58    1
    58    23    59    1
    59    10    11    1
    60    10     9    1
