@<TRIPOS>MOLECULE
ZINC00001464
 36 38 0 0 0
SMALL
GASTEIGER

@<TRIPOS>ATOM
      1 C           3.4939    1.0926   -0.8082 C.3     1  UNL1       -0.0306
      2 C           2.7107   -0.0502   -0.1879 C.3     1  UNL1        0.0900
      3 O           3.0298   -1.2929   -0.8280 O.3     1  UNL1       -0.4603
      4 C           2.3555   -1.5639   -1.9835 C.2     1  UNL1        0.3595
      5 O           1.5330   -0.8110   -2.4940 O.2     1  UNL1       -0.2432
      6 C           2.7221   -2.8659   -2.5529 C.ar    1  UNL1        0.1703
      7 C           2.2728   -3.4028   -3.7537 C.ar    1  UNL1        0.0747
      8 N           2.9179   -4.6153   -3.8881 N.ar    1  UNL1       -0.2997
      9 C           3.6349   -4.8078   -2.7313 C.ar    1  UNL1        0.1016
     10 N           3.5596   -3.7738   -1.9254 N.ar    1  UNL1       -0.2285
     11 C           2.7877   -5.5007   -4.9797 C.ar    1  UNL1        0.0601
     12 C           2.7814   -6.8858   -4.7418 C.ar    1  UNL1       -0.0344
     13 C           2.5466   -7.7693   -5.7985 C.ar    1  UNL1       -0.0245
     14 C           2.3722   -7.2799   -7.0857 C.ar    1  UNL1        0.1242
     15 C           2.4295   -5.9177   -7.3436 C.ar    1  UNL1       -0.0123
     16 C           2.6209   -5.0124   -6.2890 C.ar    1  UNL1        0.0634
     17 C           2.6939   -3.5836   -6.6998 C.2     1  UNL1        0.2488
     18 O           3.3141   -3.3216   -7.7287 O.2     1  UNL1       -0.2699
     19 N           2.0003   -2.6313   -5.9673 N.am    1  UNL1       -0.2947
     20 C           1.2848   -2.9413   -4.7493 C.3     1  UNL1        0.0576
     21 C           1.6698   -1.3740   -6.6162 C.3     1  UNL1        0.0039
     22 F           2.1346   -8.1298   -8.0923 F       1  UNL1       -0.2055
     23 H           4.5626    0.8682   -0.8005 H       1  UNL1        0.0262
     24 H           3.3265    2.0209   -0.2561 H       1  UNL1        0.0262
     25 H           3.2048    1.2483   -1.8510 H       1  UNL1        0.0262
     26 H           2.9911   -0.1554    0.8655 H       1  UNL1        0.0695
     27 H           1.6326    0.1424   -0.2154 H       1  UNL1        0.0695
     28 H           4.2368   -5.6911   -2.5498 H       1  UNL1        0.1032
     29 H           2.8833   -7.2976   -3.7396 H       1  UNL1        0.0639
     30 H           2.4828   -8.8393   -5.6256 H       1  UNL1        0.0647
     31 H           2.3172   -5.5653   -8.3663 H       1  UNL1        0.0654
     32 H           0.7418   -2.0588   -4.4042 H       1  UNL1        0.0529
     33 H           0.5362   -3.7141   -4.9593 H       1  UNL1        0.0529
     34 H           0.6213   -1.4225   -6.9305 H       1  UNL1        0.0429
     35 H           1.8046   -0.5512   -5.9101 H       1  UNL1        0.0429
     36 H           2.2845   -1.1946   -7.5020 H       1  UNL1        0.0429
@<TRIPOS>BOND
     1     1     2    1
     2     1    23    1
     3     1    24    1
     4     1    25    1
     5     2     3    1
     6     2    26    1
     7     2    27    1
     8     3     4    1
     9     4     5    2
    10     4     6    1
    11     6    10   ar
    12     6     7   ar
    13     7    20    1
    14     7     8   ar
    15     8     9   ar
    16     8    11    1
    17     9    10   ar
    18     9    28    1
    19    11    16   ar
    20    11    12   ar
    21    12    13   ar
    22    12    29    1
    23    13    14   ar
    24    13    30    1
    25    14    15   ar
    26    14    22    1
    27    15    16   ar
    28    15    31    1
    29    16    17    1
    30    17    18    2
    31    17    19   am
    32    19    20    1
    33    19    21    1
    34    20    32    1
    35    20    33    1
    36    21    34    1
    37    21    35    1
    38    21    36    1
