@<TRIPOS>MOLECULE
ZINC03831106
 30 30 0 0 0
SMALL
GASTEIGER

@<TRIPOS>ATOM
      1 C          -1.2530    0.1384    1.1940 C.3     1  UNL1       -0.0639
      2 C           0.2476    0.0202    1.4242 C.3     1  UNL1       -0.0351
      3 C           0.9727    1.2836    1.9893 C.3     1  UNL1        0.1045
      4 C           2.4639    0.9059    2.0699 C.2     1  UNL1        0.1524
      5 O           3.0403    0.6932    3.1354 O.2     1  UNL1       -0.2960
      6 C           3.1699    0.7064    0.7319 C.3     1  UNL1        0.0312
      7 H           2.6914   -0.1370    0.2245 H       1  UNL1        0.0390
      8 C           2.9785    1.9782   -0.0745 C.3     1  UNL1        0.0209
      9 N           1.6100    2.4543   -0.0953 N.am    1  UNL1       -0.3138
     10 C           0.7834    2.4332    0.9988 C.2     1  UNL1        0.2264
     11 O          -0.1398    3.2394    1.0620 O.2     1  UNL1       -0.2747
     12 C           4.6426    0.3461    0.8753 C.3     1  UNL1       -0.0542
     13 C           0.3872    1.6332    3.3855 C.3     1  UNL1       -0.0351
     14 C           0.9749    2.8626    4.0737 C.3     1  UNL1       -0.0639
     15 H          -1.8014    0.3210    2.1230 H       1  UNL1        0.0230
     16 H          -1.6282   -0.7997    0.7711 H       1  UNL1        0.0230
     17 H          -1.4874    0.9327    0.4799 H       1  UNL1        0.0230
     18 H           0.4347   -0.8301    2.0945 H       1  UNL1        0.0277
     19 H           0.6706   -0.2644    0.4552 H       1  UNL1        0.0277
     20 H           3.2730    1.8178   -1.1173 H       1  UNL1        0.0469
     21 H           3.5926    2.7935    0.3262 H       1  UNL1        0.0469
     22 H           1.4089    3.2486   -0.6954 H       1  UNL1        0.1487
     23 H           5.2152    1.1568    1.3394 H       1  UNL1        0.0237
     24 H           4.7661   -0.5483    1.4961 H       1  UNL1        0.0237
     25 H           5.0805    0.1336   -0.1052 H       1  UNL1        0.0237
     26 H          -0.6920    1.8078    3.3092 H       1  UNL1        0.0277
     27 H           0.5159    0.7757    4.0560 H       1  UNL1        0.0277
     28 H           0.7618    3.7793    3.5165 H       1  UNL1        0.0230
     29 H           0.5239    2.9729    5.0653 H       1  UNL1        0.0230
     30 H           2.0548    2.7859    4.2083 H       1  UNL1        0.0230
@<TRIPOS>BOND
     1     1     2    1
     2     1    15    1
     3     1    16    1
     4     1    17    1
     5     2     3    1
     6     2    18    1
     7     2    19    1
     8     3    10    1
     9     3     4    1
    10     3    13    1
    11     4     5    2
    12     4     6    1
    13     6     7    1
    14     6     8    1
    15     6    12    1
    16     8     9    1
    17     8    20    1
    18     8    21    1
    19     9    10   am
    20     9    22    1
    21    10    11    2
    22    12    23    1
    23    12    24    1
    24    12    25    1
    25    13    14    1
    26    13    26    1
    27    13    27    1
    28    14    28    1
    29    14    29    1
    30    14    30    1
