@<TRIPOS>MOLECULE
ZINC00000106
 41 41 0 0 0
SMALL
GASTEIGER

@<TRIPOS>ATOM
      1 C           5.2798   -0.1890    4.1082 C.3     1  UNL1       -0.0396
      2 C           3.8169   -0.2952    3.7789 C.ar    1  UNL1       -0.0469
      3 C           3.1423   -1.4901    4.0501 C.ar    1  UNL1       -0.0572
      4 C           1.7787   -1.5967    3.7872 C.ar    1  UNL1       -0.0396
      5 C           1.0798   -0.5038    3.2608 C.ar    1  UNL1        0.0825
      6 C           1.7345    0.7089    2.9760 C.ar    1  UNL1        0.1391
      7 C           3.1002    0.7986    3.2476 C.ar    1  UNL1       -0.0156
      8 O           0.9650    1.7377    2.4796 O.3     1  UNL1       -0.4877
      9 C           1.6174    2.8790    1.9004 C.3     1  UNL1        0.1205
     10 C           0.5305    3.7368    1.2091 C.3     1  UNL1        0.1285
     11 H          -0.0895    3.0876    0.5796 H       1  UNL1        0.0681
     12 C           1.1054    4.8985    0.3625 C.3     1  UNL1       -0.0033
     13 C           0.2266    6.7320   -1.3395 C.3     1  UNL1       -0.0203
     14 C           1.3127    6.3808   -2.3615 C.3     1  UNL1       -0.0193
     15 C          -1.0894    7.0080   -2.0881 C.3     1  UNL1       -0.0193
     16 C           0.6080    7.9754   -0.5331 C.3     1  UNL1       -0.0193
     17 O          -0.3574    4.3231    2.1733 O.3     1  UNL1       -0.3831
     18 CL         -0.6115   -0.7004    2.9575 Cl      1  UNL1       -0.0798
     19 H           5.4300   -0.2377    5.1923 H       1  UNL1        0.0278
     20 H           5.8360   -1.0036    3.6326 H       1  UNL1        0.0278
     21 H           5.7045    0.7544    3.7499 H       1  UNL1        0.0278
     22 H           3.6758   -2.3416    4.4698 H       1  UNL1        0.0621
     23 H           1.2687   -2.5334    4.0002 H       1  UNL1        0.0633
     24 H           3.6511    1.7181    3.0643 H       1  UNL1        0.0657
     25 H           2.1013    3.4548    2.6964 H       1  UNL1        0.0725
     26 H           2.3487    2.5479    1.1546 H       1  UNL1        0.0725
     27 H           1.5341    5.6781    0.9989 H       1  UNL1        0.0841
     28 H           1.8314    4.5329   -0.3650 H       1  UNL1        0.0841
     29 H           0.9798    5.5941   -3.0479 H       1  UNL1        0.0287
     30 H           1.5653    7.2570   -2.9716 H       1  UNL1        0.0287
     31 H           2.2423    6.0526   -1.8896 H       1  UNL1        0.0287
     32 H          -1.8954    7.2824   -1.3987 H       1  UNL1        0.0287
     33 H          -0.9676    7.8349   -2.7986 H       1  UNL1        0.0287
     34 H          -1.4187    6.1318   -2.6587 H       1  UNL1        0.0287
     35 H          -0.1531    8.2181    0.2156 H       1  UNL1        0.0287
     36 H           1.5695    7.8584   -0.0255 H       1  UNL1        0.0287
     37 H           0.6966    8.8475   -1.1949 H       1  UNL1        0.0287
     38 H          -0.5222    3.6411    2.8613 H       1  UNL1        0.2102
     39 N          -0.0339    5.5577   -0.4066 N.4     1  UNL1        0.2327
     40 H          -0.5161    4.8235   -0.9420 H       1  UNL1        0.2020
     41 H          -0.7235    5.8376    0.3136 H       1  UNL1        0.2020
@<TRIPOS>UNITY_ATOM_ATTR
39 1
charge 1
@<TRIPOS>BOND
     1     1     2    1
     2     1    19    1
     3     1    20    1
     4     1    21    1
     5     2     7   ar
     6     2     3   ar
     7     3     4   ar
     8     3    22    1
     9     4     5   ar
    10     4    23    1
    11     5     6   ar
    12     5    18    1
    13     6     7   ar
    14     6     8    1
    15     7    24    1
    16     8     9    1
    17     9    25    1
    18     9    26    1
    19    10    12    1
    20    10    17    1
    21    12    27    1
    22    12    28    1
    23    12    39    1
    24    13    14    1
    25    13    15    1
    26    13    16    1
    27    13    39    1
    28    14    29    1
    29    14    30    1
    30    14    31    1
    31    15    32    1
    32    15    33    1
    33    15    34    1
    34    16    35    1
    35    16    36    1
    36    16    37    1
    37    17    38    1
    38    39    40    1
    39    39    41    1
    40    10    11    1
    41    10     9    1
