@<TRIPOS>MOLECULE
ZINC01531006
 28 27 0 0 0
SMALL
GASTEIGER

@<TRIPOS>ATOM
      1 C          -3.0862   -2.7262   -2.6707 C.3     1  UNL1        0.0727
      2 C          -3.1030   -3.9138   -1.6907 C.3     1  UNL1        0.1065
      3 H          -4.0903   -4.3856   -1.7186 H       1  UNL1        0.0643
      4 C          -2.7167   -3.6095   -0.2249 C.3     1  UNL1        0.1115
      5 H          -2.7640   -4.5638    0.3026 H       1  UNL1        0.0647
      6 C          -3.6029   -2.5604    0.4716 C.3     1  UNL1        0.1123
      7 H          -4.6593   -2.7577    0.2603 H       1  UNL1        0.0647
      8 C          -3.3826   -2.3837    1.9936 C.3     1  UNL1        0.1199
      9 H          -2.3389   -2.0881    2.1593 H       1  UNL1        0.0652
     10 C          -3.7032   -3.5817    2.8942 C.3     1  UNL1        0.1842
     11 H          -3.5584   -3.3011    3.9441 H       1  UNL1        0.0739
     12 C          -5.1847   -4.0248    2.7553 C.2     1  UNL1        0.3866
     13 O          -6.0156   -3.0904    2.5692 O.co2   1  UNL1       -0.2433
     14 O          -2.8419   -4.7098    2.6394 O.3     1  UNL1       -0.3782
     15 O          -4.1704   -1.2303    2.3934 O.3     1  UNL1       -0.3860
     16 O          -3.3029   -1.2650   -0.1118 O.3     1  UNL1       -0.3865
     17 O          -1.3297   -3.2073   -0.2223 O.3     1  UNL1       -0.3865
     18 O          -2.1716   -4.9006   -2.1918 O.3     1  UNL1       -0.3869
     19 O          -3.4882   -3.1241   -3.9928 O.3     1  UNL1       -0.3924
     20 H          -2.0817   -2.3013   -2.7653 H       1  UNL1        0.0584
     21 H          -3.7832   -1.9442   -2.3682 H       1  UNL1        0.0584
     22 H          -3.4692   -5.4722    2.7092 H       1  UNL1        0.2106
     23 H          -5.0902   -1.5939    2.5150 H       1  UNL1        0.2100
     24 H          -3.7362   -0.6345    0.5072 H       1  UNL1        0.2100
     25 H          -1.3519   -2.2301   -0.2138 H       1  UNL1        0.2100
     26 H          -1.3203   -4.6686   -1.7739 H       1  UNL1        0.2100
     27 H          -3.9419   -3.9809   -3.9068 H       1  UNL1        0.2095
     28 O          -5.3503   -5.2779    2.8222 O.co2   1  UNL1       -0.2433
@<TRIPOS>BOND
     1     1    19    1
     2     1    20    1
     3     1    21    1
     4     2    18    1
     5     4     6    1
     6     4    17    1
     7     6     7    1
     8     6    16    1
     9     8    10    1
    10     8    15    1
    11    10    11    1
    12    10    12    1
    13    10    14    1
    14    12    13   ar
    15    12    28   ar
    16    14    22    1
    17    15    23    1
    18    16    24    1
    19    17    25    1
    20    18    26    1
    21    19    27    1
    22     2     3    1
    23     2     1    1
    24     4     5    1
    25     4     2    1
    26     8     9    1
    27     8     6    1
