@<TRIPOS>MOLECULE
ZINC00000122
 40 41 0 0 0
SMALL
GASTEIGER

@<TRIPOS>ATOM
      1 C          -2.8572   -3.3946   -1.6567 C.3     1  UNL1       -0.0433
      2 N          -3.3682   -2.0645   -2.1309 N.4     1  UNL1        0.2325
      3 C          -4.8630   -2.0815   -2.2862 C.3     1  UNL1       -0.0433
      4 C          -2.9038   -0.8832   -1.2928 C.3     1  UNL1       -0.0084
      5 C          -1.3894   -0.6712   -1.4184 C.3     1  UNL1        0.0888
      6 O          -1.0232   -0.7632   -2.8021 O.3     1  UNL1       -0.3606
      7 C           0.3701   -0.4079   -3.0220 C.3     1  UNL1        0.1256
      8 H           0.5822    0.4969   -2.4379 H       1  UNL1        0.0712
      9 C           1.2764   -1.5467   -2.5727 C.ar    1  UNL1       -0.0130
     10 C           2.3237   -1.3044   -1.6685 C.ar    1  UNL1       -0.0544
     11 C           3.2096   -2.3252   -1.3146 C.ar    1  UNL1       -0.0430
     12 C           3.0562   -3.5967   -1.8619 C.ar    1  UNL1        0.0410
     13 C           2.0058   -3.8625   -2.7372 C.ar    1  UNL1       -0.0430
     14 C           1.1171   -2.8453   -3.0880 C.ar    1  UNL1       -0.0544
     15 CL          4.1796   -4.8392   -1.4767 Cl      1  UNL1       -0.0835
     16 C           0.6084   -0.0345   -4.4880 C.ar    1  UNL1        0.0744
     17 C          -0.1907   -0.5538   -5.5080 C.ar    1  UNL1       -0.0375
     18 C           0.0815   -0.2053   -6.8297 C.ar    1  UNL1       -0.0585
     19 C           1.1520    0.6348   -7.1055 C.ar    1  UNL1       -0.0436
     20 C           1.9081    1.0971   -6.0450 C.ar    1  UNL1        0.0280
     21 N           1.6552    0.7930   -4.7492 N.ar    1  UNL1       -0.2569
     22 H          -3.2657   -3.5909   -0.6627 H       1  UNL1        0.0777
     23 H          -1.7660   -3.3678   -1.6364 H       1  UNL1        0.0777
     24 H          -3.1850   -4.1546   -2.3708 H       1  UNL1        0.0777
     25 H          -5.3116   -2.2233   -1.2988 H       1  UNL1        0.0777
     26 H          -5.1752   -1.1303   -2.7236 H       1  UNL1        0.0777
     27 H          -5.1287   -2.9039   -2.9560 H       1  UNL1        0.0777
     28 H          -3.4193   -0.0075   -1.7025 H       1  UNL1        0.0837
     29 H          -3.2195   -1.0450   -0.2579 H       1  UNL1        0.0837
     30 H          -1.1315    0.3154   -1.0175 H       1  UNL1        0.0614
     31 H          -0.8545   -1.4328   -0.8422 H       1  UNL1        0.0614
     32 H           2.4852   -0.3078   -1.2576 H       1  UNL1        0.0622
     33 H           4.0337   -2.1170   -0.6350 H       1  UNL1        0.0632
     34 H           1.8960   -4.8534   -3.1724 H       1  UNL1        0.0632
     35 H           0.3251   -3.0628   -3.7990 H       1  UNL1        0.0622
     36 H          -1.0107   -1.2238   -5.2902 H       1  UNL1        0.0636
     37 H          -0.5308   -0.5929   -7.6383 H       1  UNL1        0.0619
     38 H           1.3935    0.9180   -8.1232 H       1  UNL1        0.0633
     39 H           2.7671    1.7431   -6.2116 H       1  UNL1        0.0829
     40 H          -2.9495   -1.8983   -3.0588 H       1  UNL1        0.2028
@<TRIPOS>UNITY_ATOM_ATTR
2 1
charge 1
@<TRIPOS>BOND
     1     1     2    1
     2     1    22    1
     3     1    23    1
     4     1    24    1
     5     2     3    1
     6     2     4    1
     7     2    40    1
     8     3    25    1
     9     3    26    1
    10     3    27    1
    11     4     5    1
    12     4    28    1
    13     4    29    1
    14     5     6    1
    15     5    30    1
    16     5    31    1
    17     6     7    1
    18     7     8    1
    19     7     9    1
    20     7    16    1
    21     9    14   ar
    22     9    10   ar
    23    10    11   ar
    24    10    32    1
    25    11    12   ar
    26    11    33    1
    27    12    13   ar
    28    12    15    1
    29    13    14   ar
    30    13    34    1
    31    14    35    1
    32    16    21   ar
    33    16    17   ar
    34    17    18   ar
    35    17    36    1
    36    18    19   ar
    37    18    37    1
    38    19    20   ar
    39    19    38    1
    40    20    21   ar
    41    20    39    1
