@<TRIPOS>MOLECULE
ZINC03872605
 44 44 0 0 0
SMALL
GASTEIGER

@<TRIPOS>ATOM
      1 C           2.7279    4.4720    0.0838 C.3     1  UNL1        0.0364
      2 O           1.9675    3.7032   -0.8427 O.3     1  UNL1       -0.3830
      3 C           1.5764    2.4496   -0.2866 C.3     1  UNL1        0.0473
      4 C           0.7040    1.6848   -1.2847 C.3     1  UNL1       -0.0291
      5 C           1.3339    1.4329   -2.6641 C.3     1  UNL1       -0.0454
      6 C           2.6050    0.5907   -2.5948 C.3     1  UNL1       -0.0066
      7 C           3.1496    0.2094   -3.9802 C.2     1  UNL1        0.0872
      8 N           4.0197    0.9495   -4.6206 N.2     1  UNL1       -0.0889
      9 O           4.2668    2.1592   -3.9537 O.2     1  UNL1       -0.3881
     10 C           5.2039    2.9393   -4.7011 C.3     1  UNL1        0.1571
     11 C           6.6153    2.4859   -4.3378 C.3     1  UNL1        0.0022
     12 N           6.7818    1.0495   -4.6951 N.4     1  UNL1        0.2210
     13 C           2.7552   -1.1112   -4.5987 C.ar    1  UNL1       -0.0006
     14 C           3.2936   -1.4702   -5.8467 C.ar    1  UNL1       -0.0522
     15 C           3.1141   -2.7598   -6.3639 C.ar    1  UNL1       -0.0495
     16 C           2.3835   -3.7161   -5.6479 C.ar    1  UNL1        0.0548
     17 C           1.7665   -3.3264   -4.4507 C.ar    1  UNL1       -0.0495
     18 C           1.9398   -2.0344   -3.9380 C.ar    1  UNL1       -0.0522
     19 C           2.2878   -5.1535   -6.1116 C.3     1  UNL1        0.4174
     20 F           2.9131   -5.3810   -7.2988 F       1  UNL1       -0.1659
     21 F           2.8625   -6.0072   -5.2190 F       1  UNL1       -0.1659
     22 F           1.0053   -5.5737   -6.2662 F       1  UNL1       -0.1659
     23 H           2.8243    5.4886   -0.3072 H       1  UNL1        0.0523
     24 H           3.7283    4.0419    0.1893 H       1  UNL1        0.0523
     25 H           2.2361    4.5209    1.0607 H       1  UNL1        0.0523
     26 H           2.4690    1.8702   -0.0243 H       1  UNL1        0.0560
     27 H           0.9984    2.6214    0.6269 H       1  UNL1        0.0560
     28 H           0.4128    0.7276   -0.8353 H       1  UNL1        0.0287
     29 H          -0.2190    2.2565   -1.4427 H       1  UNL1        0.0287
     30 H           0.5908    0.9219   -3.2892 H       1  UNL1        0.0270
     31 H           1.5412    2.3885   -3.1598 H       1  UNL1        0.0270
     32 H           3.3869    1.1299   -2.0490 H       1  UNL1        0.0329
     33 H           2.4329   -0.3080   -1.9980 H       1  UNL1        0.0329
     34 H           5.0117    2.8483   -5.7787 H       1  UNL1        0.0778
     35 H           5.0670    3.9863   -4.4197 H       1  UNL1        0.0778
     36 H           7.3893    3.0461   -4.8679 H       1  UNL1        0.0848
     37 H           6.7771    2.5450   -3.2590 H       1  UNL1        0.0848
     38 H           6.8572    0.9100   -5.7082 H       1  UNL1        0.1995
     39 H           7.5782    0.5997   -4.2269 H       1  UNL1        0.1995
     40 H           3.8721   -0.7592   -6.4319 H       1  UNL1        0.0624
     41 H           3.5671   -3.0232   -7.3206 H       1  UNL1        0.0623
     42 H           1.1647   -4.0448   -3.8933 H       1  UNL1        0.0623
     43 H           1.4360   -1.7997   -3.0056 H       1  UNL1        0.0624
     44 H           5.9079    0.5647   -4.4117 H       1  UNL1        0.1995
@<TRIPOS>UNITY_ATOM_ATTR
12 1
charge 1
@<TRIPOS>BOND
     1     1     2    1
     2     1    23    1
     3     1    24    1
     4     1    25    1
     5     2     3    1
     6     3     4    1
     7     3    26    1
     8     3    27    1
     9     4     5    1
    10     4    28    1
    11     4    29    1
    12     5     6    1
    13     5    30    1
    14     5    31    1
    15     6     7    1
    16     6    32    1
    17     6    33    1
    18     7     8    2
    19     7    13    1
    20     8     9    1
    21     9    10    1
    22    10    11    1
    23    10    34    1
    24    10    35    1
    25    11    12    1
    26    11    36    1
    27    11    37    1
    28    12    38    1
    29    12    39    1
    30    12    44    1
    31    13    18   ar
    32    13    14   ar
    33    14    15   ar
    34    14    40    1
    35    15    16   ar
    36    15    41    1
    37    16    17   ar
    38    16    19    1
    39    17    18   ar
    40    17    42    1
    41    18    43    1
    42    19    20    1
    43    19    21    1
    44    19    22    1
