@<TRIPOS>MOLECULE
ZINC00057115
 34 35 0 0 0
SMALL
GASTEIGER

@<TRIPOS>ATOM
      1 C           1.0666   -0.3187   -0.0213 C.3     1  UNL1       -0.0208
      2 C           0.5837   -1.6950   -0.3794 C.ar    1  UNL1        0.0592
      3 C           1.0488   -2.8714    0.1159 C.ar    1  UNL1        0.1171
      4 C           0.0648   -3.8963   -0.4668 C.ar    1  UNL1        0.2932
      5 O           0.0828   -5.1036   -0.2713 O.2     1  UNL1       -0.2638
      6 N          -0.8265   -3.1900   -1.2772 N.ar    1  UNL1       -0.2156
      7 N          -0.4463   -1.8431   -1.3198 N.ar    1  UNL1       -0.2823
      8 C          -1.5034   -0.8598   -1.5586 C.3     1  UNL1        0.0292
      9 C          -1.7545   -3.7670   -2.1590 C.ar    1  UNL1        0.0674
     10 C          -1.8488   -3.3416   -3.4898 C.ar    1  UNL1       -0.0362
     11 C          -2.8093   -3.8891   -4.3416 C.ar    1  UNL1       -0.0598
     12 C          -3.6950   -4.8589   -3.8705 C.ar    1  UNL1       -0.0616
     13 C          -3.5980   -5.3024   -2.5512 C.ar    1  UNL1       -0.0598
     14 C          -2.6208   -4.7769   -1.7059 C.ar    1  UNL1       -0.0362
     15 N           2.0989   -3.1970    0.9897 N.pl3   1  UNL1       -0.3304
     16 C           2.5686   -4.5662    1.2279 C.3     1  UNL1        0.0006
     17 C           3.0028   -2.1982    1.5557 C.3     1  UNL1        0.0006
     18 H           0.6287   -0.0079    0.9324 H       1  UNL1        0.0293
     19 H           0.7934    0.4203   -0.7759 H       1  UNL1        0.0293
     20 H           2.1530   -0.2636    0.0477 H       1  UNL1        0.0293
     21 H          -1.6291   -0.7101   -2.6363 H       1  UNL1        0.0472
     22 H          -2.4622   -1.1764   -1.1340 H       1  UNL1        0.0472
     23 H          -1.2755    0.1247   -1.1411 H       1  UNL1        0.0472
     24 H          -1.1487   -2.6085   -3.8783 H       1  UNL1        0.0639
     25 H          -2.8600   -3.5659   -5.3778 H       1  UNL1        0.0618
     26 H          -4.4441   -5.2824   -4.5327 H       1  UNL1        0.0618
     27 H          -4.2869   -6.0577   -2.1796 H       1  UNL1        0.0618
     28 H          -2.5669   -5.1213   -0.6753 H       1  UNL1        0.0639
     29 H           3.5917   -4.6803    0.8494 H       1  UNL1        0.0428
     30 H           2.5822   -4.7656    2.3055 H       1  UNL1        0.0428
     31 H           1.9795   -5.3537    0.7653 H       1  UNL1        0.0428
     32 H           3.5586   -1.6853    0.7646 H       1  UNL1        0.0428
     33 H           2.4481   -1.4739    2.1594 H       1  UNL1        0.0428
     34 H           3.7522   -2.6528    2.2152 H       1  UNL1        0.0428
@<TRIPOS>BOND
     1     1     2    1
     2     1    18    1
     3     1    19    1
     4     1    20    1
     5     2     7   ar
     6     2     3   ar
     7     3     4   ar
     8     3    15    1
     9     4     5    2
    10     4     6   ar
    11     6     7   ar
    12     6     9    1
    13     7     8    1
    14     8    21    1
    15     8    22    1
    16     8    23    1
    17     9    14   ar
    18     9    10   ar
    19    10    11   ar
    20    10    24    1
    21    11    12   ar
    22    11    25    1
    23    12    13   ar
    24    12    26    1
    25    13    14   ar
    26    13    27    1
    27    14    28    1
    28    15    16    1
    29    15    17    1
    30    16    29    1
    31    16    30    1
    32    16    31    1
    33    17    32    1
    34    17    33    1
    35    17    34    1
