@<TRIPOS>MOLECULE
ZINC00039092
 36 38 0 0 0
SMALL
GASTEIGER

@<TRIPOS>ATOM
      1 C           1.6210    0.1800    0.7067 C.3     1  UNL1        0.0790
      2 O           0.7299    1.2478    0.4157 O.3     1  UNL1       -0.4915
      3 C          -0.4112    1.3431    1.1613 C.ar    1  UNL1        0.1613
      4 C          -0.8907    2.6469    1.3114 C.ar    1  UNL1       -0.0159
      5 C          -2.1114    2.8986    1.9505 C.ar    1  UNL1       -0.0514
      6 C          -2.8913    1.8480    2.4575 C.ar    1  UNL1       -0.0033
      7 C          -2.3713    0.5486    2.3613 C.ar    1  UNL1       -0.0098
      8 C          -1.1617    0.3017    1.7028 C.ar    1  UNL1        0.1588
      9 O          -0.8299   -1.0153    1.5679 O.3     1  UNL1       -0.5033
     10 C          -4.2500    2.1639    3.0725 C.3     1  UNL1        0.1323
     11 H          -4.0492    2.9344    3.8296 H       1  UNL1        0.0789
     12 C          -4.9607    1.0408    3.8205 C.3     1  UNL1        0.0520
     13 C          -5.5432    0.0798    2.8315 C.2     1  UNL1        0.1740
     14 O          -5.5439   -1.1389    2.9807 O.2     1  UNL1       -0.2917
     15 C          -6.2316    0.6886    1.6948 C.ar    1  UNL1        0.1007
     16 C          -7.1946   -0.0324    0.9640 C.ar    1  UNL1        0.1343
     17 C          -7.9478    0.6027   -0.0173 C.ar    1  UNL1        0.0222
     18 C          -7.7176    1.9478   -0.2776 C.ar    1  UNL1        0.1238
     19 C          -6.7364    2.6597    0.4185 C.ar    1  UNL1        0.0225
     20 C          -5.9973    2.0314    1.4215 C.ar    1  UNL1        0.1389
     21 O          -5.1022    2.8129    2.1022 O.3     1  UNL1       -0.4828
     22 O          -8.4428    2.6167   -1.2136 O.3     1  UNL1       -0.5065
     23 O          -7.4582   -1.3571    1.1856 O.3     1  UNL1       -0.5058
     24 H           1.2521   -0.7687    0.3101 H       1  UNL1        0.0660
     25 H           1.8414    0.1127    1.7767 H       1  UNL1        0.0660
     26 H           2.5594    0.3891    0.1823 H       1  UNL1        0.0660
     27 H          -0.3133    3.4784    0.9135 H       1  UNL1        0.0655
     28 H          -2.4555    3.9286    2.0347 H       1  UNL1        0.0623
     29 H          -2.9025   -0.3119    2.7579 H       1  UNL1        0.0659
     30 H          -0.7768   -1.1712    0.6086 H       1  UNL1        0.2923
     31 H          -4.2873    0.5159    4.5056 H       1  UNL1        0.0385
     32 H          -5.8000    1.4380    4.4036 H       1  UNL1        0.0385
     33 H          -8.7143    0.0407   -0.5447 H       1  UNL1        0.0691
     34 H          -6.5719    3.7101    0.1909 H       1  UNL1        0.0691
     35 H          -9.1207    2.0185   -1.5744 H       1  UNL1        0.2921
     36 H          -6.8076   -1.6915    1.8472 H       1  UNL1        0.2922
@<TRIPOS>BOND
     1     1     2    1
     2     1    24    1
     3     1    25    1
     4     1    26    1
     5     2     3    1
     6     3     8   ar
     7     3     4   ar
     8     4     5   ar
     9     4    27    1
    10     5     6   ar
    11     5    28    1
    12     6     7   ar
    13     6    10    1
    14     7     8   ar
    15     7    29    1
    16     8     9    1
    17     9    30    1
    18    10    11    1
    19    10    21    1
    20    10    12    1
    21    12    13    1
    22    12    31    1
    23    12    32    1
    24    13    14    2
    25    13    15    1
    26    15    20   ar
    27    15    16   ar
    28    16    17   ar
    29    16    23    1
    30    17    18   ar
    31    17    33    1
    32    18    19   ar
    33    18    22    1
    34    19    20   ar
    35    19    34    1
    36    20    21    1
    37    22    35    1
    38    23    36    1
