@<TRIPOS>MOLECULE
ZINC01530817
 37 37 0 0 0
SMALL
GASTEIGER

@<TRIPOS>ATOM
      1 C          -2.4978   -1.7470    5.8152 C.3     1  UNL1       -0.0605
      2 C          -2.3189   -0.2580    6.0772 C.3     1  UNL1       -0.0154
      3 C          -2.2906    0.6016    4.8069 C.3     1  UNL1       -0.0332
      4 N          -1.1245    0.2240    3.9525 N.4     1  UNL1        0.2355
      5 C          -0.9169    0.9110    2.5986 C.3     1  UNL1        0.0524
      6 H           0.0931    0.5754    2.3233 H       1  UNL1        0.0946
      7 C          -0.7809    2.4121    2.7662 C.3     1  UNL1       -0.0130
      8 C          -1.7931    0.2610    1.4967 C.2     1  UNL1        0.2651
      9 O          -1.6240   -0.9498    1.3225 O.2     1  UNL1       -0.2693
     10 N          -2.7429    1.0072    0.8074 N.am    1  UNL1       -0.2807
     11 C          -3.6698    0.4143   -0.1143 C.ar    1  UNL1        0.0365
     12 C          -4.3421   -0.7707    0.1986 C.ar    1  UNL1       -0.0402
     13 C          -5.3606   -1.2681   -0.6161 C.ar    1  UNL1       -0.0600
     14 C          -5.7209   -0.5847   -1.7878 C.ar    1  UNL1       -0.0614
     15 C          -5.0245    0.5537   -2.1416 C.ar    1  UNL1       -0.0571
     16 C          -3.9774    1.0470   -1.3475 C.ar    1  UNL1       -0.0292
     17 C          -3.1353    2.1280   -1.9586 C.3     1  UNL1       -0.0380
     18 H          -3.3729   -1.9337    5.1861 H       1  UNL1        0.0232
     19 H          -2.6389   -2.2835    6.7602 H       1  UNL1        0.0232
     20 H          -1.6178   -2.1758    5.3269 H       1  UNL1        0.0232
     21 H          -3.1456    0.0824    6.7133 H       1  UNL1        0.0314
     22 H          -1.4000   -0.1061    6.6573 H       1  UNL1        0.0314
     23 H          -3.2028    0.4818    4.2163 H       1  UNL1        0.0814
     24 H          -2.1647    1.6520    5.0888 H       1  UNL1        0.0814
     25 H          -0.2616    0.3166    4.5028 H       1  UNL1        0.2021
     26 H          -0.5286    2.8911    1.8147 H       1  UNL1        0.0289
     27 H          -1.6802    2.8902    3.1606 H       1  UNL1        0.0289
     28 H           0.0444    2.6311    3.4596 H       1  UNL1        0.0289
     29 H          -2.6388    2.0090    0.7364 H       1  UNL1        0.1550
     30 H          -4.1185   -1.3191    1.1133 H       1  UNL1        0.0636
     31 H          -5.8890   -2.1899   -0.3575 H       1  UNL1        0.0618
     32 H          -6.5308   -0.9750   -2.4208 H       1  UNL1        0.0618
     33 H          -5.2652    1.0356   -3.0932 H       1  UNL1        0.0621
     34 H          -2.6789    1.7308   -2.8819 H       1  UNL1        0.0278
     35 H          -3.7509    2.9977   -2.2390 H       1  UNL1        0.0278
     36 H          -2.3180    2.4684   -1.3241 H       1  UNL1        0.0278
     37 H          -1.1947   -0.7813    3.7177 H       1  UNL1        0.2021
@<TRIPOS>UNITY_ATOM_ATTR
4 1
charge 1
@<TRIPOS>BOND
     1     1     2    1
     2     1    18    1
     3     1    19    1
     4     1    20    1
     5     2     3    1
     6     2    21    1
     7     2    22    1
     8     3     4    1
     9     3    23    1
    10     3    24    1
    11     4    25    1
    12     4    37    1
    13     5     7    1
    14     5     8    1
    15     7    26    1
    16     7    27    1
    17     7    28    1
    18     8     9    2
    19     8    10   am
    20    10    11    1
    21    10    29    1
    22    11    16   ar
    23    11    12   ar
    24    12    13   ar
    25    12    30    1
    26    13    14   ar
    27    13    31    1
    28    14    15   ar
    29    14    32    1
    30    15    16   ar
    31    15    33    1
    32    16    17    1
    33    17    34    1
    34    17    35    1
    35    17    36    1
    36     5     6    1
    37     5     4    1
