@<TRIPOS>MOLECULE
ZINC00968360
 49 52 0 0 0
SMALL
GASTEIGER

@<TRIPOS>ATOM
      1 C          -2.7698   -3.7162   -2.9622 C.3     1  UNL1       -0.0426
      2 N          -2.3425   -2.5111   -2.1806 N.4     1  UNL1        0.2375
      3 C          -1.3831   -2.8128   -1.0569 C.3     1  UNL1       -0.0183
      4 H          -0.6576   -3.5598   -1.3900 H       1  UNL1        0.0852
      5 C          -2.3023   -3.3305    0.0485 C.3     1  UNL1       -0.0045
      6 C          -3.6522   -2.6515   -0.1904 C.3     1  UNL1       -0.0045
      7 C          -3.4595   -1.7916   -1.4405 C.3     1  UNL1       -0.0183
      8 H          -4.3442   -1.7617   -2.0810 H       1  UNL1        0.0852
      9 C          -2.9415   -0.3758   -1.1517 C.3     1  UNL1        0.0169
     10 C          -1.6111   -0.3426   -0.3676 C.3     1  UNL1        0.0701
     11 C          -0.6698   -1.4958   -0.7463 C.3     1  UNL1        0.0169
     12 O          -1.9439   -0.3317    1.0103 O.3     1  UNL1       -0.3637
     13 C          -0.8554   -0.0641    1.9372 C.3     1  UNL1        0.1090
     14 C          -0.2936    1.3795    1.7062 C.ar    1  UNL1       -0.0145
     15 C           1.0820    1.5506    1.4631 C.ar    1  UNL1       -0.0558
     16 C           1.6071    2.6657    0.7663 C.ar    1  UNL1       -0.0614
     17 C           0.7687    3.6668    0.3049 C.ar    1  UNL1       -0.0617
     18 C          -0.5983    3.5655    0.5789 C.ar    1  UNL1       -0.0614
     19 C          -1.1314    2.4558    1.2854 C.ar    1  UNL1       -0.0558
     20 C          -1.2078   -0.8475    3.2380 C.ar    1  UNL1       -0.0145
     21 C          -2.5177   -1.3559    3.4432 C.ar    1  UNL1       -0.0558
     22 C          -2.8004   -2.4367    4.3089 C.ar    1  UNL1       -0.0614
     23 C          -1.7898   -3.0080    5.0565 C.ar    1  UNL1       -0.0617
     24 C          -0.4910   -2.5166    4.9214 C.ar    1  UNL1       -0.0614
     25 C          -0.2102   -1.4326    4.0408 C.ar    1  UNL1       -0.0558
     26 H          -3.2951   -4.4151   -2.3078 H       1  UNL1        0.0778
     27 H          -3.4208   -3.3721   -3.7680 H       1  UNL1        0.0778
     28 H          -1.8682   -4.1755   -3.3741 H       1  UNL1        0.0778
     29 H          -2.4268   -4.4163   -0.0614 H       1  UNL1        0.0322
     30 H          -1.9122   -3.1642    1.0565 H       1  UNL1        0.0322
     31 H          -3.9967   -2.0771    0.6726 H       1  UNL1        0.0322
     32 H          -4.4135   -3.4171   -0.3799 H       1  UNL1        0.0322
     33 H          -3.7118    0.1923   -0.6183 H       1  UNL1        0.0345
     34 H          -2.7863    0.1283   -2.1153 H       1  UNL1        0.0345
     35 H          -1.1276    0.6044   -0.6255 H       1  UNL1        0.0600
     36 H           0.0844   -1.6967    0.0150 H       1  UNL1        0.0345
     37 H          -0.1101   -1.1854   -1.6397 H       1  UNL1        0.0345
     38 H          -0.0172   -0.6743    1.5987 H       1  UNL1        0.0697
     39 H           1.7892    0.7633    1.7265 H       1  UNL1        0.0621
     40 H           2.6741    2.7220    0.5597 H       1  UNL1        0.0618
     41 H           1.1648    4.5040   -0.2697 H       1  UNL1        0.0618
     42 H          -1.2599    4.3446    0.1968 H       1  UNL1        0.0618
     43 H          -2.1997    2.3910    1.3796 H       1  UNL1        0.0621
     44 H          -3.3452   -0.9952    2.8375 H       1  UNL1        0.0621
     45 H          -3.7996   -2.8463    4.3795 H       1  UNL1        0.0618
     46 H          -1.9816   -3.8760    5.6995 H       1  UNL1        0.0618
     47 H           0.3156   -2.9917    5.4871 H       1  UNL1        0.0618
     48 H           0.8386   -1.1588    3.9215 H       1  UNL1        0.0621
     49 H          -1.9055   -1.8747   -2.8619 H       1  UNL1        0.2036
@<TRIPOS>UNITY_ATOM_ATTR
2 1
charge 1
@<TRIPOS>BOND
     1     1     2    1
     2     1    26    1
     3     1    27    1
     4     1    28    1
     5     2     7    1
     6     2     3    1
     7     2    49    1
     8     3     4    1
     9     3    11    1
    10     3     5    1
    11     5     6    1
    12     5    29    1
    13     5    30    1
    14     6     7    1
    15     6    31    1
    16     6    32    1
    17     7     8    1
    18     7     9    1
    19     9    10    1
    20     9    33    1
    21     9    34    1
    22    10    11    1
    23    10    12    1
    24    10    35    1
    25    11    36    1
    26    11    37    1
    27    12    13    1
    28    13    14    1
    29    13    20    1
    30    13    38    1
    31    14    19   ar
    32    14    15   ar
    33    15    16   ar
    34    15    39    1
    35    16    17   ar
    36    16    40    1
    37    17    18   ar
    38    17    41    1
    39    18    19   ar
    40    18    42    1
    41    19    43    1
    42    20    25   ar
    43    20    21   ar
    44    21    22   ar
    45    21    44    1
    46    22    23   ar
    47    22    45    1
    48    23    24   ar
    49    23    46    1
    50    24    25   ar
    51    24    47    1
    52    25    48    1
