@<TRIPOS>MOLECULE
ZINC01532339
 56 55 0 0 0
SMALL
GASTEIGER

@<TRIPOS>ATOM
      1 C          -1.6858   -2.9462   -2.3116 C.3     1  UNL1       -0.0418
      2 N          -0.1691   -3.0618   -2.2354 N.4     1  UNL1        0.2369
      3 C           0.1852   -4.0961   -1.1579 C.3     1  UNL1       -0.0418
      4 C           0.3787   -3.5601   -3.5666 C.3     1  UNL1       -0.0418
      5 C           0.4783   -1.7390   -1.8165 C.3     1  UNL1       -0.0309
      6 C           0.1530   -0.5604   -2.7374 C.3     1  UNL1       -0.0125
      7 C           0.9060    0.7037   -2.3011 C.3     1  UNL1       -0.0483
      8 C           2.4347    0.5839   -2.3601 C.3     1  UNL1       -0.0529
      9 C           2.9846    0.2355   -3.7458 C.3     1  UNL1       -0.0531
     10 C           2.6767    1.2946   -4.8107 C.3     1  UNL1       -0.0531
     11 C           3.3189    2.6559   -4.5239 C.3     1  UNL1       -0.0529
     12 C           4.8531    2.6369   -4.4969 C.3     1  UNL1       -0.0483
     13 C           5.5048    2.1370   -5.7940 C.3     1  UNL1       -0.0125
     14 C           5.1413    3.0363   -6.9736 C.3     1  UNL1       -0.0309
     15 N           5.6916    2.5617   -8.3199 N.4     1  UNL1        0.2369
     16 C           5.1223    1.2078   -8.7215 C.3     1  UNL1       -0.0418
     17 C           5.2541    3.5924   -9.3692 C.3     1  UNL1       -0.0418
     18 C           7.2137    2.5003   -8.3147 C.3     1  UNL1       -0.0418
     19 H          -2.1041   -3.9521   -2.4109 H       1  UNL1        0.0778
     20 H          -1.9492   -2.3479   -3.1881 H       1  UNL1        0.0778
     21 H          -2.0425   -2.4692   -1.3946 H       1  UNL1        0.0778
     22 H          -0.2545   -5.0574   -1.4393 H       1  UNL1        0.0778
     23 H           1.2752   -4.1760   -1.1043 H       1  UNL1        0.0778
     24 H          -0.2218   -3.7507   -0.2030 H       1  UNL1        0.0778
     25 H           0.0583   -2.8816   -4.3616 H       1  UNL1        0.0778
     26 H           1.4704   -3.5911   -3.5047 H       1  UNL1        0.0778
     27 H          -0.0227   -4.5602   -3.7526 H       1  UNL1        0.0778
     28 H           0.1361   -1.5181   -0.7988 H       1  UNL1        0.0815
     29 H           1.5548   -1.9320   -1.7842 H       1  UNL1        0.0815
     30 H           0.3861   -0.7871   -3.7808 H       1  UNL1        0.0317
     31 H          -0.9203   -0.3402   -2.7025 H       1  UNL1        0.0317
     32 H           0.5763    1.5457   -2.9245 H       1  UNL1        0.0267
     33 H           0.6144    0.9612   -1.2769 H       1  UNL1        0.0267
     34 H           2.8752    1.5226   -2.0066 H       1  UNL1        0.0265
     35 H           2.7774   -0.1720   -1.6454 H       1  UNL1        0.0265
     36 H           4.0671    0.0833   -3.6713 H       1  UNL1        0.0265
     37 H           2.5844   -0.7302   -4.0785 H       1  UNL1        0.0265
     38 H           3.0051    0.9209   -5.7880 H       1  UNL1        0.0265
     39 H           1.5932    1.4244   -4.9063 H       1  UNL1        0.0265
     40 H           2.9692    3.3718   -5.2749 H       1  UNL1        0.0265
     41 H           2.9534    3.0502   -3.5700 H       1  UNL1        0.0265
     42 H           5.2108    3.6501   -4.2841 H       1  UNL1        0.0267
     43 H           5.2018    2.0158   -3.6606 H       1  UNL1        0.0267
     44 H           6.5898    2.1238   -5.6448 H       1  UNL1        0.0317
     45 H           5.2076    1.0973   -5.9725 H       1  UNL1        0.0317
     46 H           4.0569    3.1012   -7.1037 H       1  UNL1        0.0815
     47 H           5.5295    4.0478   -6.8040 H       1  UNL1        0.0815
     48 H           4.0297    1.2592   -8.6616 H       1  UNL1        0.0778
     49 H           5.4393    0.9845   -9.7428 H       1  UNL1        0.0778
     50 H           5.5062    0.4430   -8.0407 H       1  UNL1        0.0778
     51 H           5.6754    4.5633   -9.0979 H       1  UNL1        0.0778
     52 H           5.6264    3.2741  -10.3471 H       1  UNL1        0.0778
     53 H           4.1593    3.6350   -9.3770 H       1  UNL1        0.0778
     54 H           7.5963    3.4387   -7.9038 H       1  UNL1        0.0778
     55 H           7.5285    1.6516   -7.7017 H       1  UNL1        0.0778
     56 H           7.5579    2.3629   -9.3440 H       1  UNL1        0.0778
@<TRIPOS>UNITY_ATOM_ATTR
2 1
charge 1
15 1
charge 1
@<TRIPOS>BOND
     1     1     2    1
     2     1    19    1
     3     1    20    1
     4     1    21    1
     5     2     3    1
     6     2     4    1
     7     2     5    1
     8     3    22    1
     9     3    23    1
    10     3    24    1
    11     4    25    1
    12     4    26    1
    13     4    27    1
    14     5     6    1
    15     5    28    1
    16     5    29    1
    17     6     7    1
    18     6    30    1
    19     6    31    1
    20     7     8    1
    21     7    32    1
    22     7    33    1
    23     8     9    1
    24     8    34    1
    25     8    35    1
    26     9    10    1
    27     9    36    1
    28     9    37    1
    29    10    11    1
    30    10    38    1
    31    10    39    1
    32    11    12    1
    33    11    40    1
    34    11    41    1
    35    12    13    1
    36    12    42    1
    37    12    43    1
    38    13    14    1
    39    13    44    1
    40    13    45    1
    41    14    15    1
    42    14    46    1
    43    14    47    1
    44    15    16    1
    45    15    17    1
    46    15    18    1
    47    16    48    1
    48    16    49    1
    49    16    50    1
    50    17    51    1
    51    17    52    1
    52    17    53    1
    53    18    54    1
    54    18    55    1
    55    18    56    1
