@<TRIPOS>MOLECULE
ZINC00006156
 34 35 0 0 0
SMALL
GASTEIGER

@<TRIPOS>ATOM
      1 C          -6.5264   -1.0451   -4.9284 C.ar    1  UNL1       -0.0617
      2 C          -7.0046    0.2497   -4.7415 C.ar    1  UNL1       -0.0615
      3 C          -6.4447    1.0664   -3.7559 C.ar    1  UNL1       -0.0571
      4 C          -5.3927    0.6044   -2.9445 C.ar    1  UNL1       -0.0277
      5 C          -4.9418   -0.7144   -3.1348 C.ar    1  UNL1       -0.0571
      6 C          -5.4977   -1.5274   -4.1243 C.ar    1  UNL1       -0.0615
      7 C          -4.7980    1.5403   -1.8947 C.3     1  UNL1        0.0851
      8 C          -5.4263    1.3819   -0.5093 C.ar    1  UNL1       -0.0277
      9 C          -5.9866    2.4983    0.1347 C.ar    1  UNL1       -0.0571
     10 C          -6.4970    2.3967    1.4339 C.ar    1  UNL1       -0.0615
     11 C          -6.4595    1.1776    2.1061 C.ar    1  UNL1       -0.0617
     12 C          -5.9229    0.0579    1.4775 C.ar    1  UNL1       -0.0615
     13 C          -5.4107    0.1575    0.1810 C.ar    1  UNL1       -0.0571
     14 S          -2.9469    1.4254   -1.7558 S.O     1  UNL1        0.0429
     15 O          -2.4491    2.5266   -0.8601 O.2     1  UNL1       -0.2558
     16 C          -2.5177    1.8801   -3.4585 C.3     1  UNL1        0.1004
     17 C          -2.9504    3.2768   -3.8261 C.2     1  UNL1        0.2228
     18 O          -3.7688    3.5155   -4.7077 O.2     1  UNL1       -0.2750
     19 N          -2.3423    4.2886   -3.1395 N.am    1  UNL1       -0.3286
     20 H          -6.9577   -1.6773   -5.6999 H       1  UNL1        0.0618
     21 H          -7.8105    0.6254   -5.3658 H       1  UNL1        0.0618
     22 H          -6.8339    2.0762   -3.6351 H       1  UNL1        0.0621
     23 H          -4.1452   -1.1285   -2.5219 H       1  UNL1        0.0621
     24 H          -5.1263   -2.5390   -4.2682 H       1  UNL1        0.0618
     25 H          -4.9778    2.5708   -2.2270 H       1  UNL1        0.0535
     26 H          -6.0128    3.4678   -0.3574 H       1  UNL1        0.0621
     27 H          -6.9100    3.2734    1.9261 H       1  UNL1        0.0618
     28 H          -6.8377    1.1027    3.1218 H       1  UNL1        0.0618
     29 H          -5.8906   -0.8942    2.0006 H       1  UNL1        0.0618
     30 H          -4.9854   -0.7332   -0.2707 H       1  UNL1        0.0621
     31 H          -1.4274    1.8193   -3.5446 H       1  UNL1        0.0496
     32 H          -2.9397    1.1583   -4.1613 H       1  UNL1        0.0496
     33 H          -1.9872    4.0960   -2.2025 H       1  UNL1        0.1450
     34 H          -2.6930    5.2229   -3.3057 H       1  UNL1        0.1450
@<TRIPOS>BOND
     1     1     6   ar
     2     1     2   ar
     3     1    20    1
     4     2     3   ar
     5     2    21    1
     6     3     4   ar
     7     3    22    1
     8     4     5   ar
     9     4     7    1
    10     5     6   ar
    11     5    23    1
    12     6    24    1
    13     7     8    1
    14     7    25    1
    15     8    13   ar
    16     8     9   ar
    17     9    10   ar
    18     9    26    1
    19    10    11   ar
    20    10    27    1
    21    11    12   ar
    22    11    28    1
    23    12    13   ar
    24    12    29    1
    25    13    30    1
    26    14    16    1
    27    16    17    1
    28    16    31    1
    29    16    32    1
    30    17    18    2
    31    17    19   am
    32    19    33    1
    33    19    34    1
    34    14    15    2
    35    14     7    1
