@<TRIPOS>MOLECULE
ZINC00002226
 29 31 0 0 0
SMALL
GASTEIGER

@<TRIPOS>ATOM
      1 C           0.7074    0.0103    0.0779 C.3     1  UNL1       -0.0388
      2 C           0.4504   -1.4684    0.1276 C.ar    1  UNL1       -0.0330
      3 C          -0.7675   -1.9344    0.4466 C.ar    1  UNL1        0.0265
      4 C          -1.0972   -3.3635    0.5082 C.ar    1  UNL1        0.3375
      5 O          -2.2374   -3.7318    0.7632 O.2     1  UNL1       -0.2452
      6 O          -0.0576   -4.2461    0.2773 O.2     1  UNL1       -0.4217
      7 C           1.2360   -3.8131   -0.1112 C.ar    1  UNL1        0.1457
      8 C           1.5102   -2.4363   -0.1898 C.ar    1  UNL1        0.0216
      9 C           2.7874   -2.0328   -0.5984 C.ar    1  UNL1       -0.0400
     10 C           3.7342   -2.9994   -0.9777 C.ar    1  UNL1        0.0215
     11 C           5.0499   -2.9418   -1.4885 C.ar    1  UNL1       -0.0132
     12 C           5.4175   -4.2409   -1.7531 C.ar    1  UNL1        0.1033
     13 O           4.4398   -5.1032   -1.3568 O.2     1  UNL1       -0.4596
     14 C           3.4010   -4.3441   -0.8923 C.ar    1  UNL1        0.1416
     15 C           2.1713   -4.8289   -0.4256 C.ar    1  UNL1        0.0353
     16 C           1.8719   -6.2891   -0.2902 C.3     1  UNL1       -0.0327
     17 C           6.6215   -4.8113   -2.3954 C.3     1  UNL1       -0.0063
     18 H           0.0132    0.5584    0.7248 H       1  UNL1        0.0278
     19 H           0.5821    0.3804   -0.9451 H       1  UNL1        0.0278
     20 H           1.7109    0.2749    0.4256 H       1  UNL1        0.0278
     21 H          -1.5955   -1.2678    0.6626 H       1  UNL1        0.0692
     22 H           3.0658   -0.9889   -0.6775 H       1  UNL1        0.0632
     23 H           5.6372   -2.0587   -1.6927 H       1  UNL1        0.0658
     24 H           1.9813   -6.7916   -1.2557 H       1  UNL1        0.0280
     25 H           2.5637   -6.7455    0.4263 H       1  UNL1        0.0280
     26 H           0.8563   -6.4826    0.0704 H       1  UNL1        0.0280
     27 H           6.7137   -4.4213   -3.4152 H       1  UNL1        0.0308
     28 H           7.5224   -4.5276   -1.8439 H       1  UNL1        0.0308
     29 H           6.5741   -5.9009   -2.4511 H       1  UNL1        0.0308
@<TRIPOS>BOND
     1     1     2    1
     2     1    18    1
     3     1    19    1
     4     1    20    1
     5     2     8   ar
     6     2     3   ar
     7     3     4   ar
     8     3    21    1
     9     4     5    2
    10     4     6   ar
    11     6     7   ar
    12     7    15   ar
    13     7     8   ar
    14     8     9   ar
    15     9    10   ar
    16     9    22    1
    17    10    14   ar
    18    10    11   ar
    19    11    12   ar
    20    11    23    1
    21    12    13   ar
    22    12    17    1
    23    13    14   ar
    24    14    15   ar
    25    15    16    1
    26    16    24    1
    27    16    25    1
    28    16    26    1
    29    17    27    1
    30    17    28    1
    31    17    29    1
