@<TRIPOS>MOLECULE
ZINC01850377
 46 48 0 0 0
SMALL
GASTEIGER

@<TRIPOS>ATOM
      1 C           0.6741   -0.7690   -0.6002 C.3     1  UNL1       -0.0585
      2 C          -0.5059    0.1425   -0.3536 C.3     1  UNL1       -0.0143
      3 C          -1.8962   -0.4759   -0.5128 C.3     1  UNL1       -0.0011
      4 H          -1.9353   -1.5419   -0.7383 H       1  UNL1        0.0357
      5 C          -1.3826   -0.1259    0.8660 C.3     1  UNL1        0.0689
      6 H          -1.0931   -0.9884    1.4684 H       1  UNL1        0.0425
      7 C          -1.9140    0.9667    1.7151 C.2     1  UNL1        0.3116
      8 O          -2.7004    1.8120    1.3128 O.2     1  UNL1       -0.2505
      9 O          -1.4045    0.9008    2.9734 O.3     1  UNL1       -0.4596
     10 C          -1.8840    1.9117    3.8722 C.3     1  UNL1        0.1176
     11 C          -1.0428    3.1592    3.7833 C.ar    1  UNL1       -0.0068
     12 C          -1.6136    4.3932    3.4468 C.ar    1  UNL1       -0.0551
     13 C          -0.8238    5.5419    3.3791 C.ar    1  UNL1       -0.0579
     14 C           0.5507    5.4621    3.6047 C.ar    1  UNL1       -0.0193
     15 C           1.1396    4.2331    3.9014 C.ar    1  UNL1        0.1288
     16 C           0.3328    3.0980    4.0459 C.ar    1  UNL1       -0.0129
     17 O           2.5024    4.2418    4.0933 O.3     1  UNL1       -0.4560
     18 C           3.2489    3.1288    3.7542 C.ar    1  UNL1        0.1284
     19 C           4.4135    2.9240    4.4967 C.ar    1  UNL1       -0.0193
     20 C           5.2206    1.8134    4.2362 C.ar    1  UNL1       -0.0583
     21 C           4.8591    0.9063    3.2403 C.ar    1  UNL1       -0.0615
     22 C           3.7179    1.1273    2.4756 C.ar    1  UNL1       -0.0583
     23 C           2.9308    2.2580    2.7109 C.ar    1  UNL1       -0.0193
     24 C          -2.9342    0.2745   -1.2386 C.2     1  UNL1       -0.0499
     25 C          -4.2656    0.2645   -1.0683 C.2     1  UNL1        0.1029
     26 CL         -5.2729    1.2023   -2.1189 Cl      1  UNL1       -0.0708
     27 CL         -5.0438   -0.6887    0.1394 Cl      1  UNL1       -0.0708
     28 C          -0.2376    1.5703   -0.7836 C.3     1  UNL1       -0.0585
     29 H           0.5674   -1.7320   -0.0905 H       1  UNL1        0.0235
     30 H           0.7842   -0.9616   -1.6727 H       1  UNL1        0.0235
     31 H           1.5991   -0.3059   -0.2400 H       1  UNL1        0.0235
     32 H          -2.9480    2.1142    3.7046 H       1  UNL1        0.0749
     33 H          -1.8041    1.5097    4.8884 H       1  UNL1        0.0749
     34 H          -2.6792    4.4673    3.2377 H       1  UNL1        0.0621
     35 H          -1.2798    6.5012    3.1436 H       1  UNL1        0.0619
     36 H           1.1636    6.3558    3.5404 H       1  UNL1        0.0654
     37 H           0.7701    2.1466    4.3399 H       1  UNL1        0.0658
     38 H           4.6928    3.6239    5.2788 H       1  UNL1        0.0654
     39 H           6.1256    1.6528    4.8158 H       1  UNL1        0.0619
     40 H           5.4751    0.0301    3.0537 H       1  UNL1        0.0618
     41 H           3.4316    0.4244    1.6994 H       1  UNL1        0.0619
     42 H           2.0616    2.4283    2.0824 H       1  UNL1        0.0654
     43 H          -2.5643    0.8865   -2.0580 H       1  UNL1        0.0598
     44 H          -0.2543    1.6453   -1.8762 H       1  UNL1        0.0235
     45 H          -0.9594    2.2902   -0.3917 H       1  UNL1        0.0235
     46 H           0.7521    1.8908   -0.4414 H       1  UNL1        0.0235
@<TRIPOS>BOND
     1     1     2    1
     2     1    29    1
     3     1    30    1
     4     1    31    1
     5     2     5    1
     6     2     3    1
     7     2    28    1
     8     3     5    1
     9     5     6    1
    10     5     7    1
    11     7     8    2
    12     7     9    1
    13     9    10    1
    14    10    11    1
    15    10    32    1
    16    10    33    1
    17    11    16   ar
    18    11    12   ar
    19    12    13   ar
    20    12    34    1
    21    13    14   ar
    22    13    35    1
    23    14    15   ar
    24    14    36    1
    25    15    16   ar
    26    15    17    1
    27    16    37    1
    28    17    18    1
    29    18    23   ar
    30    18    19   ar
    31    19    20   ar
    32    19    38    1
    33    20    21   ar
    34    20    39    1
    35    21    22   ar
    36    21    40    1
    37    22    23   ar
    38    22    41    1
    39    23    42    1
    40    24    25    2
    41    24    43    1
    42    25    26    1
    43    25    27    1
    44    28    44    1
    45    28    45    1
    46    28    46    1
    47     3    24    1
    48     3     4    1
