@<TRIPOS>MOLECULE
ZINC00014007
 42 42 0 0 0
SMALL
GASTEIGER

@<TRIPOS>ATOM
      1 C           2.5752   -3.7530   -3.4800 C.3     1  UNL1       -0.0219
      2 C           2.0629   -3.5079   -2.0675 C.3     1  UNL1       -0.0283
      3 C           3.0717   -2.7927   -1.1828 C.3     1  UNL1       -0.0219
      4 N           0.7720   -2.7535   -2.0997 N.4     1  UNL1        0.2307
      5 C           0.7084   -1.3951   -2.7744 C.3     1  UNL1       -0.0035
      6 C          -0.7307   -0.8892   -2.6016 C.3     1  UNL1        0.1285
      7 H          -1.4133   -1.6487   -2.9968 H       1  UNL1        0.0681
      8 C          -1.0228    0.4110   -3.3499 C.3     1  UNL1        0.1204
      9 O          -0.2970    1.5217   -2.8166 O.3     1  UNL1       -0.4892
     10 C          -0.4182    2.6764   -3.5640 C.ar    1  UNL1        0.1206
     11 C          -1.2656    2.8337   -4.6652 C.ar    1  UNL1       -0.0197
     12 C          -1.2198    3.9911   -5.4449 C.ar    1  UNL1       -0.0547
     13 C          -0.3318    5.0225   -5.1334 C.ar    1  UNL1       -0.0384
     14 C           0.4366    4.9160   -3.9670 C.ar    1  UNL1       -0.0547
     15 C           0.3971    3.7474   -3.1906 C.ar    1  UNL1       -0.0197
     16 C          -0.1897    6.1974   -6.0704 C.3     1  UNL1        0.0489
     17 C          -1.2358    7.2725   -5.8896 C.2     1  UNL1        0.2148
     18 O          -2.4425    7.0746   -5.9721 O.2     1  UNL1       -0.2757
     19 N          -0.7518    8.5272   -5.6536 N.am    1  UNL1       -0.3291
     20 O          -0.9852   -0.8077   -1.1918 O.3     1  UNL1       -0.3831
     21 H           2.8481   -2.8222   -3.9866 H       1  UNL1        0.0284
     22 H           1.8216   -4.2658   -4.0878 H       1  UNL1        0.0284
     23 H           3.4695   -4.3857   -3.4581 H       1  UNL1        0.0284
     24 H           1.8157   -4.4728   -1.6103 H       1  UNL1        0.0845
     25 H           3.3640   -1.8225   -1.5952 H       1  UNL1        0.0284
     26 H           2.6652   -2.6324   -0.1792 H       1  UNL1        0.0284
     27 H           3.9801   -3.3956   -1.0803 H       1  UNL1        0.0284
     28 H           0.0523   -3.3619   -2.5147 H       1  UNL1        0.2017
     29 H           1.4274   -0.7536   -2.2572 H       1  UNL1        0.0841
     30 H           0.9714   -1.5265   -3.8252 H       1  UNL1        0.0841
     31 H          -0.7580    0.2546   -4.4045 H       1  UNL1        0.0725
     32 H          -2.0946    0.6186   -3.2519 H       1  UNL1        0.0725
     33 H          -1.9749    2.0721   -4.9713 H       1  UNL1        0.0654
     34 H          -1.8731    4.0737   -6.3125 H       1  UNL1        0.0622
     35 H           1.0940    5.7311   -3.6688 H       1  UNL1        0.0622
     36 H           1.0270    3.6789   -2.3063 H       1  UNL1        0.0654
     37 H           0.8183    6.6218   -5.9723 H       1  UNL1        0.0407
     38 H          -0.2552    5.8453   -7.1083 H       1  UNL1        0.0407
     39 H           0.2308    8.7642   -5.7102 H       1  UNL1        0.1449
     40 H          -1.4205    9.2836   -5.5963 H       1  UNL1        0.1449
     41 H          -1.1830    0.1246   -0.9758 H       1  UNL1        0.2102
     42 H           0.4290   -2.5935   -1.1346 H       1  UNL1        0.2017
@<TRIPOS>UNITY_ATOM_ATTR
4 1
charge 1
@<TRIPOS>BOND
     1     1     2    1
     2     1    21    1
     3     1    22    1
     4     1    23    1
     5     2     3    1
     6     2     4    1
     7     2    24    1
     8     3    25    1
     9     3    26    1
    10     3    27    1
    11     4     5    1
    12     4    28    1
    13     4    42    1
    14     5    29    1
    15     5    30    1
    16     6     8    1
    17     6    20    1
    18     8     9    1
    19     8    31    1
    20     8    32    1
    21     9    10    1
    22    10    15   ar
    23    10    11   ar
    24    11    12   ar
    25    11    33    1
    26    12    13   ar
    27    12    34    1
    28    13    14   ar
    29    13    16    1
    30    14    15   ar
    31    14    35    1
    32    15    36    1
    33    16    17    1
    34    16    37    1
    35    16    38    1
    36    17    18    2
    37    17    19   am
    38    19    39    1
    39    19    40    1
    40    20    41    1
    41     6     7    1
    42     6     5    1
