@<TRIPOS>MOLECULE
ZINC00057302
 31 32 0 0 0
SMALL
GASTEIGER

@<TRIPOS>ATOM
      1 C           3.1538    0.4541   -2.2126 C.3     1  UNL1       -0.0190
      2 C           1.9753    0.8223   -3.0235 C.ar    1  UNL1        0.0811
      3 C           1.5309    2.0734   -3.4018 C.ar    1  UNL1        0.1268
      4 O           0.3215    1.9100   -4.0239 O.2     1  UNL1       -0.4286
      5 C           0.1345    0.5533   -4.0563 C.ar    1  UNL1        0.3076
      6 N           1.0929   -0.1329   -3.4728 N.ar    1  UNL1       -0.1993
      7 N          -1.0624   -0.0522   -4.4707 N.pl3   1  UNL1       -0.1687
      8 S          -0.9783   -0.6153   -6.0541 S.O2    1  UNL1        0.0757
      9 O          -2.3287   -0.4564   -6.5610 O.2     1  UNL1       -0.1499
     10 O           0.1340   -0.0122   -6.7598 O.2     1  UNL1       -0.1499
     11 C          -0.6642   -2.3622   -5.9312 C.ar    1  UNL1        0.1087
     12 C          -1.5837   -3.2816   -6.4401 C.ar    1  UNL1       -0.0333
     13 C          -1.2267   -4.6328   -6.5429 C.ar    1  UNL1       -0.0392
     14 C           0.0211   -5.0844   -6.1008 C.ar    1  UNL1        0.0247
     15 C           0.9328   -4.1482   -5.6054 C.ar    1  UNL1       -0.0392
     16 C           0.5936   -2.7950   -5.5062 C.ar    1  UNL1       -0.0333
     17 N           0.4455   -6.3851   -6.3948 N.pl3   1  UNL1       -0.3580
     18 C           2.0415    3.4454   -3.2403 C.3     1  UNL1       -0.0045
     19 H           4.0501    0.9774   -2.5565 H       1  UNL1        0.0294
     20 H           3.3430   -0.6222   -2.2629 H       1  UNL1        0.0294
     21 H           2.9798    0.7177   -1.1637 H       1  UNL1        0.0294
     22 H          -1.8372    0.6069   -4.4520 H       1  UNL1        0.1783
     23 H          -2.5491   -2.9576   -6.8225 H       1  UNL1        0.0638
     24 H          -1.9216   -5.3288   -7.0076 H       1  UNL1        0.0636
     25 H           1.9361   -4.4584   -5.3226 H       1  UNL1        0.0636
     26 H           1.3377   -2.0855   -5.1536 H       1  UNL1        0.0638
     27 H           1.2056   -6.7204   -5.8120 H       1  UNL1        0.1423
     28 H          -0.3026   -7.0631   -6.4910 H       1  UNL1        0.1423
     29 H           2.1455    3.9389   -4.2115 H       1  UNL1        0.0308
     30 H           1.3654    4.0388   -2.6187 H       1  UNL1        0.0308
     31 H           3.0265    3.4449   -2.7604 H       1  UNL1        0.0308
@<TRIPOS>BOND
     1     1     2    1
     2     1    19    1
     3     1    20    1
     4     1    21    1
     5     2     6   ar
     6     2     3   ar
     7     3     4   ar
     8     3    18    1
     9     4     5   ar
    10     5     6   ar
    11     5     7    1
    12     7     8    1
    13     7    22    1
    14     8     9    2
    15     8    10    2
    16     8    11    1
    17    11    16   ar
    18    11    12   ar
    19    12    13   ar
    20    12    23    1
    21    13    14   ar
    22    13    24    1
    23    14    15   ar
    24    14    17    1
    25    15    16   ar
    26    15    25    1
    27    16    26    1
    28    17    27    1
    29    17    28    1
    30    18    29    1
    31    18    30    1
    32    18    31    1
