@<TRIPOS>MOLECULE
ZINC01481831
 43 46 0 0 0
SMALL
GASTEIGER

@<TRIPOS>ATOM
      1 C           3.8234   -0.0535    0.0295 C.3     1  UNL1       -0.0393
      2 C           4.1259    0.5606   -1.3143 C.ar    1  UNL1       -0.0432
      3 C           5.1935    0.0369   -2.0733 C.ar    1  UNL1       -0.0130
      4 C           5.4965    0.6397   -3.2745 C.ar    1  UNL1        0.1665
      5 C           4.8312    1.7630   -3.7025 C.ar    1  UNL1        0.1665
      6 C           3.7904    2.3128   -2.9842 C.ar    1  UNL1       -0.0123
      7 C           3.3828    1.6861   -1.7907 C.ar    1  UNL1       -0.0333
      8 C           2.2158    2.2196   -0.9709 C.3     1  UNL1        0.0366
      9 C           1.3127    3.2529   -1.6286 C.2     1  UNL1        0.1759
     10 O           1.8288    4.3952   -1.6991 O.2     1  UNL1       -0.2911
     11 C          -0.0351    2.9956   -2.1681 C.ar    1  UNL1        0.0815
     12 C          -1.0420    2.0105   -2.1543 C.ar    1  UNL1        0.1280
     13 C          -2.2358    2.4617   -2.8143 C.ar    1  UNL1       -0.0273
     14 C          -2.1283    3.6989   -3.3796 C.ar    1  UNL1       -0.0217
     15 S          -0.6011    4.3687   -3.1237 S.2     1  UNL1       -0.0918
     16 S          -1.0054    0.3863   -1.4103 S.O2    1  UNL1        0.0956
     17 O          -0.0783   -0.2675   -2.3242 O.2     1  UNL1       -0.1482
     18 O          -0.4518    0.7744   -0.1246 O.2     1  UNL1       -0.1482
     19 N          -2.4888   -0.2053   -1.2770 N.pl3   1  UNL1       -0.0557
     20 C          -3.1361   -0.8378   -2.3026 C.ar    1  UNL1        0.2770
     21 C          -3.5695   -2.1579   -2.2918 C.ar    1  UNL1        0.1280
     22 C          -4.7558   -2.1641   -3.0835 C.ar    1  UNL1        0.1009
     23 N          -4.9172   -0.9918   -3.6997 N.ar    1  UNL1       -0.0797
     24 O          -3.9124   -0.1765   -3.2164 O.2     1  UNL1       -0.3346
     25 C          -5.8087   -3.2132   -3.2091 C.3     1  UNL1       -0.0176
     26 CL         -2.9930   -3.4851   -1.4001 Cl      1  UNL1       -0.0761
     27 O           5.3038    2.2198   -4.8925 O.3     1  UNL1       -0.4526
     28 C           6.1335    1.1065   -5.2732 C.3     1  UNL1        0.2332
     29 O           6.4460    0.2358   -4.1650 O.3     1  UNL1       -0.4526
     30 H           4.1166    0.6375    0.8254 H       1  UNL1        0.0278
     31 H           4.3741   -0.9903    0.1780 H       1  UNL1        0.0278
     32 H           2.7615   -0.2947    0.1251 H       1  UNL1        0.0278
     33 H           5.7534   -0.8293   -1.7400 H       1  UNL1        0.0658
     34 H           3.3094    3.2058   -3.3659 H       1  UNL1        0.0658
     35 H           1.6305    1.4200   -0.5397 H       1  UNL1        0.0394
     36 H           2.6743    2.7487   -0.1149 H       1  UNL1        0.0394
     37 H          -3.1523    1.9050   -2.8785 H       1  UNL1        0.0643
     38 H          -2.8805    4.2351   -3.9357 H       1  UNL1        0.0694
     39 H          -5.4906   -4.0402   -3.8479 H       1  UNL1        0.0294
     40 H          -6.0764   -3.6187   -2.2261 H       1  UNL1        0.0294
     41 H          -6.7363   -2.7991   -3.6357 H       1  UNL1        0.0294
     42 H           5.5990    0.5275   -6.0374 H       1  UNL1        0.1166
     43 H           7.0652    1.4808   -5.7101 H       1  UNL1        0.1166
@<TRIPOS>BOND
     1     1     2    1
     2     1    30    1
     3     1    31    1
     4     1    32    1
     5     2     7   ar
     6     2     3   ar
     7     3     4   ar
     8     3    33    1
     9     4    29    1
    10     4     5   ar
    11     5     6   ar
    12     5    27    1
    13     6     7   ar
    14     6    34    1
    15     7     8    1
    16     8     9    1
    17     8    35    1
    18     8    36    1
    19     9    10    2
    20     9    11    1
    21    11    15   ar
    22    11    12   ar
    23    12    13   ar
    24    12    16    1
    25    13    14   ar
    26    13    37    1
    27    14    15   ar
    28    14    38    1
    29    16    17    2
    30    16    18    2
    31    16    19    1
    32    19    20    1
    33    20    24   ar
    34    20    21   ar
    35    21    22   ar
    36    21    26    1
    37    22    23   ar
    38    22    25    1
    39    23    24   ar
    40    25    39    1
    41    25    40    1
    42    25    41    1
    43    27    28    1
    44    28    29    1
    45    28    42    1
    46    28    43    1
