@<TRIPOS>MOLECULE
ZINC00968305
 40 41 0 0 0
SMALL
GASTEIGER

@<TRIPOS>ATOM
      1 C           0.7496    0.1388    4.2669 C.3     1  UNL1       -0.0213
      2 C           0.4962    0.0285    2.7541 C.3     1  UNL1       -0.0196
      3 H           1.0695   -0.7962    2.3268 H       1  UNL1        0.0852
      4 C          -1.0025   -0.2017    2.4840 C.3     1  UNL1        0.0153
      5 C          -1.5585   -1.5174    2.9714 C.ar    1  UNL1       -0.0421
      6 C          -1.0949   -2.7368    2.4489 C.ar    1  UNL1       -0.0584
      7 C          -1.7410   -3.9303    2.7513 C.ar    1  UNL1       -0.0615
      8 C          -2.8608   -3.9291    3.5757 C.ar    1  UNL1       -0.0617
      9 C          -3.3038   -2.7427    4.1445 C.ar    1  UNL1       -0.0615
     10 C          -2.6541   -1.5420    3.8558 C.ar    1  UNL1       -0.0584
     11 C           0.5302    1.6132    0.6795 C.3     1  UNL1       -0.0425
     12 C           2.5502    1.4790    2.1411 C.3     1  UNL1       -0.0059
     13 C           3.3160    0.5038    1.2757 C.ar    1  UNL1       -0.0029
     14 C           3.6034   -0.7975    1.7261 C.ar    1  UNL1       -0.0535
     15 C           4.1702   -1.7340    0.8597 C.ar    1  UNL1       -0.0613
     16 C           4.4763   -1.3807   -0.4527 C.ar    1  UNL1       -0.0617
     17 C           4.2432   -0.0793   -0.8921 C.ar    1  UNL1       -0.0613
     18 C           3.6826    0.8602   -0.0274 C.ar    1  UNL1       -0.0535
     19 H           0.4233   -0.7670    4.7885 H       1  UNL1        0.0284
     20 H           0.2060    0.9873    4.6970 H       1  UNL1        0.0284
     21 H           1.8071    0.2607    4.5117 H       1  UNL1        0.0284
     22 H          -1.5881    0.6311    2.8874 H       1  UNL1        0.0368
     23 H          -1.1997   -0.2281    1.4024 H       1  UNL1        0.0368
     24 H          -0.2483   -2.7661    1.7647 H       1  UNL1        0.0620
     25 H          -1.3950   -4.8671    2.3108 H       1  UNL1        0.0618
     26 H          -3.3997   -4.8592    3.7622 H       1  UNL1        0.0618
     27 H          -4.1759   -2.7462    4.7966 H       1  UNL1        0.0618
     28 H          -3.0357   -0.6238    4.2946 H       1  UNL1        0.0620
     29 H           1.0417    0.9677   -0.0343 H       1  UNL1        0.0778
     30 H          -0.5474    1.4607    0.6114 H       1  UNL1        0.0778
     31 H           0.7278    2.6703    0.4731 H       1  UNL1        0.0778
     32 H           2.7655    2.5113    1.8395 H       1  UNL1        0.0867
     33 H           2.8642    1.4050    3.1866 H       1  UNL1        0.0867
     34 H           3.3752   -1.1098    2.7419 H       1  UNL1        0.0622
     35 H           4.3700   -2.7489    1.2041 H       1  UNL1        0.0618
     36 H           4.9013   -2.1154   -1.1294 H       1  UNL1        0.0618
     37 H           4.4946    0.1963   -1.9146 H       1  UNL1        0.0618
     38 H           3.5076    1.8665   -0.4057 H       1  UNL1        0.0622
     39 N           1.0181    1.3299    2.0863 N.4     1  UNL1        0.2385
     40 H           0.6469    2.0989    2.6564 H       1  UNL1        0.2037
@<TRIPOS>UNITY_ATOM_ATTR
39 1
charge 1
@<TRIPOS>BOND
     1     1     2    1
     2     1    19    1
     3     1    20    1
     4     1    21    1
     5     2     3    1
     6     2     4    1
     7     4     5    1
     8     4    22    1
     9     4    23    1
    10     5    10   ar
    11     5     6   ar
    12     6     7   ar
    13     6    24    1
    14     7     8   ar
    15     7    25    1
    16     8     9   ar
    17     8    26    1
    18     9    10   ar
    19     9    27    1
    20    10    28    1
    21    11    29    1
    22    11    30    1
    23    11    31    1
    24    12    13    1
    25    12    32    1
    26    12    33    1
    27    12    39    1
    28    13    18   ar
    29    13    14   ar
    30    14    15   ar
    31    14    34    1
    32    15    16   ar
    33    15    35    1
    34    16    17   ar
    35    16    36    1
    36    17    18   ar
    37    17    37    1
    38    18    38    1
    39    39    40    1
    40    39    11    1
    41    39     2    1
