@<TRIPOS>MOLECULE
ZINC01530713
 44 45 0 0 0
SMALL
GASTEIGER

@<TRIPOS>ATOM
      1 C           1.0775   -2.2782    1.1384 C.3     1  UNL1       -0.0570
      2 C           0.6606   -1.3808   -0.0307 C.3     1  UNL1        0.0068
      3 C           1.4614   -1.7533   -1.2817 C.3     1  UNL1       -0.0570
      4 C          -0.8596   -1.3580   -0.2863 C.3     1  UNL1        0.0766
      5 H          -1.1081   -0.7239   -1.1447 H       1  UNL1        0.0971
      6 C          -1.5507   -2.7172   -0.4775 C.2     1  UNL1        0.3562
      7 O          -2.4658   -3.0636    0.2646 O.2     1  UNL1       -0.2444
      8 O          -1.1011   -3.4012   -1.5463 O.3     1  UNL1       -0.4584
      9 C          -1.7493   -4.6656   -1.8162 C.3     1  UNL1        0.1160
     10 C          -1.3037   -5.7637   -0.8437 C.3     1  UNL1        0.0840
     11 O           0.1010   -5.9601   -0.9826 O.3     1  UNL1       -0.3559
     12 C           0.5769   -7.0690   -0.2112 C.3     1  UNL1        0.1269
     13 N           1.9861   -7.2058   -0.4993 N.ar    1  UNL1       -0.2907
     14 C           2.9476   -6.2808   -0.1784 C.ar    1  UNL1        0.1002
     15 N           4.0867   -6.5198   -0.7961 N.ar    1  UNL1       -0.2286
     16 C           3.8557   -7.6898   -1.4801 C.ar    1  UNL1        0.1720
     17 C           2.5958   -8.1856   -1.2271 C.ar    1  UNL1        0.1709
     18 N           2.0613   -9.3619   -1.6332 N.ar    1  UNL1       -0.1963
     19 C           2.8831  -10.0762   -2.3584 C.ar    1  UNL1        0.1950
     20 N           4.1443   -9.6561   -2.7306 N.ar    1  UNL1       -0.2934
     21 H           4.6880  -10.2061   -3.3752 H       1  UNL1        0.1716
     22 C           4.7115   -8.4432   -2.3683 C.ar    1  UNL1        0.2803
     23 O           5.8015   -8.0784   -2.7961 O.2     1  UNL1       -0.2654
     24 N           2.5274  -11.3170   -2.7765 N.pl3   1  UNL1       -0.3289
     25 N          -1.5240   -0.6619    0.8991 N.4     1  UNL1        0.2289
     26 H           0.7987   -3.3211    0.9668 H       1  UNL1        0.0234
     27 H           0.6230   -1.9485    2.0780 H       1  UNL1        0.0234
     28 H           2.1636   -2.2398    1.2800 H       1  UNL1        0.0234
     29 H           0.9647   -0.3565    0.2282 H       1  UNL1        0.0356
     30 H           1.2805   -2.7834   -1.5993 H       1  UNL1        0.0234
     31 H           1.2180   -1.0846   -2.1137 H       1  UNL1        0.0234
     32 H           2.5363   -1.6606   -1.0882 H       1  UNL1        0.0234
     33 H          -2.8372   -4.5354   -1.7909 H       1  UNL1        0.0721
     34 H          -1.4709   -4.9362   -2.8405 H       1  UNL1        0.0721
     35 H          -1.5054   -5.4769    0.1910 H       1  UNL1        0.0594
     36 H          -1.8355   -6.6921   -1.0764 H       1  UNL1        0.0594
     37 H           0.4644   -6.8623    0.8586 H       1  UNL1        0.0801
     38 H           0.0550   -7.9921   -0.4812 H       1  UNL1        0.0801
     39 H           2.7550   -5.4461    0.4806 H       1  UNL1        0.1030
     40 H           1.7310  -11.6841   -2.2632 H       1  UNL1        0.1451
     41 H           3.2731  -11.9968   -2.8507 H       1  UNL1        0.1451
     42 H          -1.3755   -1.2030    1.7643 H       1  UNL1        0.2003
     43 H          -1.2091    0.3007    1.0403 H       1  UNL1        0.2003
     44 H          -2.5460   -0.6712    0.7653 H       1  UNL1        0.2003
@<TRIPOS>UNITY_ATOM_ATTR
25 1
charge 1
@<TRIPOS>BOND
     1     1     2    1
     2     1    26    1
     3     1    27    1
     4     1    28    1
     5     2     3    1
     6     2     4    1
     7     2    29    1
     8     3    30    1
     9     3    31    1
    10     3    32    1
    11     4     5    1
    12     4     6    1
    13     4    25    1
    14     6     7    2
    15     6     8    1
    16     8     9    1
    17     9    10    1
    18     9    33    1
    19     9    34    1
    20    10    11    1
    21    10    35    1
    22    10    36    1
    23    11    12    1
    24    12    13    1
    25    12    37    1
    26    12    38    1
    27    13    17   ar
    28    13    14   ar
    29    14    15   ar
    30    14    39    1
    31    15    16   ar
    32    16    22   ar
    33    16    17   ar
    34    17    18   ar
    35    18    19   ar
    36    19    20   ar
    37    19    24    1
    38    20    21    1
    39    20    22   ar
    40    22    23    2
    41    24    40    1
    42    24    41    1
    43    25    42    1
    44    25    43    1
    45    25    44    1
