@<TRIPOS>MOLECULE
ZINC01489478
 44 46 0 0 0
SMALL
GASTEIGER

@<TRIPOS>ATOM
      1 C           2.7146    2.0497    2.1303 C.ar    1  UNL1       -0.0175
      2 C           1.7676    2.5094    1.2011 C.ar    1  UNL1       -0.0040
      3 C           0.6533    3.2032    1.6947 C.ar    1  UNL1        0.1296
      4 C           0.4834    3.4669    3.0492 C.ar    1  UNL1        0.0119
      5 C           1.4410    3.0137    3.9450 C.ar    1  UNL1        0.1611
      6 C           2.5466    2.3052    3.4913 C.ar    1  UNL1        0.1588
      7 F           3.4646    1.8596    4.3571 F       1  UNL1       -0.2025
      8 F           1.2870    3.2667    5.2499 F       1  UNL1       -0.2024
      9 F          -0.2753    3.6497    0.8356 F       1  UNL1       -0.2051
     10 C           1.9242    2.1807   -0.2658 C.3     1  UNL1        0.0187
     11 C           2.1191    3.3474   -1.2650 C.3     1  UNL1       -0.0118
     12 H           2.2282    2.9109   -2.2657 H       1  UNL1        0.0858
     13 C           3.2787    4.3214   -1.0254 C.3     1  UNL1        0.0673
     14 C           4.6289    3.6251   -1.0673 C.2     1  UNL1        0.2214
     15 O           4.8432    2.7342   -0.2455 O.2     1  UNL1       -0.2754
     16 N           5.5621    3.9779   -2.0197 N.am    1  UNL1       -0.2923
     17 C           5.4616    5.0390   -3.0325 C.3     1  UNL1        0.0332
     18 C           5.3557    4.3990   -4.4156 C.3     1  UNL1        0.0422
     19 N           6.4095    3.4191   -4.5882 N.ar    1  UNL1       -0.3048
     20 C           7.0969    2.8628   -3.5346 C.ar    1  UNL1        0.1512
     21 N           8.0007    2.0436   -4.0192 N.ar    1  UNL1       -0.1324
     22 N           7.8621    2.0223   -5.3879 N.ar    1  UNL1       -0.1250
     23 C           6.8799    2.8317   -5.7305 C.ar    1  UNL1        0.2376
     24 C           6.3299    3.0618   -7.0950 C.3     1  UNL1        0.4524
     25 F           5.2722    3.9244   -7.0778 F       1  UNL1       -0.1632
     26 F           7.2399    3.5965   -7.9447 F       1  UNL1       -0.1632
     27 F           5.8611    1.9198   -7.6571 F       1  UNL1       -0.1632
     28 C           6.8238    3.2064   -2.1041 C.3     1  UNL1        0.0746
     29 N           0.8486    4.1561   -1.3537 N.4     1  UNL1        0.2213
     30 H           3.5894    1.4797    1.8207 H       1  UNL1        0.0651
     31 H          -0.3833    4.0108    3.4100 H       1  UNL1        0.0676
     32 H           2.7559    1.4760   -0.3903 H       1  UNL1        0.0369
     33 H           1.0394    1.6016   -0.5658 H       1  UNL1        0.0369
     34 H           3.2058    5.1044   -1.7767 H       1  UNL1        0.0414
     35 H           3.1880    4.8247   -0.0573 H       1  UNL1        0.0414
     36 H           4.6274    5.7161   -2.8613 H       1  UNL1        0.0482
     37 H           6.3722    5.6448   -2.9567 H       1  UNL1        0.0482
     38 H           4.4078    3.8634   -4.5289 H       1  UNL1        0.0508
     39 H           5.4489    5.1672   -5.1904 H       1  UNL1        0.0508
     40 H           7.6253    3.8450   -1.7166 H       1  UNL1        0.0545
     41 H           6.7839    2.2962   -1.4977 H       1  UNL1        0.0545
     42 H           0.8895    4.9270   -2.0317 H       1  UNL1        0.1997
     43 H           0.0414    3.5673   -1.6060 H       1  UNL1        0.1997
     44 H           0.5942    4.5685   -0.4404 H       1  UNL1        0.1997
@<TRIPOS>UNITY_ATOM_ATTR
29 1
charge 1
@<TRIPOS>BOND
     1     1     6   ar
     2     1     2   ar
     3     1    30    1
     4     2     3   ar
     5     2    10    1
     6     3     4   ar
     7     3     9    1
     8     4     5   ar
     9     4    31    1
    10     5     6   ar
    11     5     8    1
    12     6     7    1
    13    10    32    1
    14    10    33    1
    15    11    13    1
    16    11    29    1
    17    13    14    1
    18    13    34    1
    19    13    35    1
    20    14    15    2
    21    14    16   am
    22    16    28    1
    23    16    17    1
    24    17    18    1
    25    17    36    1
    26    17    37    1
    27    18    19    1
    28    18    38    1
    29    18    39    1
    30    19    23   ar
    31    19    20   ar
    32    20    21   ar
    33    20    28    1
    34    21    22   ar
    35    22    23   ar
    36    23    24    1
    37    24    25    1
    38    24    26    1
    39    24    27    1
    40    28    40    1
    41    28    41    1
    42    29    42    1
    43    29    43    1
    44    29    44    1
    45    11    12    1
    46    11    10    1
