@<TRIPOS>MOLECULE
ZINC00531272
 46 47 0 0 0
SMALL
GASTEIGER

@<TRIPOS>ATOM
      1 C          -0.3028    0.3242   -3.7237 C.3     1  UNL1       -0.0625
      2 C          -0.9274   -0.6878   -2.7656 C.3     1  UNL1       -0.0416
      3 C          -0.2072   -2.0377   -2.9258 C.3     1  UNL1       -0.0625
      4 C          -0.8540   -0.2547   -1.2881 C.3     1  UNL1       -0.0065
      5 C          -1.5465    1.0647   -0.8311 C.3     1  UNL1       -0.0113
      6 H          -1.1801    1.8731   -1.4776 H       1  UNL1        0.0860
      7 C          -3.1190    1.0385   -0.9419 C.3     1  UNL1        0.0385
      8 C          -3.8025    2.4723   -0.8938 C.3     1  UNL1       -0.0382
      9 C          -4.6907    2.0648   -2.0714 C.3     1  UNL1       -0.0511
     10 C          -3.6085    1.0628   -2.4608 C.3     1  UNL1       -0.0382
     11 C          -3.7960   -0.0899    0.0244 C.ar    1  UNL1       -0.0358
     12 C          -4.3287   -1.2999   -0.4735 C.ar    1  UNL1       -0.0565
     13 C          -4.8084   -2.3150    0.3652 C.ar    1  UNL1       -0.0431
     14 C          -4.7572   -2.1581    1.7400 C.ar    1  UNL1        0.0410
     15 C          -4.2996   -0.9641    2.2784 C.ar    1  UNL1       -0.0431
     16 C          -3.8746    0.0639    1.4283 C.ar    1  UNL1       -0.0565
     17 CL         -5.2376   -3.4403    2.7742 Cl      1  UNL1       -0.0835
     18 N          -0.8991    1.4463    0.5553 N.4     1  UNL1        0.2337
     19 C          -1.3901    2.7229    1.1924 C.3     1  UNL1       -0.0431
     20 C          -0.6841    0.3194    1.5520 C.3     1  UNL1       -0.0431
     21 H           0.7361    0.5396   -3.4537 H       1  UNL1        0.0232
     22 H          -0.8461    1.2730   -3.7349 H       1  UNL1        0.0232
     23 H          -0.3096   -0.0633   -4.7488 H       1  UNL1        0.0232
     24 H          -1.9702   -0.8552   -3.0471 H       1  UNL1        0.0297
     25 H           0.8653   -1.9389   -2.7227 H       1  UNL1        0.0232
     26 H          -0.6193   -2.7854   -2.2438 H       1  UNL1        0.0232
     27 H          -0.3242   -2.4152   -3.9479 H       1  UNL1        0.0232
     28 H          -1.2451   -1.0856   -0.6926 H       1  UNL1        0.0323
     29 H           0.2170   -0.1805   -1.0400 H       1  UNL1        0.0323
     30 H          -4.3627    2.7256    0.0141 H       1  UNL1        0.0276
     31 H          -3.1310    3.3077   -1.1276 H       1  UNL1        0.0276
     32 H          -4.8888    2.8522   -2.8089 H       1  UNL1        0.0266
     33 H          -5.6419    1.6079   -1.7848 H       1  UNL1        0.0266
     34 H          -2.8974    1.5040   -3.1706 H       1  UNL1        0.0276
     35 H          -3.9872    0.1394   -2.9003 H       1  UNL1        0.0276
     36 H          -4.3774   -1.4766   -1.5459 H       1  UNL1        0.0621
     37 H          -5.2131   -3.2261   -0.0737 H       1  UNL1        0.0632
     38 H          -4.2629   -0.8317    3.3558 H       1  UNL1        0.0632
     39 H          -3.5518    0.9869    1.9001 H       1  UNL1        0.0621
     40 H          -2.4735    2.7345    1.2197 H       1  UNL1        0.0777
     41 H          -1.0086    2.7829    2.2130 H       1  UNL1        0.0777
     42 H          -0.9990    3.5563    0.6096 H       1  UNL1        0.0777
     43 H           0.3389   -0.0424    1.4128 H       1  UNL1        0.0777
     44 H          -0.7975    0.6968    2.5719 H       1  UNL1        0.0777
     45 H          -1.3819   -0.4929    1.3732 H       1  UNL1        0.0777
     46 H           0.0654    1.6904    0.2977 H       1  UNL1        0.2031
@<TRIPOS>UNITY_ATOM_ATTR
18 1
charge 1
@<TRIPOS>BOND
     1     1     2    1
     2     1    21    1
     3     1    22    1
     4     1    23    1
     5     2     3    1
     6     2     4    1
     7     2    24    1
     8     3    25    1
     9     3    26    1
    10     3    27    1
    11     4     5    1
    12     4    28    1
    13     4    29    1
    14     5     6    1
    15     5     7    1
    16     5    18    1
    17     7    10    1
    18     7     8    1
    19     7    11    1
    20     8     9    1
    21     8    30    1
    22     8    31    1
    23     9    10    1
    24     9    32    1
    25     9    33    1
    26    10    34    1
    27    10    35    1
    28    11    16   ar
    29    11    12   ar
    30    12    13   ar
    31    12    36    1
    32    13    14   ar
    33    13    37    1
    34    14    15   ar
    35    14    17    1
    36    15    16   ar
    37    15    38    1
    38    16    39    1
    39    18    19    1
    40    18    20    1
    41    18    46    1
    42    19    40    1
    43    19    41    1
    44    19    42    1
    45    20    43    1
    46    20    44    1
    47    20    45    1
