@<TRIPOS>MOLECULE
ZINC00057060
 33 34 0 0 0
SMALL
GASTEIGER

@<TRIPOS>ATOM
      1 C           4.2069    1.0213    0.6472 C.3     1  UNL1        0.0121
      2 C           3.7681   -0.1219   -0.2277 C.2     1  UNL1        0.2099
      3 O           2.9193   -0.9332    0.1232 O.2     1  UNL1       -0.2761
      4 N           4.4182   -0.1617   -1.4404 N.am    1  UNL1       -0.3152
      5 C           4.1483   -1.1923   -2.4289 C.3     1  UNL1        0.0156
      6 C           3.0223   -0.8100   -3.3987 C.3     1  UNL1       -0.0101
      7 C           2.7880   -1.8295   -4.4799 C.ar    1  UNL1       -0.0208
      8 C           2.9605   -3.1983   -4.3835 C.ar    1  UNL1        0.0060
      9 N           2.6537   -3.7656   -5.5889 N.ar    1  UNL1       -0.3604
     10 H           2.6957   -4.7536   -5.7955 H       1  UNL1        0.1653
     11 C           2.2677   -2.7969   -6.4839 C.ar    1  UNL1        0.0470
     12 C           2.3209   -1.5738   -5.8150 C.ar    1  UNL1        0.0063
     13 C           1.9375   -0.4143   -6.5252 C.ar    1  UNL1       -0.0105
     14 C           1.5438   -0.5075   -7.8707 C.ar    1  UNL1        0.1208
     15 C           1.5217   -1.7483   -8.5042 C.ar    1  UNL1       -0.0180
     16 C           1.8787   -2.9170   -7.8206 C.ar    1  UNL1       -0.0343
     17 O           1.2114    0.6902   -8.4483 O.3     1  UNL1       -0.4951
     18 C           0.8178    0.6553   -9.8161 C.3     1  UNL1        0.0788
     19 H           3.6494    1.0000    1.5883 H       1  UNL1        0.0322
     20 H           4.0108    1.9719    0.1442 H       1  UNL1        0.0322
     21 H           5.2741    0.9324    0.8702 H       1  UNL1        0.0322
     22 H           5.0807    0.5667   -1.6717 H       1  UNL1        0.1487
     23 H           5.0837   -1.3563   -2.9759 H       1  UNL1        0.0465
     24 H           3.9034   -2.1223   -1.9034 H       1  UNL1        0.0465
     25 H           2.0881   -0.6537   -2.8454 H       1  UNL1        0.0329
     26 H           3.2748    0.1524   -3.8612 H       1  UNL1        0.0329
     27 H           3.2820   -3.8195   -3.5587 H       1  UNL1        0.0810
     28 H           1.9444    0.5543   -6.0357 H       1  UNL1        0.0661
     29 H           1.2297   -1.8500   -9.5451 H       1  UNL1        0.0655
     30 H           1.8509   -3.8810   -8.3195 H       1  UNL1        0.0639
     31 H           1.6257    0.2766  -10.4512 H       1  UNL1        0.0660
     32 H          -0.0975    0.0687   -9.9484 H       1  UNL1        0.0660
     33 H           0.6036    1.6813  -10.1298 H       1  UNL1        0.0660
@<TRIPOS>BOND
     1     1     2    1
     2     1    19    1
     3     1    20    1
     4     1    21    1
     5     2     3    2
     6     2     4   am
     7     4     5    1
     8     4    22    1
     9     5     6    1
    10     5    23    1
    11     5    24    1
    12     6     7    1
    13     6    25    1
    14     6    26    1
    15     7    12   ar
    16     7     8   ar
    17     8     9   ar
    18     8    27    1
    19     9    10    1
    20     9    11   ar
    21    11    16   ar
    22    11    12   ar
    23    12    13   ar
    24    13    14   ar
    25    13    28    1
    26    14    15   ar
    27    14    17    1
    28    15    16   ar
    29    15    29    1
    30    16    30    1
    31    17    18    1
    32    18    31    1
    33    18    32    1
    34    18    33    1
