@<TRIPOS>MOLECULE
ZINC01530639
 55 57 0 0 0
SMALL
GASTEIGER

@<TRIPOS>ATOM
      1 C           1.2197    2.4357    0.2016 C.3     1  UNL1       -0.0445
      2 C           0.5146    1.0817    0.2817 C.3     1  UNL1        0.0295
      3 C           1.1534    0.1326    1.2926 C.3     1  UNL1       -0.0445
      4 N          -0.9479    1.1639    0.4105 N.ar    1  UNL1       -0.3372
      5 C          -1.8065    0.6244   -0.5477 C.ar    1  UNL1        0.0503
      6 C          -1.5501   -0.0371   -1.7704 C.ar    1  UNL1       -0.0376
      7 C          -2.6246   -0.4909   -2.5414 C.ar    1  UNL1       -0.0598
      8 C          -3.9282   -0.3097   -2.1093 C.ar    1  UNL1       -0.0611
      9 C          -4.1793    0.3446   -0.9000 C.ar    1  UNL1       -0.0520
     10 C          -3.1132    0.8439   -0.1089 C.ar    1  UNL1        0.0082
     11 C          -3.0431    1.6004    1.1119 C.ar    1  UNL1        0.0147
     12 C          -1.6903    1.7572    1.4328 C.ar    1  UNL1        0.0507
     13 C          -1.0458    2.4584    2.4961 C.2     1  UNL1       -0.0391
     14 C          -0.8019    1.8773    3.6873 C.2     1  UNL1       -0.0539
     15 C          -0.1864    2.5668    4.8828 C.3     1  UNL1        0.0761
     16 H           0.0825    3.6002    4.6372 H       1  UNL1        0.0638
     17 C          -1.1279    2.5638    6.1089 C.3     1  UNL1        0.0034
     18 C          -0.5109    3.2208    7.3620 C.3     1  UNL1        0.0681
     19 H          -0.2111    4.2508    7.1343 H       1  UNL1        0.0599
     20 C          -1.4940    3.2078    8.5332 C.3     1  UNL1        0.0752
     21 C          -0.9191    3.8902    9.7746 C.2     1  UNL1        0.3585
     22 O           0.3273    3.7332    9.9395 O.co2   1  UNL1       -0.2463
     23 O          -1.7573    4.5050   10.4876 O.co2   1  UNL1       -0.2463
     24 O           0.6791    2.4925    7.6960 O.3     1  UNL1       -0.3911
     25 O           1.0210    1.8612    5.1560 O.3     1  UNL1       -0.3877
     26 C          -4.1637    2.1980    1.8562 C.ar    1  UNL1       -0.0151
     27 C          -5.2626    2.7322    1.1587 C.ar    1  UNL1       -0.0512
     28 C          -6.3461    3.2965    1.8383 C.ar    1  UNL1       -0.0259
     29 C          -6.3197    3.3709    3.2229 C.ar    1  UNL1        0.1234
     30 C          -5.2442    2.8677    3.9386 C.ar    1  UNL1       -0.0259
     31 C          -4.1851    2.2606    3.2564 C.ar    1  UNL1       -0.0512
     32 F          -7.3466    3.9328    3.8735 F       1  UNL1       -0.2055
     33 H           1.2725    2.9369    1.1704 H       1  UNL1        0.0249
     34 H           0.7135    3.1021   -0.5058 H       1  UNL1        0.0249
     35 H           2.2505    2.3021   -0.1488 H       1  UNL1        0.0249
     36 H           0.7052    0.6227   -0.6932 H       1  UNL1        0.0522
     37 H           1.1310    0.5300    2.3081 H       1  UNL1        0.0249
     38 H           0.6423   -0.8368    1.2954 H       1  UNL1        0.0249
     39 H           2.2040   -0.0444    1.0374 H       1  UNL1        0.0249
     40 H          -0.5409   -0.2006   -2.1346 H       1  UNL1        0.0638
     41 H          -2.4332   -0.9942   -3.4863 H       1  UNL1        0.0618
     42 H          -4.7579   -0.6738   -2.7092 H       1  UNL1        0.0618
     43 H          -5.2079    0.4671   -0.5733 H       1  UNL1        0.0624
     44 H          -0.8019    3.5048    2.3394 H       1  UNL1        0.0636
     45 H          -1.0540    0.8292    3.8379 H       1  UNL1        0.0598
     46 H          -2.0646    3.0746    5.8556 H       1  UNL1        0.0318
     47 H          -1.3712    1.5220    6.3592 H       1  UNL1        0.0318
     48 H          -2.4219    3.7181    8.2486 H       1  UNL1        0.0404
     49 H          -1.7426    2.1797    8.8213 H       1  UNL1        0.0404
     50 H           0.9066    2.8263    8.6083 H       1  UNL1        0.2098
     51 H           1.2046    2.0087    6.1137 H       1  UNL1        0.2102
     52 H          -5.2864    2.7242    0.0721 H       1  UNL1        0.0624
     53 H          -7.2001    3.6854    1.2944 H       1  UNL1        0.0646
     54 H          -5.2298    2.9414    5.0214 H       1  UNL1        0.0646
     55 H          -3.3822    1.8349    3.8459 H       1  UNL1        0.0624
@<TRIPOS>BOND
     1     1     2    1
     2     1    33    1
     3     1    34    1
     4     1    35    1
     5     2     3    1
     6     2     4    1
     7     2    36    1
     8     3    37    1
     9     3    38    1
    10     3    39    1
    11     4    12   ar
    12     4     5   ar
    13     5    10   ar
    14     5     6   ar
    15     6     7   ar
    16     6    40    1
    17     7     8   ar
    18     7    41    1
    19     8     9   ar
    20     8    42    1
    21     9    10   ar
    22     9    43    1
    23    10    11   ar
    24    11    12   ar
    25    11    26    1
    26    12    13    1
    27    13    14    2
    28    13    44    1
    29    14    15    1
    30    14    45    1
    31    15    16    1
    32    15    17    1
    33    15    25    1
    34    17    18    1
    35    17    46    1
    36    17    47    1
    37    18    19    1
    38    18    20    1
    39    18    24    1
    40    20    21    1
    41    20    48    1
    42    20    49    1
    43    21    22   ar
    44    21    23   ar
    45    24    50    1
    46    25    51    1
    47    26    31   ar
    48    26    27   ar
    49    27    28   ar
    50    27    52    1
    51    28    29   ar
    52    28    53    1
    53    29    30   ar
    54    29    32    1
    55    30    31   ar
    56    30    54    1
    57    31    55    1
