@<TRIPOS>MOLECULE
ZINC00057262
 36 36 0 0 0
SMALL
GASTEIGER

@<TRIPOS>ATOM
      1 C           5.1404   -1.2974    0.4230 C.3     1  UNL1       -0.0193
      2 C           4.3397   -2.5969    0.5288 C.3     1  UNL1       -0.0203
      3 C           4.9079   -3.6677   -0.4113 C.3     1  UNL1       -0.0193
      4 C           4.3707   -3.1154    1.9707 C.3     1  UNL1       -0.0193
      5 N           2.8836   -2.3308    0.1875 N.4     1  UNL1        0.2328
      6 C           2.5794   -1.9652   -1.2415 C.3     1  UNL1       -0.0023
      7 C           1.0692   -1.7108   -1.4742 C.3     1  UNL1        0.1198
      8 H           0.5073   -2.6354   -1.2866 H       1  UNL1        0.0698
      9 C           0.7784   -1.2501   -2.8994 C.ar    1  UNL1       -0.0112
     10 C          -0.3543   -0.4859   -3.2154 C.ar    1  UNL1       -0.0357
     11 C          -0.5686   -0.0213   -4.5239 C.ar    1  UNL1        0.0633
     12 C           0.2978   -0.3544   -5.5823 C.ar    1  UNL1        0.0617
     13 C           1.4062   -1.1468   -5.2663 C.ar    1  UNL1        0.0633
     14 C           1.6218   -1.6096   -3.9642 C.ar    1  UNL1       -0.0357
     15 CL          2.5591   -1.5962   -6.4761 Cl      1  UNL1       -0.0816
     16 N           0.1974    0.2699   -6.8380 N.pl3   1  UNL1       -0.3557
     17 CL         -1.9591    0.9667   -4.8136 Cl      1  UNL1       -0.0816
     18 O           0.6903   -0.7686   -0.4629 O.3     1  UNL1       -0.3819
     19 H           6.2017   -1.4798    0.6312 H       1  UNL1        0.0287
     20 H           4.7876   -0.5468    1.1400 H       1  UNL1        0.0287
     21 H           5.0923   -0.8550   -0.5777 H       1  UNL1        0.0287
     22 H           5.9298   -3.9389   -0.1182 H       1  UNL1        0.0287
     23 H           4.3032   -4.5807   -0.3897 H       1  UNL1        0.0287
     24 H           4.9664   -3.3209   -1.4478 H       1  UNL1        0.0287
     25 H           3.8785   -2.4205    2.6593 H       1  UNL1        0.0287
     26 H           3.8685   -4.0859    2.0550 H       1  UNL1        0.0287
     27 H           5.4037   -3.2488    2.3128 H       1  UNL1        0.0287
     28 H           2.3141   -3.1473    0.4457 H       1  UNL1        0.2020
     29 H           3.1368   -1.0470   -1.4508 H       1  UNL1        0.0843
     30 H           2.9338   -2.7887   -1.8601 H       1  UNL1        0.0843
     31 H          -1.0852   -0.2247   -2.4477 H       1  UNL1        0.0636
     32 H           2.4862   -2.2563   -3.8218 H       1  UNL1        0.0636
     33 H          -0.7415    0.5665   -7.0820 H       1  UNL1        0.1424
     34 H           0.6751   -0.2233   -7.5889 H       1  UNL1        0.1424
     35 H           0.4185    0.0699   -0.8814 H       1  UNL1        0.2105
     36 H           2.5011   -1.5650    0.7705 H       1  UNL1        0.2020
@<TRIPOS>UNITY_ATOM_ATTR
5 1
charge 1
@<TRIPOS>BOND
     1     1     2    1
     2     1    19    1
     3     1    20    1
     4     1    21    1
     5     2     3    1
     6     2     4    1
     7     2     5    1
     8     3    22    1
     9     3    23    1
    10     3    24    1
    11     4    25    1
    12     4    26    1
    13     4    27    1
    14     5     6    1
    15     5    28    1
    16     5    36    1
    17     6    29    1
    18     6    30    1
    19     7     9    1
    20     7    18    1
    21     9    14   ar
    22     9    10   ar
    23    10    11   ar
    24    10    31    1
    25    11    12   ar
    26    11    17    1
    27    12    13   ar
    28    12    16    1
    29    13    14   ar
    30    13    15    1
    31    14    32    1
    32    16    33    1
    33    16    34    1
    34    18    35    1
    35     7     8    1
    36     7     6    1
