@<TRIPOS>MOLECULE
ZINC03782807
 42 44 0 0 0
SMALL
GASTEIGER

@<TRIPOS>ATOM
      1 C           1.5622   -1.0805    1.9822 C.3     1  UNL1       -0.0650
      2 C           0.8313   -0.0519    1.1288 C.3     1  UNL1       -0.0517
      3 C           1.0390    1.3738    1.6678 C.3     1  UNL1       -0.0224
      4 C           0.5521    2.6338    0.9546 C.ar    1  UNL1        0.0197
      5 C           0.9520    3.9652    1.3724 C.ar    1  UNL1        0.0601
      6 C           0.6219    5.0172    0.4595 C.ar    1  UNL1        0.0464
      7 C          -0.0780    4.8123   -0.7403 C.ar    1  UNL1       -0.0346
      8 C          -0.5196    3.5460   -1.0709 C.ar    1  UNL1        0.0651
      9 C          -0.2428    2.4756   -0.2285 C.ar    1  UNL1        0.1447
     10 O          -0.7533    1.2298   -0.5224 O.2     1  UNL1       -0.4475
     11 C          -1.3571    0.9906   -1.7437 C.ar    1  UNL1        0.2197
     12 C          -1.6029    1.9365   -2.6540 C.ar    1  UNL1        0.0354
     13 C          -1.2395    3.3227   -2.3395 C.ar    1  UNL1        0.1933
     14 O          -1.5021    4.2375   -3.1134 O.2     1  UNL1       -0.2870
     15 C          -1.7598   -0.4872   -2.0429 C.2     1  UNL1        0.4211
     16 O          -1.5722   -1.3084   -1.0982 O.co2   1  UNL1       -0.2371
     17 O          -2.2258   -0.7028   -3.1970 O.co2   1  UNL1       -0.2371
     18 C           1.0204    6.4176    0.7147 C.ar    1  UNL1        0.1902
     19 O           0.7693    7.3255   -0.0747 O.2     1  UNL1       -0.2871
     20 C           1.7256    6.7068    1.9534 C.ar    1  UNL1        0.0164
     21 C           2.0056    5.7135    2.8087 C.ar    1  UNL1        0.1352
     22 N           1.6583    4.3400    2.5774 N.ar    1  UNL1       -0.3344
     23 C           1.8526    3.4022    3.7043 C.3     1  UNL1        0.0212
     24 C           0.6326    3.3399    4.6157 C.3     1  UNL1       -0.0471
     25 C           2.7598    6.2910    4.1024 C.2     1  UNL1        0.4027
     26 O           2.5765    5.6746    5.1912 O.co2   1  UNL1       -0.2389
     27 O           3.4510    7.3387    3.9148 O.co2   1  UNL1       -0.2389
     28 H           2.6295   -0.8499    2.0543 H       1  UNL1        0.0230
     29 H           1.4575   -2.0774    1.5423 H       1  UNL1        0.0230
     30 H           1.1454   -1.1106    2.9939 H       1  UNL1        0.0230
     31 H           1.1982   -0.1325    0.0992 H       1  UNL1        0.0266
     32 H          -0.2323   -0.3120    1.1466 H       1  UNL1        0.0266
     33 H           0.5933    1.3705    2.6658 H       1  UNL1        0.0315
     34 H           2.1297    1.4811    1.7105 H       1  UNL1        0.0315
     35 H          -0.2817    5.6457   -1.4102 H       1  UNL1        0.0633
     36 H          -2.0666    1.7338   -3.6084 H       1  UNL1        0.0695
     37 H           1.9893    7.7434    2.1259 H       1  UNL1        0.0679
     38 H           2.1458    2.4091    3.3924 H       1  UNL1        0.0489
     39 H           2.7451    3.6591    4.2816 H       1  UNL1        0.0489
     40 H          -0.2979    3.2230    4.0526 H       1  UNL1        0.0247
     41 H           0.7237    2.4940    5.3051 H       1  UNL1        0.0247
     42 H           0.5335    4.2448    5.2221 H       1  UNL1        0.0247
@<TRIPOS>BOND
     1     1     2    1
     2     1    28    1
     3     1    29    1
     4     1    30    1
     5     2     3    1
     6     2    31    1
     7     2    32    1
     8     3     4    1
     9     3    33    1
    10     3    34    1
    11     4     9   ar
    12     4     5   ar
    13     5    22   ar
    14     5     6   ar
    15     6     7   ar
    16     6    18   ar
    17     7     8   ar
    18     7    35    1
    19     8    13   ar
    20     8     9   ar
    21     9    10   ar
    22    10    11   ar
    23    11    12   ar
    24    11    15    1
    25    12    13   ar
    26    12    36    1
    27    13    14    2
    28    15    16   ar
    29    15    17   ar
    30    18    19    2
    31    18    20   ar
    32    20    21   ar
    33    20    37    1
    34    21    22   ar
    35    21    25    1
    36    22    23    1
    37    23    24    1
    38    23    38    1
    39    23    39    1
    40    24    40    1
    41    24    41    1
    42    24    42    1
    43    25    26   ar
    44    25    27   ar
