@<TRIPOS>MOLECULE
ZINC00001267
 37 38 0 0 0
SMALL
GASTEIGER

@<TRIPOS>ATOM
      1 C           2.5417   -1.4093   -4.4298 C.3     1  UNL1        0.0817
      2 O           1.7703   -0.4788   -3.6631 O.3     1  UNL1       -0.4674
      3 C           0.9097    0.2747   -4.4000 C.2     1  UNL1        0.3198
      4 O           0.7354    0.1825   -5.6060 O.2     1  UNL1       -0.2499
      5 C           0.3425    1.3947   -3.5421 C.3     1  UNL1        0.1238
      6 H           0.6937    1.2374   -2.5124 H       1  UNL1        0.0519
      7 C          -1.1777    1.3800   -3.5199 C.ar    1  UNL1       -0.0284
      8 C          -1.8594    1.1021   -2.3220 C.ar    1  UNL1       -0.0576
      9 C          -3.2527    1.0137   -2.2934 C.ar    1  UNL1       -0.0615
     10 C          -3.9892    1.2013   -3.4609 C.ar    1  UNL1       -0.0617
     11 C          -3.3297    1.4821   -4.6553 C.ar    1  UNL1       -0.0615
     12 C          -1.9380    1.5747   -4.6885 C.ar    1  UNL1       -0.0576
     13 C           0.9690    2.7223   -4.0548 C.3     1  UNL1       -0.0053
     14 H           0.5772    3.0004   -5.0410 H       1  UNL1        0.0862
     15 C           2.5095    2.6422   -4.1145 C.3     1  UNL1       -0.0084
     16 C           3.2123    3.9817   -4.2979 C.3     1  UNL1       -0.0431
     17 C           2.7268    5.0000   -3.2800 C.3     1  UNL1       -0.0124
     18 C           1.2232    5.1724   -3.3913 C.3     1  UNL1       -0.0334
     19 N           0.5647    3.8576   -3.1248 N.4     1  UNL1        0.2300
     20 H           3.2813   -1.8623   -3.7640 H       1  UNL1        0.0661
     21 H           3.0774   -0.8904   -5.2315 H       1  UNL1        0.0661
     22 H           1.8976   -2.1943   -4.8344 H       1  UNL1        0.0661
     23 H          -1.3177    0.9048   -1.3963 H       1  UNL1        0.0621
     24 H          -3.7692    0.7657   -1.3678 H       1  UNL1        0.0618
     25 H          -5.0713    1.0985   -3.4464 H       1  UNL1        0.0618
     26 H          -3.9046    1.5948   -5.5708 H       1  UNL1        0.0618
     27 H          -1.4606    1.7406   -5.6529 H       1  UNL1        0.0621
     28 H           2.8089    1.9961   -4.9492 H       1  UNL1        0.0320
     29 H           2.8901    2.1700   -3.2002 H       1  UNL1        0.0320
     30 H           4.2941    3.8403   -4.1977 H       1  UNL1        0.0269
     31 H           3.0331    4.3575   -5.3131 H       1  UNL1        0.0269
     32 H           2.9948    4.6680   -2.2690 H       1  UNL1        0.0317
     33 H           3.2298    5.9582   -3.4470 H       1  UNL1        0.0317
     34 H           0.8457    5.8769   -2.6446 H       1  UNL1        0.0814
     35 H           0.9161    5.4998   -4.3902 H       1  UNL1        0.0814
     36 H           0.7328    3.5943   -2.1440 H       1  UNL1        0.2016
     37 H          -0.4582    3.9857   -3.1979 H       1  UNL1        0.2016
@<TRIPOS>UNITY_ATOM_ATTR
19 1
charge 1
@<TRIPOS>BOND
     1     1     2    1
     2     1    20    1
     3     1    21    1
     4     1    22    1
     5     2     3    1
     6     3     4    2
     7     5     7    1
     8     5    13    1
     9     7    12   ar
    10     7     8   ar
    11     8     9   ar
    12     8    23    1
    13     9    10   ar
    14     9    24    1
    15    10    11   ar
    16    10    25    1
    17    11    12   ar
    18    11    26    1
    19    12    27    1
    20    13    14    1
    21    13    19    1
    22    13    15    1
    23    15    16    1
    24    15    28    1
    25    15    29    1
    26    16    17    1
    27    16    30    1
    28    16    31    1
    29    17    18    1
    30    17    32    1
    31    17    33    1
    32    18    19    1
    33    18    34    1
    34    18    35    1
    35    19    36    1
    36    19    37    1
    37     5     6    1
    38     5     3    1
