@<TRIPOS>MOLECULE
ZINC00000189
 44 45 0 0 0
SMALL
GASTEIGER

@<TRIPOS>ATOM
      1 C           2.6627   -1.2260    0.0458 C.3     1  UNL1       -0.0623
      2 C           1.4285   -0.4080   -0.3448 C.3     1  UNL1       -0.0401
      3 H           1.3838   -0.3641   -1.4398 H       1  UNL1        0.0299
      4 C           1.5606    1.0136    0.2047 C.3     1  UNL1       -0.0130
      5 C           0.3363    1.8758   -0.1024 C.3     1  UNL1        0.1039
      6 H           0.4445    2.8503    0.3920 H       1  UNL1        0.0734
      7 C          -0.9324    1.2073    0.4492 C.3     1  UNL1       -0.0105
      8 C          -1.1404   -0.2659    0.0094 C.3     1  UNL1       -0.0313
      9 C           0.1583   -1.0877    0.1883 C.3     1  UNL1       -0.0450
     10 C          -2.2339   -0.8910    0.9024 C.3     1  UNL1       -0.0597
     11 C          -1.6378   -0.3524   -1.4457 C.3     1  UNL1       -0.0597
     12 O           0.1340    2.1130   -1.5066 O.3     1  UNL1       -0.4593
     13 C           0.9552    3.0236   -2.1050 C.2     1  UNL1        0.3409
     14 O           2.0227    3.4133   -1.6484 O.2     1  UNL1       -0.2475
     15 C           0.3293    3.5694   -3.4003 C.3     1  UNL1        0.1767
     16 H           0.7525    4.5721   -3.5344 H       1  UNL1        0.0762
     17 C           0.6572    2.7343   -4.6265 C.ar    1  UNL1       -0.0084
     18 C           1.7107    3.1188   -5.4725 C.ar    1  UNL1       -0.0556
     19 C           1.9758    2.4087   -6.6458 C.ar    1  UNL1       -0.0614
     20 C           1.1958    1.3070   -6.9867 C.ar    1  UNL1       -0.0617
     21 C           0.1663    0.8953   -6.1429 C.ar    1  UNL1       -0.0614
     22 C          -0.0931    1.5965   -4.9626 C.ar    1  UNL1       -0.0556
     23 O          -1.0793    3.7974   -3.2906 O.3     1  UNL1       -0.3762
     24 H           2.7637   -1.2982    1.1351 H       1  UNL1        0.0232
     25 H           2.6000   -2.2434   -0.3543 H       1  UNL1        0.0232
     26 H           3.5768   -0.7654   -0.3443 H       1  UNL1        0.0232
     27 H           1.6933    0.9729    1.2949 H       1  UNL1        0.0303
     28 H           2.4691    1.4705   -0.2007 H       1  UNL1        0.0303
     29 H          -0.8797    1.2464    1.5455 H       1  UNL1        0.0306
     30 H          -1.8096    1.7994    0.1559 H       1  UNL1        0.0306
     31 H           0.0456   -2.0674   -0.2952 H       1  UNL1        0.0273
     32 H           0.3017   -1.2948    1.2581 H       1  UNL1        0.0273
     33 H          -3.1785   -0.3420    0.8171 H       1  UNL1        0.0235
     34 H          -2.4240   -1.9339    0.6236 H       1  UNL1        0.0235
     35 H          -1.9380   -0.8812    1.9576 H       1  UNL1        0.0235
     36 H          -1.8830   -1.3877   -1.7152 H       1  UNL1        0.0235
     37 H          -2.5458    0.2443   -1.5876 H       1  UNL1        0.0235
     38 H          -0.8926   -0.0077   -2.1654 H       1  UNL1        0.0235
     39 H           2.3272    3.9818   -5.2300 H       1  UNL1        0.0621
     40 H           2.7867    2.7226   -7.2987 H       1  UNL1        0.0618
     41 H           1.3906    0.7668   -7.9097 H       1  UNL1        0.0618
     42 H          -0.4400    0.0337   -6.4078 H       1  UNL1        0.0618
     43 H          -0.9018    1.2565   -4.3176 H       1  UNL1        0.0621
     44 H          -1.4986    3.4978   -4.1129 H       1  UNL1        0.2110
@<TRIPOS>BOND
     1     1     2    1
     2     1    24    1
     3     1    25    1
     4     1    26    1
     5     2     3    1
     6     2     9    1
     7     2     4    1
     8     4     5    1
     9     4    27    1
    10     4    28    1
    11     5     6    1
    12     5     7    1
    13     5    12    1
    14     7     8    1
    15     7    29    1
    16     7    30    1
    17     8     9    1
    18     8    10    1
    19     8    11    1
    20     9    31    1
    21     9    32    1
    22    10    33    1
    23    10    34    1
    24    10    35    1
    25    11    36    1
    26    11    37    1
    27    11    38    1
    28    12    13    1
    29    13    14    2
    30    13    15    1
    31    15    16    1
    32    15    17    1
    33    15    23    1
    34    17    22   ar
    35    17    18   ar
    36    18    19   ar
    37    18    39    1
    38    19    20   ar
    39    19    40    1
    40    20    21   ar
    41    20    41    1
    42    21    22   ar
    43    21    42    1
    44    22    43    1
    45    23    44    1
