@<TRIPOS>MOLECULE
ZINC00001554
 15 15 0 0 0
SMALL
GASTEIGER

@<TRIPOS>ATOM
      1 C          -1.8462    0.0446    0.0073 C.ar    1  UNL1       -0.0608
      2 C          -1.1957   -1.1827    0.0035 C.ar    1  UNL1       -0.0583
      3 C           0.1989   -1.2236   -0.0155 C.ar    1  UNL1       -0.0194
      4 C           0.9452   -0.0358   -0.0290 C.ar    1  UNL1        0.1310
      5 C           0.3139    1.2136    0.0006 C.ar    1  UNL1        0.1044
      6 C          -1.0986    1.2247    0.0068 C.ar    1  UNL1       -0.0441
      7 C           1.0418    2.5462    0.0375 C.2     1  UNL1        0.3900
      8 O           0.4043    3.5483   -0.4304 O.co2   1  UNL1       -0.2405
      9 O           2.1966    2.6059    0.5674 O.co2   1  UNL1       -0.2405
     10 O           2.3043   -0.1376   -0.1220 O.3     1  UNL1       -0.5059
     11 H          -2.9306    0.0965    0.0056 H       1  UNL1        0.0618
     12 H          -1.7685   -2.1043    0.0044 H       1  UNL1        0.0619
     13 H           0.6957   -2.1876   -0.0374 H       1  UNL1        0.0654
     14 H          -1.6119    2.1863    0.0132 H       1  UNL1        0.0627
     15 H           2.5759   -1.0384    0.0939 H       1  UNL1        0.2922
@<TRIPOS>BOND
     1     1     6   ar
     2     1     2   ar
     3     1    11    1
     4     2     3   ar
     5     2    12    1
     6     3     4   ar
     7     3    13    1
     8     4     5   ar
     9     4    10    1
    10     5     6   ar
    11     5     7    1
    12     6    14    1
    13     7     8   ar
    14     7     9   ar
    15    10    15    1
