@<TRIPOS>MOLECULE
ZINC00004321
 22 23 0 0 0
SMALL
GASTEIGER

@<TRIPOS>ATOM
      1 C           2.2803   -0.6352    0.0181 C.ar    1  UNL1       -0.0609
      2 C           2.1938    0.7603   -0.0020 C.ar    1  UNL1       -0.0582
      3 C           0.9542    1.4078   -0.0134 C.ar    1  UNL1       -0.0161
      4 C          -0.1677    0.5838   -0.0104 C.ar    1  UNL1        0.1675
      5 C          -0.1255   -0.8000    0.0080 C.ar    1  UNL1        0.0459
      6 C           1.1270   -1.4355    0.0261 C.ar    1  UNL1       -0.0491
      7 C          -1.4931   -1.1822    0.0012 C.ar    1  UNL1        0.1137
      8 N          -2.2985   -0.1095   -0.0141 N.ar    1  UNL1       -0.0803
      9 O          -1.4624    0.9937   -0.0250 O.2     1  UNL1       -0.3543
     10 C          -2.0749   -2.5457    0.0250 C.3     1  UNL1        0.1272
     11 S          -2.3270   -3.2052   -1.6281 S.O2    1  UNL1        0.0326
     12 O          -1.0610   -3.2510   -2.3301 O.2     1  UNL1       -0.1581
     13 O          -3.1711   -4.3758   -1.5466 O.2     1  UNL1       -0.1581
     14 N          -3.2361   -2.0352   -2.4085 N.3     1  UNL1       -0.2077
     15 H           3.2597   -1.1113    0.0207 H       1  UNL1        0.0618
     16 H           3.1064    1.3540   -0.0111 H       1  UNL1        0.0619
     17 H           0.8667    2.4873   -0.0280 H       1  UNL1        0.0655
     18 H           1.2132   -2.5183    0.0348 H       1  UNL1        0.0625
     19 H          -1.4072   -3.2476    0.5358 H       1  UNL1        0.0582
     20 H          -3.0420   -2.5656    0.5368 H       1  UNL1        0.0582
     21 H          -2.6956   -1.1885   -2.5962 H       1  UNL1        0.1439
     22 H          -3.6637   -2.4184   -3.2529 H       1  UNL1        0.1439
@<TRIPOS>BOND
     1     1     6   ar
     2     1     2   ar
     3     1    15    1
     4     2     3   ar
     5     2    16    1
     6     3     4   ar
     7     3    17    1
     8     4     9   ar
     9     4     5   ar
    10     5     6   ar
    11     5     7   ar
    12     6    18    1
    13     7     8   ar
    14     7    10    1
    15     8     9   ar
    16    10    11    1
    17    10    19    1
    18    10    20    1
    19    11    12    2
    20    11    13    2
    21    11    14    1
    22    14    21    1
    23    14    22    1
