@<TRIPOS>MOLECULE
ZINC00601293
 53 56 0 0 0
SMALL
GASTEIGER

@<TRIPOS>ATOM
      1 C           3.5635    0.5600    0.4851 C.ar    1  UNL1       -0.0611
      2 C           3.6508   -0.8020    0.2669 C.ar    1  UNL1       -0.0607
      3 C           2.5156   -1.4866   -0.1382 C.ar    1  UNL1       -0.0474
      4 C           1.2752   -0.8283   -0.3100 C.ar    1  UNL1        0.0205
      5 C           1.1517    0.5587   -0.1050 C.ar    1  UNL1       -0.0038
      6 C           2.3441    1.2268    0.2821 C.ar    1  UNL1       -0.0530
      7 C          -0.2046    1.2731   -0.2757 C.2     1  UNL1       -0.0123
      8 C          -0.2718    2.5534    0.1951 C.2     1  UNL1       -0.0707
      9 C          -1.3685    3.5978    0.3203 C.3     1  UNL1        0.0065
     10 C          -1.0948    4.5650    1.4884 C.3     1  UNL1       -0.0283
     11 N          -2.0955    5.7153    1.5799 N.4     1  UNL1        0.2373
     12 C          -1.9504    6.3800    2.9652 C.3     1  UNL1       -0.0188
     13 C          -2.5532    7.7934    3.0271 C.3     1  UNL1        0.0394
     14 N          -2.1297    8.6889    1.9376 N.3     1  UNL1       -0.2902
     15 C          -2.5584    8.0768    0.6678 C.3     1  UNL1        0.0394
     16 C          -1.9819    6.6730    0.3906 C.3     1  UNL1       -0.0188
     17 C          -0.6774    8.9972    1.9341 C.3     1  UNL1        0.0225
     18 C          -0.1723    9.8654    3.1012 C.3     1  UNL1        0.0569
     19 O          -0.2111    9.1478    4.3316 O.3     1  UNL1       -0.3937
     20 C          -1.4119    0.5586   -0.8671 C.ar    1  UNL1       -0.0025
     21 C          -2.5765    1.2271   -1.2886 C.ar    1  UNL1       -0.0346
     22 C          -3.7317    0.5503   -1.6975 C.ar    1  UNL1        0.0416
     23 C          -3.7389   -0.8241   -1.8140 C.ar    1  UNL1       -0.0423
     24 C          -2.5694   -1.5099   -1.5265 C.ar    1  UNL1       -0.0460
     25 C          -1.4158   -0.8412   -1.0560 C.ar    1  UNL1        0.0205
     26 S          -0.0482   -1.9169   -0.7459 S.3     1  UNL1       -0.0882
     27 CL         -5.1659    1.4435   -2.0213 Cl      1  UNL1       -0.0835
     28 H           4.4412    1.1114    0.8142 H       1  UNL1        0.0618
     29 H           4.5916   -1.3301    0.4112 H       1  UNL1        0.0618
     30 H           2.5998   -2.5601   -0.3127 H       1  UNL1        0.0629
     31 H           2.3949    2.2962    0.4440 H       1  UNL1        0.0624
     32 H           0.6386    2.9837    0.5961 H       1  UNL1        0.0580
     33 H          -1.3994    4.1611   -0.6195 H       1  UNL1        0.0359
     34 H          -2.3435    3.1446    0.5088 H       1  UNL1        0.0359
     35 H          -1.1526    4.0185    2.4365 H       1  UNL1        0.0817
     36 H          -0.1011    5.0245    1.4087 H       1  UNL1        0.0817
     37 H          -0.8829    6.3948    3.2128 H       1  UNL1        0.0827
     38 H          -2.4704    5.7167    3.6636 H       1  UNL1        0.0827
     39 H          -2.3560    8.2356    4.0070 H       1  UNL1        0.0479
     40 H          -3.6491    7.7077    2.9935 H       1  UNL1        0.0479
     41 H          -3.6553    8.0184    0.6663 H       1  UNL1        0.0479
     42 H          -2.3094    8.7434   -0.1672 H       1  UNL1        0.0479
     43 H          -2.5332    6.2079   -0.4338 H       1  UNL1        0.0827
     44 H          -0.9240    6.7415    0.1203 H       1  UNL1        0.0827
     45 H          -0.0822    8.0774    1.9001 H       1  UNL1        0.0449
     46 H          -0.4524    9.5555    1.0166 H       1  UNL1        0.0449
     47 H           0.8735   10.1371    2.9190 H       1  UNL1        0.0570
     48 H          -0.7572   10.7863    3.1896 H       1  UNL1        0.0570
     49 H          -0.0534    9.8093    5.0329 H       1  UNL1        0.2095
     50 H          -2.6228    2.3058   -1.3281 H       1  UNL1        0.0638
     51 H          -4.6212   -1.3657   -2.1414 H       1  UNL1        0.0632
     52 H          -2.5537   -2.5941   -1.6654 H       1  UNL1        0.0629
     53 H          -3.0483    5.3273    1.5547 H       1  UNL1        0.2034
@<TRIPOS>UNITY_ATOM_ATTR
11 1
charge 1
@<TRIPOS>BOND
     1     1     6   ar
     2     1     2   ar
     3     1    28    1
     4     2     3   ar
     5     2    29    1
     6     3     4   ar
     7     3    30    1
     8     4    26    1
     9     4     5   ar
    10     5     6   ar
    11     5     7    1
    12     6    31    1
    13     7     8    2
    14     7    20    1
    15     8     9    1
    16     8    32    1
    17     9    10    1
    18     9    33    1
    19     9    34    1
    20    10    11    1
    21    10    35    1
    22    10    36    1
    23    11    16    1
    24    11    12    1
    25    11    53    1
    26    12    13    1
    27    12    37    1
    28    12    38    1
    29    13    14    1
    30    13    39    1
    31    13    40    1
    32    14    15    1
    33    14    17    1
    34    15    16    1
    35    15    41    1
    36    15    42    1
    37    16    43    1
    38    16    44    1
    39    17    18    1
    40    17    45    1
    41    17    46    1
    42    18    19    1
    43    18    47    1
    44    18    48    1
    45    19    49    1
    46    20    25   ar
    47    20    21   ar
    48    21    22   ar
    49    21    50    1
    50    22    23   ar
    51    22    27    1
    52    23    24   ar
    53    23    51    1
    54    24    25   ar
    55    24    52    1
    56    25    26    1
