@<TRIPOS>MOLECULE
ZINC00001850
 48 50 0 0 0
SMALL
GASTEIGER

@<TRIPOS>ATOM
      1 C           2.0853    0.6563    0.0807 C.3     1  UNL1       -0.0433
      2 C           4.4372    1.1402    0.7182 C.3     1  UNL1       -0.0433
      3 C           3.2973   -0.8187    1.7643 C.3     1  UNL1       -0.0289
      4 C           2.4525   -2.0825    1.5136 C.3     1  UNL1        0.0065
      5 C           2.9588   -2.8465    0.3208 C.2     1  UNL1       -0.0706
      6 C           3.7982   -3.9083    0.2411 C.2     1  UNL1       -0.0106
      7 C           4.1652   -4.2501   -1.1454 C.ar    1  UNL1       -0.0111
      8 C           4.8616   -3.3311   -1.9448 C.ar    1  UNL1       -0.0537
      9 C           5.1884   -3.6553   -3.2501 C.ar    1  UNL1       -0.0612
     10 C           4.8385   -4.9089   -3.7575 C.ar    1  UNL1       -0.0614
     11 C           4.1828   -5.8425   -2.9477 C.ar    1  UNL1       -0.0548
     12 C           3.8468   -5.5213   -1.6276 C.ar    1  UNL1       -0.0027
     13 C           3.1912   -6.5032   -0.6908 C.3     1  UNL1        0.1152
     14 O           4.0922   -6.9676    0.3147 O.3     1  UNL1       -0.4867
     15 C           4.4566   -6.1172    1.3327 C.ar    1  UNL1        0.1287
     16 C           4.3257   -4.7157    1.3726 C.ar    1  UNL1        0.0244
     17 C           4.8657   -4.0527    2.4798 C.ar    1  UNL1       -0.0468
     18 C           5.4514   -4.7084    3.5720 C.ar    1  UNL1       -0.0358
     19 C           5.5737   -6.0942    3.5085 C.ar    1  UNL1       -0.0546
     20 C           5.0850   -6.7873    2.3978 C.ar    1  UNL1       -0.0190
     21 C           6.0125   -3.9140    4.7357 C.3     1  UNL1        0.0743
     22 C           5.2337   -2.6119    4.9887 C.2     1  UNL1        0.3603
     23 O           4.2704   -2.6884    5.8002 O.co2   1  UNL1       -0.2460
     24 H           1.6591    1.2255    0.9104 H       1  UNL1        0.0777
     25 H           2.2674    1.3033   -0.7821 H       1  UNL1        0.0777
     26 H           1.4211   -0.1568   -0.2237 H       1  UNL1        0.0777
     27 H           4.1310    1.7736    1.5551 H       1  UNL1        0.0777
     28 H           5.3939    0.6476    0.9197 H       1  UNL1        0.0777
     29 H           4.5123    1.7191   -0.2040 H       1  UNL1        0.0777
     30 H           4.3308   -1.0797    1.9955 H       1  UNL1        0.0817
     31 H           2.8876   -0.2064    2.5737 H       1  UNL1        0.0817
     32 H           2.4272   -2.7028    2.4156 H       1  UNL1        0.0359
     33 H           1.4102   -1.8022    1.3252 H       1  UNL1        0.0359
     34 H           2.5725   -2.4491   -0.6201 H       1  UNL1        0.0580
     35 H           5.1724   -2.3713   -1.5401 H       1  UNL1        0.0624
     36 H           5.7302   -2.9481   -3.8756 H       1  UNL1        0.0618
     37 H           5.1017   -5.1703   -4.7806 H       1  UNL1        0.0618
     38 H           3.9548   -6.8271   -3.3480 H       1  UNL1        0.0622
     39 H           2.2741   -6.0983   -0.2412 H       1  UNL1        0.0748
     40 H           2.8728   -7.3869   -1.2567 H       1  UNL1        0.0748
     41 H           4.8717   -2.9736    2.4947 H       1  UNL1        0.0628
     42 H           6.0626   -6.6401    4.3119 H       1  UNL1        0.0622
     43 H           5.2063   -7.8677    2.3534 H       1  UNL1        0.0654
     44 H           5.9864   -4.5246    5.6475 H       1  UNL1        0.0428
     45 H           7.0655   -3.6833    4.5311 H       1  UNL1        0.0428
     46 N           3.3931    0.0758    0.5153 N.4     1  UNL1        0.2311
     47 H           3.7505   -0.5257   -0.2338 H       1  UNL1        0.2028
     48 O           5.5844   -1.6101    4.2920 O.co2   1  UNL1       -0.2460
@<TRIPOS>UNITY_ATOM_ATTR
46 1
charge 1
@<TRIPOS>BOND
     1     1    24    1
     2     1    25    1
     3     1    26    1
     4     1    46    1
     5     2    27    1
     6     2    28    1
     7     2    29    1
     8     2    46    1
     9     3     4    1
    10     3    30    1
    11     3    31    1
    12     3    46    1
    13     4     5    1
    14     4    32    1
    15     4    33    1
    16     5     6    2
    17     5    34    1
    18     6    16    1
    19     6     7    1
    20     7    12   ar
    21     7     8   ar
    22     8     9   ar
    23     8    35    1
    24     9    10   ar
    25     9    36    1
    26    10    11   ar
    27    10    37    1
    28    11    12   ar
    29    11    38    1
    30    12    13    1
    31    13    14    1
    32    13    39    1
    33    13    40    1
    34    14    15    1
    35    15    20   ar
    36    15    16   ar
    37    16    17   ar
    38    17    18   ar
    39    17    41    1
    40    18    19   ar
    41    18    21    1
    42    19    20   ar
    43    19    42    1
    44    20    43    1
    45    21    22    1
    46    21    44    1
    47    21    45    1
    48    22    23   ar
    49    22    48   ar
    50    46    47    1
