@<TRIPOS>MOLECULE
ZINC00968327
 45 47 0 0 0
SMALL
GASTEIGER

@<TRIPOS>ATOM
      1 C          10.6358   -0.7197    8.5291 C.3     1  UNL1       -0.0612
      2 C           9.6395   -1.5597    9.3098 C.3     1  UNL1       -0.0291
      3 C           8.2597   -1.5625    8.7116 C.ar    1  UNL1       -0.0295
      4 C           7.8267   -2.5754    7.8514 C.ar    1  UNL1       -0.0555
      5 C           6.4941   -2.6140    7.4293 C.ar    1  UNL1       -0.0400
      6 C           5.6186   -1.6263    7.8690 C.ar    1  UNL1        0.0445
      7 N           6.0412   -0.5875    8.6340 N.ar    1  UNL1       -0.2595
      8 C           7.3352   -0.5786    9.0332 C.ar    1  UNL1        0.0310
      9 C           4.1224   -1.7601    7.7109 C.3     1  UNL1        0.0239
     10 C           3.5285   -1.6380    6.3085 C.3     1  UNL1        0.0950
     11 O           3.7236   -2.8487    5.5718 O.3     1  UNL1       -0.4916
     12 C           2.9025   -3.0406    4.4898 C.ar    1  UNL1        0.1205
     13 C           2.1322   -2.0613    3.8591 C.ar    1  UNL1       -0.0197
     14 C           1.3621   -2.3800    2.7325 C.ar    1  UNL1       -0.0551
     15 C           1.3726   -3.6777    2.2074 C.ar    1  UNL1       -0.0456
     16 C           2.1124   -4.6657    2.8685 C.ar    1  UNL1       -0.0551
     17 C           2.8773   -4.3441    3.9927 C.ar    1  UNL1       -0.0197
     18 C           0.6802   -3.9964    0.9019 C.3     1  UNL1       -0.0069
     19 C           1.3058   -3.2953   -0.3133 C.3     1  UNL1        0.0945
     20 H           1.1740   -2.2086   -0.2679 H       1  UNL1        0.0515
     21 C           0.6603   -3.8086   -1.5850 C.2     1  UNL1        0.2336
     22 O          -0.5333   -3.7321   -1.8380 O.2     1  UNL1       -0.2741
     23 N           1.5604   -4.3975   -2.4214 N.am    1  UNL1       -0.2463
     24 C           2.8510   -4.4854   -2.0345 C.2     1  UNL1        0.2789
     25 O           3.7335   -5.0720   -2.6364 O.2     1  UNL1       -0.2625
     26 S           3.0907   -3.6523   -0.5279 S.3     1  UNL1       -0.0542
     27 H          10.6860   -1.0304    7.4809 H       1  UNL1        0.0233
     28 H          11.6363   -0.8239    8.9635 H       1  UNL1        0.0233
     29 H          10.3674    0.3415    8.5581 H       1  UNL1        0.0233
     30 H          10.0086   -2.5903    9.3849 H       1  UNL1        0.0311
     31 H           9.5852   -1.1922   10.3432 H       1  UNL1        0.0311
     32 H           8.5060   -3.3690    7.5507 H       1  UNL1        0.0621
     33 H           6.1401   -3.4414    6.8210 H       1  UNL1        0.0636
     34 H           7.6021    0.2552    9.6770 H       1  UNL1        0.0832
     35 H           3.8237   -2.7143    8.1614 H       1  UNL1        0.0361
     36 H           3.6644   -0.9704    8.3210 H       1  UNL1        0.0361
     37 H           2.4501   -1.4832    6.4494 H       1  UNL1        0.0700
     38 H           3.9511   -0.7865    5.7644 H       1  UNL1        0.0700
     39 H           2.1272   -1.0318    4.2024 H       1  UNL1        0.0654
     40 H           0.7799   -1.5955    2.2534 H       1  UNL1        0.0621
     41 H           2.1301   -5.6875    2.4957 H       1  UNL1        0.0621
     42 H           3.4691   -5.1173    4.4759 H       1  UNL1        0.0654
     43 H           0.6637   -5.0835    0.7413 H       1  UNL1        0.0329
     44 H          -0.3766   -3.7091    0.9899 H       1  UNL1        0.0329
     45 H           1.2602   -4.8271   -3.2829 H       1  UNL1        0.1583
@<TRIPOS>BOND
     1     1     2    1
     2     1    27    1
     3     1    28    1
     4     1    29    1
     5     2     3    1
     6     2    30    1
     7     2    31    1
     8     3     8   ar
     9     3     4   ar
    10     4     5   ar
    11     4    32    1
    12     5     6   ar
    13     5    33    1
    14     6     7   ar
    15     6     9    1
    16     7     8   ar
    17     8    34    1
    18     9    10    1
    19     9    35    1
    20     9    36    1
    21    10    11    1
    22    10    37    1
    23    10    38    1
    24    11    12    1
    25    12    17   ar
    26    12    13   ar
    27    13    14   ar
    28    13    39    1
    29    14    15   ar
    30    14    40    1
    31    15    16   ar
    32    15    18    1
    33    16    17   ar
    34    16    41    1
    35    17    42    1
    36    18    43    1
    37    18    44    1
    38    19    26    1
    39    19    21    1
    40    21    22    2
    41    21    23   am
    42    23    24   am
    43    23    45    1
    44    24    25    2
    45    24    26    1
    46    19    20    1
    47    19    18    1
