@<TRIPOS>MOLECULE
ZINC01544157
 52 51 0 0 0
SMALL
GASTEIGER

@<TRIPOS>ATOM
      1 C          -1.3875   -7.6979    2.9217 C.3     1  UNL1       -0.0626
      2 C          -2.0476   -8.1136    1.6053 C.3     1  UNL1       -0.0459
      3 C          -2.8557   -9.4020    1.7637 C.3     1  UNL1       -0.0626
      4 C          -2.8201   -6.9970    0.8643 C.3     1  UNL1       -0.0367
      5 C          -3.6322   -5.9480    1.6544 C.3     1  UNL1        0.0703
      6 H          -2.9811   -5.5107    2.4055 H       1  UNL1        0.0425
      7 C          -4.9027   -6.4667    2.3623 C.3     1  UNL1        0.1438
      8 H          -4.5866   -7.2098    3.0990 H       1  UNL1        0.0698
      9 C          -5.5159   -5.3139    3.2146 C.2     1  UNL1        0.2648
     10 O          -4.8925   -4.2761    3.4642 O.2     1  UNL1       -0.2709
     11 N          -6.7185   -5.5074    3.8289 N.am    1  UNL1       -0.1953
     12 O          -7.5930   -6.5067    3.3889 O.3     1  UNL1       -0.2951
     13 O          -5.7425   -7.1513    1.4517 O.3     1  UNL1       -0.3817
     14 C          -4.0360   -4.8267    0.6508 C.2     1  UNL1        0.2197
     15 O          -4.8083   -5.0068   -0.2739 O.2     1  UNL1       -0.2754
     16 N          -3.4181   -3.6253    0.9120 N.am    1  UNL1       -0.3032
     17 C          -3.2634   -2.4868   -0.0007 C.3     1  UNL1        0.1042
     18 H          -2.7814   -1.7793    0.7035 H       1  UNL1        0.0600
     19 C          -4.4962   -1.5978   -0.4235 C.2     1  UNL1        0.2336
     20 O          -4.4216   -0.8742   -1.4241 O.2     1  UNL1       -0.2738
     21 N          -5.5530   -1.2783    0.3808 N.am    1  UNL1       -0.3168
     22 C          -6.3742   -2.0612    1.2761 C.3     1  UNL1        0.0001
     23 C          -2.1135   -2.7054   -1.0982 C.3     1  UNL1       -0.0108
     24 C          -1.4307   -1.3536   -1.4360 C.3     1  UNL1       -0.0579
     25 C          -0.9773   -3.6070   -0.5516 C.3     1  UNL1       -0.0579
     26 C          -2.5552   -3.3413   -2.4360 C.3     1  UNL1       -0.0579
     27 H          -1.9680   -8.0166    3.7939 H       1  UNL1        0.0232
     28 H          -1.2262   -6.6192    2.9896 H       1  UNL1        0.0232
     29 H          -0.3980   -8.1647    3.0051 H       1  UNL1        0.0232
     30 H          -1.2244   -8.3750    0.9234 H       1  UNL1        0.0296
     31 H          -3.5259   -9.3686    2.6270 H       1  UNL1        0.0232
     32 H          -3.4550   -9.6087    0.8710 H       1  UNL1        0.0232
     33 H          -2.1775  -10.2532    1.8997 H       1  UNL1        0.0232
     34 H          -2.0474   -6.4409    0.3237 H       1  UNL1        0.0276
     35 H          -3.4382   -7.4409    0.0708 H       1  UNL1        0.0276
     36 H          -7.1542   -4.6786    4.2357 H       1  UNL1        0.1823
     37 H          -7.3553   -7.2612    3.9609 H       1  UNL1        0.2414
     38 H          -5.9307   -6.5582    0.7022 H       1  UNL1        0.2105
     39 H          -2.8525   -3.5794    1.7495 H       1  UNL1        0.1495
     40 H          -6.0644   -0.5350   -0.0591 H       1  UNL1        0.1484
     41 H          -6.6647   -1.4221    2.1234 H       1  UNL1        0.0426
     42 H          -7.3093   -2.3063    0.7439 H       1  UNL1        0.0426
     43 H          -5.9173   -2.9747    1.6187 H       1  UNL1        0.0426
     44 H          -0.9531   -0.9241   -0.5479 H       1  UNL1        0.0236
     45 H          -0.6480   -1.4774   -2.1960 H       1  UNL1        0.0236
     46 H          -2.1293   -0.6129   -1.8324 H       1  UNL1        0.0236
     47 H          -1.3235   -4.6284   -0.3990 H       1  UNL1        0.0236
     48 H          -0.1372   -3.6723   -1.2534 H       1  UNL1        0.0236
     49 H          -0.5875   -3.2290    0.3988 H       1  UNL1        0.0236
     50 H          -2.9244   -4.3636   -2.3099 H       1  UNL1        0.0236
     51 H          -3.3127   -2.7519   -2.9597 H       1  UNL1        0.0236
     52 H          -1.6948   -3.4111   -3.1208 H       1  UNL1        0.0236
@<TRIPOS>BOND
     1     1     2    1
     2     1    27    1
     3     1    28    1
     4     1    29    1
     5     2     3    1
     6     2     4    1
     7     2    30    1
     8     3    31    1
     9     3    32    1
    10     3    33    1
    11     4    34    1
    12     4    35    1
    13     5     7    1
    14     5    14    1
    15     7     8    1
    16     7     9    1
    17     7    13    1
    18     9    10    2
    19     9    11   am
    20    11    12    1
    21    11    36    1
    22    12    37    1
    23    13    38    1
    24    14    15    2
    25    14    16   am
    26    16    39    1
    27    17    19    1
    28    17    23    1
    29    19    20    2
    30    19    21   am
    31    21    22    1
    32    21    40    1
    33    22    41    1
    34    22    42    1
    35    22    43    1
    36    23    24    1
    37    23    25    1
    38    23    26    1
    39    24    44    1
    40    24    45    1
    41    24    46    1
    42    25    47    1
    43    25    48    1
    44    25    49    1
    45    26    50    1
    46    26    51    1
    47    26    52    1
    48     5     6    1
    49     5     4    1
    50    17    18    1
    51    17    16    1
