@<TRIPOS>MOLECULE
ZINC00968301
 51 53 0 0 0
SMALL
GASTEIGER

@<TRIPOS>ATOM
      1 C           7.0729    0.7462   -1.9848 C.3     1  UNL1       -0.0414
      2 N           6.6495    1.3890   -3.3043 N.4     1  UNL1        0.2417
      3 C           6.3536    2.8762   -3.1122 C.3     1  UNL1       -0.0269
      4 C           4.9216    2.9029   -2.6195 C.3     1  UNL1        0.0298
      5 C           4.2305    1.8523   -3.4755 C.3     1  UNL1        0.1473
      6 H           3.4033    1.3585   -2.9508 H       1  UNL1        0.0790
      7 C           5.3069    0.8053   -3.7988 C.3     1  UNL1        0.0076
      8 O           3.7529    2.4618   -4.6881 O.3     1  UNL1       -0.4535
      9 C           2.5354    3.0927   -4.5454 C.2     1  UNL1        0.3445
     10 O           1.9445    3.1148   -3.4684 O.2     1  UNL1       -0.2472
     11 C           2.0065    3.7010   -5.8820 C.3     1  UNL1        0.1902
     12 C           1.0772    2.7098   -6.6164 C.ar    1  UNL1       -0.0051
     13 C           1.2596    1.3162   -6.5039 C.ar    1  UNL1       -0.0553
     14 C           0.4727    0.4149   -7.2319 C.ar    1  UNL1       -0.0614
     15 C          -0.5092    0.8839   -8.0948 C.ar    1  UNL1       -0.0617
     16 C          -0.7129    2.2523   -8.2228 C.ar    1  UNL1       -0.0614
     17 C           0.0736    3.1508   -7.4997 C.ar    1  UNL1       -0.0553
     18 C           1.3765    5.1036   -5.6327 C.3     1  UNL1        0.0026
     19 C           0.1374    5.1733   -4.7347 C.3     1  UNL1       -0.0467
     20 C          -0.0288    6.6697   -4.5221 C.3     1  UNL1       -0.0527
     21 C           1.3956    7.1886   -4.3536 C.3     1  UNL1       -0.0527
     22 C           2.3152    6.1589   -5.0206 C.3     1  UNL1       -0.0467
     23 O           3.1246    3.9445   -6.7658 O.3     1  UNL1       -0.3730
     24 C           7.7519    1.1823   -4.3261 C.3     1  UNL1       -0.0414
     25 H           8.0590    1.1336   -1.7137 H       1  UNL1        0.0778
     26 H           7.1151   -0.3378   -2.1278 H       1  UNL1        0.0778
     27 H           6.3424    0.9951   -1.2114 H       1  UNL1        0.0778
     28 H           6.4472    3.3672   -4.0879 H       1  UNL1        0.0816
     29 H           7.0737    3.3019   -2.4073 H       1  UNL1        0.0816
     30 H           4.8705    2.6245   -1.5620 H       1  UNL1        0.0355
     31 H           4.4946    3.9048   -2.7257 H       1  UNL1        0.0355
     32 H           5.1376   -0.1370   -3.2675 H       1  UNL1        0.0852
     33 H           5.3857    0.6110   -4.8739 H       1  UNL1        0.0852
     34 H           2.0190    0.8911   -5.8536 H       1  UNL1        0.0621
     35 H           0.6287   -0.6559   -7.1273 H       1  UNL1        0.0618
     36 H          -1.1150    0.1867   -8.6694 H       1  UNL1        0.0618
     37 H          -1.4871    2.6251   -8.8918 H       1  UNL1        0.0618
     38 H          -0.1276    4.2086   -7.6540 H       1  UNL1        0.0621
     39 H           1.1047    5.5282   -6.6102 H       1  UNL1        0.0337
     40 H          -0.7505    4.7282   -5.1904 H       1  UNL1        0.0269
     41 H           0.2920    4.6980   -3.7632 H       1  UNL1        0.0269
     42 H          -0.6592    6.8994   -3.6581 H       1  UNL1        0.0265
     43 H          -0.4915    7.1225   -5.4071 H       1  UNL1        0.0265
     44 H           1.6479    7.2743   -3.2904 H       1  UNL1        0.0265
     45 H           1.5066    8.1832   -4.7978 H       1  UNL1        0.0265
     46 H           2.9913    5.7306   -4.2734 H       1  UNL1        0.0269
     47 H           2.9356    6.6285   -5.7909 H       1  UNL1        0.0269
     48 H           2.8172    3.7788   -7.6762 H       1  UNL1        0.2113
     49 H           8.6527    1.6861   -3.9638 H       1  UNL1        0.0778
     50 H           7.9263    0.1066   -4.4269 H       1  UNL1        0.0778
     51 H           7.4345    1.6102   -5.2809 H       1  UNL1        0.0778
@<TRIPOS>UNITY_ATOM_ATTR
2 1
charge 1
@<TRIPOS>BOND
     1     1     2    1
     2     1    25    1
     3     1    26    1
     4     1    27    1
     5     2     7    1
     6     2     3    1
     7     2    24    1
     8     3     4    1
     9     3    28    1
    10     3    29    1
    11     4     5    1
    12     4    30    1
    13     4    31    1
    14     5     6    1
    15     5     7    1
    16     5     8    1
    17     7    32    1
    18     7    33    1
    19     8     9    1
    20     9    10    2
    21    11     9    1
    22    11    12    1
    23    11    18    1
    24    11    23    1
    25    12    17   ar
    26    12    13   ar
    27    13    14   ar
    28    13    34    1
    29    14    15   ar
    30    14    35    1
    31    15    16   ar
    32    15    36    1
    33    16    17   ar
    34    16    37    1
    35    17    38    1
    36    18    22    1
    37    18    19    1
    38    18    39    1
    39    19    20    1
    40    19    40    1
    41    19    41    1
    42    20    21    1
    43    20    42    1
    44    20    43    1
    45    21    22    1
    46    21    44    1
    47    21    45    1
    48    22    46    1
    49    22    47    1
    50    23    48    1
    51    24    49    1
    52    24    50    1
    53    24    51    1
