@<TRIPOS>MOLECULE
ZINC03830432
 70 74 0 0 0
SMALL
GASTEIGER

@<TRIPOS>ATOM
      1 C           3.7528   10.0278    8.4018 C.3     1  UNL1       -0.0493
      2 C           2.3486   10.0095    7.8188 C.3     1  UNL1        0.0123
      3 N           1.9177    8.6775    7.3888 N.am    1  UNL1       -0.2925
      4 C           1.7323    7.6488    8.3861 C.3     1  UNL1        0.0314
      5 C           0.7918    6.5560    7.9094 C.3     1  UNL1        0.0401
      6 N           1.0972    6.0349    6.5823 N.am    1  UNL1       -0.2167
      7 C           1.6291    6.8967    5.6149 C.2     1  UNL1        0.3091
      8 O           1.7309    6.5968    4.4279 O.2     1  UNL1       -0.2645
      9 C           2.1360    8.2933    6.0634 C.2     1  UNL1        0.3022
     10 O           2.7047    9.0097    5.2491 O.2     1  UNL1       -0.2649
     11 C           0.6319    4.7471    6.3161 C.2     1  UNL1        0.3098
     12 O           0.1058    4.0614    7.1937 O.2     1  UNL1       -0.2522
     13 N           0.7665    4.2619    5.0389 N.am    1  UNL1       -0.2836
     14 CA          0.3883    2.8776    4.7197 C.3     1  UNL1        0.1261
     15 HA          0.4823    2.3082    5.6565 H       1  UNL1        0.0646
     16 C           1.4026    2.1810    3.7841 C.ar    1  UNL1       -0.0181
     17 C           2.7124    1.9432    4.2500 C.ar    1  UNL1       -0.0529
     18 C           3.5409    0.9949    3.6266 C.ar    1  UNL1       -0.0199
     19 C           3.0705    0.3031    2.5194 C.ar    1  UNL1        0.1169
     20 C           1.8512    0.6328    1.9480 C.ar    1  UNL1       -0.0199
     21 C           1.0341    1.5857    2.5644 C.ar    1  UNL1       -0.0529
     22 O           3.7642   -0.7571    2.0119 O.3     1  UNL1       -0.5068
     23 C          -1.1312    2.6362    4.3495 C.2     1  UNL1        0.2386
     24 O          -1.5422    1.5573    3.9149 O.2     1  UNL1       -0.2734
     25 N          -2.0240    3.6634    4.5846 N.am    1  UNL1       -0.2999
     26 CA         -3.4096    3.6258    3.9938 C.3     1  UNL1        0.1284
     27 HA         -3.3092    3.7408    2.9033 H       1  UNL1        0.0622
     28 C          -4.4724    2.5408    4.3760 C.3     1  UNL1        0.1042
     29 H          -4.6629    1.8275    3.5660 H       1  UNL1        0.0644
     30 N          -5.4251    3.6380    4.3955 N.am    1  UNL1       -0.2488
     31 C          -4.4809    4.6151    4.5355 C.2     1  UNL1        0.2440
     32 O          -4.4542    5.7357    4.9914 O.2     1  UNL1       -0.2731
     33 CA         -6.7341    3.5855    4.8363 C.2     1  UNL1        0.1271
     34 C          -7.1639    2.5412    5.6053 C.2     1  UNL1       -0.0210
     35 C          -6.2463    1.3668    5.9290 C.3     1  UNL1        0.0196
     36 S          -4.4694    1.7989    6.0282 S.3     1  UNL1       -0.1311
     37 C          -8.6133    2.4324    6.1068 C.3     1  UNL1        0.0253
     38 S          -8.7881    1.6970    7.7742 S.3     1  UNL1       -0.0801
     39 C         -10.4988    1.7574    8.0154 C.ar    1  UNL1        0.2094
     40 N         -11.3134    0.7269    7.9934 N.ar    1  UNL1       -0.1015
     41 N         -12.5377    1.2020    8.4100 N.ar    1  UNL1       -0.0222
     42 N         -12.4725    2.4945    8.7006 N.ar    1  UNL1       -0.0435
     43 N         -11.1956    2.8522    8.4416 N.ar    1  UNL1       -0.2233
     44 C         -10.7632    4.1869    8.7384 C.3     1  UNL1        0.0346
     45 C          -7.6899    4.7337    4.2128 C.2     1  UNL1        0.4006
     46 O          -8.8634    4.8089    4.6719 O.co2   1  UNL1       -0.2392
     47 H           3.7916    9.4767    9.3470 H       1  UNL1        0.0245
     48 H           4.0664   11.0573    8.6031 H       1  UNL1        0.0245
     49 H           4.4762    9.5746    7.7170 H       1  UNL1        0.0245
     50 H           1.6281   10.3774    8.5577 H       1  UNL1        0.0462
     51 H           2.3081   10.6954    6.9645 H       1  UNL1        0.0462
     52 H           1.3331    8.1034    9.2997 H       1  UNL1        0.0480
     53 H           2.7202    7.2316    8.6105 H       1  UNL1        0.0480
     54 H          -0.2341    6.9413    7.8628 H       1  UNL1        0.0485
     55 H           0.8052    5.7478    8.6498 H       1  UNL1        0.0485
     56 H           1.2173    4.8389    4.3300 H       1  UNL1        0.1513
     57 H           3.0744    2.4390    5.1465 H       1  UNL1        0.0622
     58 H           4.5228    0.7870    4.0352 H       1  UNL1        0.0654
     59 H           1.5009    0.0961    1.0717 H       1  UNL1        0.0654
     60 H           0.0583    1.7660    2.1187 H       1  UNL1        0.0622
     61 H           4.1961   -1.1992    2.7644 H       1  UNL1        0.2921
     62 H          -1.6327    4.5679    4.8229 H       1  UNL1        0.1496
     63 H          -6.3938    0.5868    5.1715 H       1  UNL1        0.0423
     64 H          -6.4661    0.9089    6.8928 H       1  UNL1        0.0423
     65 H          -9.0660    3.4091    6.2460 H       1  UNL1        0.0427
     66 H          -9.2136    1.8600    5.3915 H       1  UNL1        0.0427
     67 H         -11.5125    4.8891    8.3630 H       1  UNL1        0.0474
     68 H         -10.6724    4.2818    9.8241 H       1  UNL1        0.0474
     69 H          -9.8042    4.3960    8.2653 H       1  UNL1        0.0474
     70 OXT        -7.1797    5.3528    3.2312 O.co2   1  UNL1       -0.2392
@<TRIPOS>BOND
     1     1     2    1
     2     1    47    1
     3     1    48    1
     4     1    49    1
     5     2     3    1
     6     2    50    1
     7     2    51    1
     8     3     9   am
     9     3     4    1
    10     4     5    1
    11     4    52    1
    12     4    53    1
    13     5     6    1
    14     5    54    1
    15     5    55    1
    16     6     7   am
    17     6    11   am
    18     7     8    2
    19     7     9    1
    20     9    10    2
    21    11    12    2
    22    11    13   am
    23    13    56    1
    24    14    16    1
    25    14    23    1
    26    16    21   ar
    27    16    17   ar
    28    17    18   ar
    29    17    57    1
    30    18    19   ar
    31    18    58    1
    32    19    20   ar
    33    19    22    1
    34    20    21   ar
    35    20    59    1
    36    21    60    1
    37    22    61    1
    38    23    24    2
    39    23    25   am
    40    25    62    1
    41    26    31    1
    42    26    28    1
    43    28    29    1
    44    28    36    1
    45    28    30    1
    46    30    31   am
    47    30    33    1
    48    31    32    2
    49    33    34    2
    50    33    45    1
    51    34    35    1
    52    34    37    1
    53    35    36    1
    54    35    63    1
    55    35    64    1
    56    37    38    1
    57    37    65    1
    58    37    66    1
    59    38    39    1
    60    39    43   ar
    61    39    40   ar
    62    40    41   ar
    63    41    42   ar
    64    42    43   ar
    65    43    44    1
    66    44    67    1
    67    44    68    1
    68    44    69    1
    69    45    46   ar
    70    45    70   ar
    71    14    15    1
    72    14    13    1
    73    26    27    1
    74    26    25    1
