@<TRIPOS>MOLECULE
ZINC00120319
 27 28 0 0 0
SMALL
GASTEIGER

@<TRIPOS>ATOM
      1 C          -2.2426   -0.1210   -1.0862 C.ar    1  UNL1       -0.0253
      2 C          -0.9281   -0.4739   -0.8723 C.ar    1  UNL1        0.0327
      3 N           0.0283    0.3954   -0.4831 N.ar    1  UNL1       -0.2217
      4 C          -0.3869    1.6516   -0.3018 C.ar    1  UNL1        0.2347
      5 N          -1.6290    2.1144   -0.4870 N.ar    1  UNL1       -0.2217
      6 C          -2.5327    1.2109   -0.9087 C.ar    1  UNL1        0.0327
      7 N           0.3696    2.4741    0.5285 N.pl3   1  UNL1       -0.1836
      8 S           1.7318    3.1843   -0.1063 S.O2    1  UNL1        0.0746
      9 O           1.6331    3.2966   -1.5473 O.2     1  UNL1       -0.1499
     10 O           1.9478    4.3631    0.7101 O.2     1  UNL1       -0.1499
     11 C           3.0397    2.0514    0.2867 C.ar    1  UNL1        0.1087
     12 C           3.2357    0.9315   -0.5247 C.ar    1  UNL1       -0.0333
     13 C           4.2346    0.0131   -0.2024 C.ar    1  UNL1       -0.0392
     14 C           5.0858    0.2264    0.8885 C.ar    1  UNL1        0.0247
     15 C           4.8977    1.3682    1.6746 C.ar    1  UNL1       -0.0392
     16 C           3.8966    2.2960    1.3624 C.ar    1  UNL1       -0.0333
     17 N           5.9405   -0.7938    1.3182 N.pl3   1  UNL1       -0.3580
     18 H          -3.0013   -0.8428   -1.3576 H       1  UNL1        0.0648
     19 H          -0.6068   -1.5072   -0.9774 H       1  UNL1        0.0831
     20 H          -3.5361    1.5962   -1.0676 H       1  UNL1        0.0831
     21 H          -0.2194    3.1692    0.9701 H       1  UNL1        0.1767
     22 H           2.5946    0.7533   -1.3852 H       1  UNL1        0.0638
     23 H           4.3329   -0.8870   -0.8038 H       1  UNL1        0.0636
     24 H           5.5239    1.5386    2.5453 H       1  UNL1        0.0636
     25 H           3.7866    3.1853    1.9774 H       1  UNL1        0.0638
     26 H           6.6881   -0.4904    1.9328 H       1  UNL1        0.1423
     27 H           6.2638   -1.4073    0.5772 H       1  UNL1        0.1423
@<TRIPOS>BOND
     1     1     6   ar
     2     1     2   ar
     3     1    18    1
     4     2     3   ar
     5     2    19    1
     6     3     4   ar
     7     4     5   ar
     8     4     7    1
     9     5     6   ar
    10     6    20    1
    11     7     8    1
    12     7    21    1
    13     8     9    2
    14     8    10    2
    15     8    11    1
    16    11    16   ar
    17    11    12   ar
    18    12    13   ar
    19    12    22    1
    20    13    14   ar
    21    13    23    1
    22    14    15   ar
    23    14    17    1
    24    15    16   ar
    25    15    24    1
    26    16    25    1
    27    17    26    1
    28    17    27    1
