@<TRIPOS>MOLECULE
ZINC03812841
 65 67 0 0 0
SMALL
GASTEIGER

@<TRIPOS>ATOM
      1 C           4.1256    2.1804    0.1286 C.3     1  UNL1       -0.0645
      2 C           3.8595    0.8669    0.8579 C.3     1  UNL1       -0.0432
      3 C           4.6802   -0.3085    0.3081 C.3     1  UNL1        0.0534
      4 H           4.4339   -1.2136    0.8817 H       1  UNL1        0.0410
      5 C           6.1866   -0.1085    0.4488 C.3     1  UNL1       -0.0523
      6 C           4.1723   -0.5684   -1.0946 C.2     1  UNL1        0.3102
      7 O           2.9969   -0.8190   -1.3217 O.2     1  UNL1       -0.2505
      8 O           5.1206   -0.4680   -2.0534 O.3     1  UNL1       -0.4605
      9 C           4.7179   -0.8396   -3.3932 C.3     1  UNL1        0.1106
     10 H           3.6317   -0.7638   -3.5150 H       1  UNL1        0.0740
     11 C           5.3165    0.1614   -4.3940 C.3     1  UNL1       -0.0090
     12 C           6.8488    0.1811   -4.3917 C.3     1  UNL1       -0.0218
     13 H           7.1764    0.5563   -5.3706 H       1  UNL1        0.0342
     14 C           7.4250   -1.1976   -4.2022 C.2     1  UNL1       -0.0775
     15 C           6.7123   -2.2979   -3.8788 C.2     1  UNL1       -0.0444
     16 C           5.1915   -2.2947   -3.6968 C.3     1  UNL1        0.0243
     17 H           4.7823   -2.5719   -4.6816 H       1  UNL1        0.0388
     18 C           4.6252   -3.3585   -2.6582 C.3     1  UNL1       -0.0247
     19 H           4.8232   -2.9631   -1.6548 H       1  UNL1        0.0313
     20 C           5.3963   -4.7219   -2.6972 C.3     1  UNL1       -0.0219
     21 H           5.4865   -5.0291   -1.6440 H       1  UNL1        0.0343
     22 C           6.8190   -4.6355   -3.1862 C.2     1  UNL1       -0.0806
     23 C           7.3955   -3.5443   -3.7124 C.2     1  UNL1       -0.0621
     24 C           4.7143   -5.8914   -3.4127 C.3     1  UNL1       -0.0587
     25 C           3.0703   -3.4738   -2.8070 C.3     1  UNL1       -0.0457
     26 C           2.2455   -4.3838   -1.8752 C.3     1  UNL1       -0.0153
     27 C           2.1871   -4.1315   -0.3480 C.3     1  UNL1        0.1054
     28 H           3.2053   -4.0421    0.0478 H       1  UNL1        0.0734
     29 C           1.4849   -5.3388    0.2962 C.3     1  UNL1        0.0109
     30 C           0.6670   -5.0445    1.5364 C.3     1  UNL1        0.0686
     31 H          -0.0789   -5.8409    1.6628 H       1  UNL1        0.0600
     32 C          -0.0651   -3.7275    1.4847 C.3     1  UNL1        0.0710
     33 C           0.7832   -2.6071    0.9738 C.2     1  UNL1        0.3098
     34 O           0.6581   -1.4595    1.4014 O.2     1  UNL1       -0.2507
     35 O           1.5326   -2.8723   -0.1168 O.3     1  UNL1       -0.4612
     36 O           1.4972   -5.0898    2.6922 O.3     1  UNL1       -0.3911
     37 C           7.4146    1.1365   -3.3370 C.3     1  UNL1       -0.0588
     38 H           5.0829    2.6071    0.4410 H       1  UNL1        0.0230
     39 H           3.3382    2.9034    0.3614 H       1  UNL1        0.0230
     40 H           4.1460    2.0565   -0.9606 H       1  UNL1        0.0230
     41 H           4.0443    0.9886    1.9280 H       1  UNL1        0.0270
     42 H           2.7910    0.6298    0.7536 H       1  UNL1        0.0270
     43 H           6.7393   -0.9606    0.0368 H       1  UNL1        0.0238
     44 H           6.5360    0.7899   -0.0671 H       1  UNL1        0.0238
     45 H           6.4616   -0.0161    1.5056 H       1  UNL1        0.0238
     46 H           4.9302    1.1693   -4.1963 H       1  UNL1        0.0307
     47 H           4.9718   -0.1102   -5.4018 H       1  UNL1        0.0307
     48 H           8.5052   -1.2627   -4.3250 H       1  UNL1        0.0578
     49 H           7.4299   -5.5251   -3.0778 H       1  UNL1        0.0575
     50 H           8.4467   -3.6023   -3.9987 H       1  UNL1        0.0617
     51 H           4.2021   -6.5197   -2.6752 H       1  UNL1        0.0235
     52 H           3.9864   -5.5755   -4.1615 H       1  UNL1        0.0235
     53 H           5.4254   -6.5534   -3.9186 H       1  UNL1        0.0235
     54 H           2.6052   -2.4880   -2.7804 H       1  UNL1        0.0269
     55 H           2.8632   -3.8060   -3.8333 H       1  UNL1        0.0269
     56 H           1.2101   -4.2929   -2.2390 H       1  UNL1        0.0301
     57 H           2.5246   -5.4234   -2.0503 H       1  UNL1        0.0301
     58 H           2.2476   -6.0974    0.5180 H       1  UNL1        0.0326
     59 H           0.8090   -5.7982   -0.4359 H       1  UNL1        0.0326
     60 H          -0.9457   -3.7912    0.8353 H       1  UNL1        0.0403
     61 H          -0.4075   -3.4597    2.4928 H       1  UNL1        0.0403
     62 H           1.8529   -5.9934    2.7675 H       1  UNL1        0.2098
     63 H           7.2428    0.7770   -2.3201 H       1  UNL1        0.0235
     64 H           8.4975    1.2543   -3.4573 H       1  UNL1        0.0235
     65 H           6.9634    2.1301   -3.4238 H       1  UNL1        0.0235
@<TRIPOS>BOND
     1     1     2    1
     2     1    38    1
     3     1    39    1
     4     1    40    1
     5     2    41    1
     6     2    42    1
     7     3     5    1
     8     3     6    1
     9     5    43    1
    10     5    44    1
    11     5    45    1
    12     6     7    2
    13     6     8    1
    14     9    16    1
    15     9    11    1
    16    11    12    1
    17    11    46    1
    18    11    47    1
    19    12    13    1
    20    12    14    1
    21    12    37    1
    22    14    15    2
    23    14    48    1
    24    15    23    1
    25    15    16    1
    26    16    17    1
    27    16    18    1
    28    18    19    1
    29    18    20    1
    30    18    25    1
    31    20    21    1
    32    20    22    1
    33    20    24    1
    34    22    23    2
    35    22    49    1
    36    23    50    1
    37    24    51    1
    38    24    52    1
    39    24    53    1
    40    25    26    1
    41    25    54    1
    42    25    55    1
    43    26    27    1
    44    26    56    1
    45    26    57    1
    46    27    28    1
    47    27    35    1
    48    27    29    1
    49    29    30    1
    50    29    58    1
    51    29    59    1
    52    30    31    1
    53    30    32    1
    54    30    36    1
    55    32    33    1
    56    32    60    1
    57    32    61    1
    58    33    34    2
    59    33    35    1
    60    36    62    1
    61    37    63    1
    62    37    64    1
    63    37    65    1
    64     3     4    1
    65     3     2    1
    66     9    10    1
    67     9     8    1
