@<TRIPOS>MOLECULE
ZINC01530855
 33 34 0 0 0
SMALL
GASTEIGER

@<TRIPOS>ATOM
      1 C           3.1372    0.4378    1.4793 C.3     1  UNL1       -0.0640
      2 C           2.4353    1.7549    1.7933 C.3     1  UNL1       -0.0378
      3 C           0.8694    1.7074    1.7658 C.3     1  UNL1        0.0724
      4 C           0.4023    0.7112    2.8632 C.3     1  UNL1       -0.0267
      5 C          -1.0771    0.8545    3.1995 C.3     1  UNL1        0.0256
      6 C          -1.3782    2.2490    3.6612 C.2     1  UNL1        0.2193
      7 O          -2.3047    2.5068    4.4234 O.2     1  UNL1       -0.2754
      8 N          -0.6058    3.2382    3.1149 N.am    1  UNL1       -0.2557
      9 C           0.3933    3.1308    2.1775 C.2     1  UNL1        0.2297
     10 O           0.8504    4.1655    1.6879 O.2     1  UNL1       -0.2744
     11 C           0.3766    1.3842    0.3354 C.ar    1  UNL1       -0.0323
     12 C          -0.3822    0.2468    0.0250 C.ar    1  UNL1       -0.0558
     13 C          -0.8497    0.0100   -1.2778 C.ar    1  UNL1       -0.0408
     14 C          -0.5774    0.9020   -2.3112 C.ar    1  UNL1        0.0246
     15 C           0.2714    1.9742   -2.0428 C.ar    1  UNL1       -0.0408
     16 C           0.7185    2.2267   -0.7398 C.ar    1  UNL1       -0.0558
     17 N          -0.9462    0.5944   -3.6232 N.pl3   1  UNL1       -0.3580
     18 H           4.2217    0.5887    1.4813 H       1  UNL1        0.0230
     19 H           2.8583    0.0545    0.4937 H       1  UNL1        0.0230
     20 H           2.9134   -0.3271    2.2283 H       1  UNL1        0.0230
     21 H           2.7658    2.0865    2.7882 H       1  UNL1        0.0276
     22 H           2.8158    2.5167    1.1011 H       1  UNL1        0.0276
     23 H           0.9714    0.8966    3.7849 H       1  UNL1        0.0283
     24 H           0.6136   -0.3267    2.5827 H       1  UNL1        0.0283
     25 H          -1.3331    0.1570    4.0042 H       1  UNL1        0.0359
     26 H          -1.7316    0.6403    2.3505 H       1  UNL1        0.0359
     27 H          -0.8657    4.1817    3.3675 H       1  UNL1        0.1575
     28 H          -0.6359   -0.4993    0.7683 H       1  UNL1        0.0621
     29 H          -1.4313   -0.8870   -1.4711 H       1  UNL1        0.0636
     30 H           0.5875    2.6342   -2.8453 H       1  UNL1        0.0636
     31 H           1.3499    3.0999   -0.5862 H       1  UNL1        0.0621
     32 H          -0.9798    1.4045   -4.2342 H       1  UNL1        0.1423
     33 H          -1.7932    0.0372   -3.6846 H       1  UNL1        0.1423
@<TRIPOS>BOND
     1     1     2    1
     2     1    18    1
     3     1    19    1
     4     1    20    1
     5     2    21    1
     6     2    22    1
     7     3     9    1
     8     3     4    1
     9     4     5    1
    10     4    23    1
    11     4    24    1
    12     5     6    1
    13     5    25    1
    14     5    26    1
    15     6     7    2
    16     6     8   am
    17     8     9   am
    18     8    27    1
    19     9    10    2
    20    11    16   ar
    21    11    12   ar
    22    12    13   ar
    23    12    28    1
    24    13    14   ar
    25    13    29    1
    26    14    15   ar
    27    14    17    1
    28    15    16   ar
    29    15    30    1
    30    16    31    1
    31    17    32    1
    32    17    33    1
    33     3    11    1
    34     3     2    1
