@<TRIPOS>MOLECULE
ZINC03830434
 55 58 0 0 0
SMALL
GASTEIGER

@<TRIPOS>ATOM
      1 C           3.4231    1.5677    7.1728 C.ar    1  UNL1       -0.0615
      2 C           4.3781    1.6449    6.1750 C.ar    1  UNL1       -0.0613
      3 C           4.3382    0.7394    5.1175 C.ar    1  UNL1       -0.0533
      4 C           3.3226   -0.2416    5.0048 C.ar    1  UNL1        0.0006
      5 C           2.2558   -0.2140    5.9373 C.ar    1  UNL1       -0.0304
      6 C           2.3757    0.6556    7.0513 C.ar    1  UNL1       -0.0577
      7 C           0.9195   -0.9554    5.8860 C.3     1  UNL1        0.0495
      8 C           0.6013   -1.8051    4.6768 C.2     1  UNL1        0.2180
      9 O           1.2064   -2.8668    4.5259 O.2     1  UNL1       -0.2754
     10 N          -0.2992   -1.2756    3.7752 N.am    1  UNL1       -0.3015
     11 CA         -0.7682   -1.9746    2.5045 C.3     1  UNL1        0.1283
     12 HA         -1.8419   -1.7970    2.3756 H       1  UNL1        0.0622
     13 C           0.0247   -1.7810    1.1686 C.3     1  UNL1        0.1042
     14 H          -0.6124   -1.7225    0.2783 H       1  UNL1        0.0644
     15 N           0.5582   -3.0977    1.4015 N.am    1  UNL1       -0.2488
     16 C          -0.3729   -3.4798    2.3174 C.2     1  UNL1        0.2440
     17 O          -0.6521   -4.5026    2.8950 O.2     1  UNL1       -0.2731
     18 CA          1.3996   -3.7079    0.5239 C.2     1  UNL1        0.1271
     19 C           2.3330   -2.9585   -0.1251 C.2     1  UNL1       -0.0210
     20 C           2.4212   -1.4537    0.0051 C.3     1  UNL1        0.0196
     21 S           1.3606   -0.5821    1.1852 S.3     1  UNL1       -0.1311
     22 C           3.3869   -3.6260   -1.0254 C.3     1  UNL1        0.0253
     23 S           4.3971   -2.5221   -2.0692 S.3     1  UNL1       -0.0801
     24 C           3.2468   -1.9658   -3.2282 C.ar    1  UNL1        0.2101
     25 N           2.4186   -2.7246   -3.9096 N.ar    1  UNL1       -0.1015
     26 N           1.6089   -1.8675   -4.6088 N.ar    1  UNL1       -0.0222
     27 N           1.9106   -0.6038   -4.3467 N.ar    1  UNL1       -0.0427
     28 N           2.9830   -0.6487   -3.5159 N.ar    1  UNL1       -0.2092
     29 C           3.3998    0.5690   -2.8693 C.3     1  UNL1        0.1470
     30 C           4.8935    0.7362   -2.8518 C.2     1  UNL1        0.3771
     31 O           5.4550    0.8459   -3.9751 O.co2   1  UNL1       -0.2443
     32 C           1.2466   -5.2676    0.2751 C.2     1  UNL1        0.4006
     33 O           2.3308   -5.9133    0.3052 O.co2   1  UNL1       -0.2392
     34 C           3.4771   -1.1985    3.8467 C.3     1  UNL1       -0.0092
     35 H           3.4691    2.2414    8.0251 H       1  UNL1        0.0618
     36 H           5.1573    2.4028    6.2167 H       1  UNL1        0.0618
     37 H           5.1107    0.8289    4.3512 H       1  UNL1        0.0622
     38 H           1.6159    0.6501    7.8340 H       1  UNL1        0.0621
     39 H           0.8636   -1.6227    6.7569 H       1  UNL1        0.0407
     40 H           0.1149   -0.2180    6.0068 H       1  UNL1        0.0407
     41 H          -0.7647   -0.4078    4.0163 H       1  UNL1        0.1495
     42 H           2.1253   -1.0349   -0.9509 H       1  UNL1        0.0423
     43 H           3.4483   -1.1579    0.2442 H       1  UNL1        0.0423
     44 H           4.1214   -4.0988   -0.3602 H       1  UNL1        0.0427
     45 H           2.9617   -4.4026   -1.6672 H       1  UNL1        0.0427
     46 H           2.9445    1.4183   -3.3906 H       1  UNL1        0.0628
     47 H           3.0000    0.5759   -1.8527 H       1  UNL1        0.0628
     48 H           2.5923   -1.1615    3.2405 H       1  UNL1        0.0866
     49 H           4.3264   -0.9311    3.2098 H       1  UNL1        0.0866
     50 H           4.3584   -2.7646    4.9472 H       1  UNL1        0.1997
     51 H           2.7607   -3.0159    4.4966 H       1  UNL1        0.1997
     52 O           5.3987    0.8133   -1.6914 O.co2   1  UNL1       -0.2443
     53 OXT         0.0603   -5.6387    0.0541 O.co2   1  UNL1       -0.2392
     54 N           3.6753   -2.6123    4.2062 N.4     1  UNL1        0.2219
     55 H           3.9214   -3.1675    3.3760 H       1  UNL1        0.1997
@<TRIPOS>UNITY_ATOM_ATTR
54 1
charge 1
@<TRIPOS>BOND
     1     1     6   ar
     2     1     2   ar
     3     1    35    1
     4     2     3   ar
     5     2    36    1
     6     3     4   ar
     7     3    37    1
     8     4     5   ar
     9     4    34    1
    10     5     6   ar
    11     5     7    1
    12     6    38    1
    13     7     8    1
    14     7    39    1
    15     7    40    1
    16     8     9    2
    17     8    10   am
    18    10    41    1
    19    11    16    1
    20    11    13    1
    21    13    14    1
    22    13    21    1
    23    13    15    1
    24    15    16   am
    25    15    18    1
    26    16    17    2
    27    18    19    2
    28    18    32    1
    29    19    20    1
    30    19    22    1
    31    20    21    1
    32    20    42    1
    33    20    43    1
    34    22    23    1
    35    22    44    1
    36    22    45    1
    37    23    24    1
    38    24    28   ar
    39    24    25   ar
    40    25    26   ar
    41    26    27   ar
    42    27    28   ar
    43    28    29    1
    44    29    30    1
    45    29    46    1
    46    29    47    1
    47    30    31   ar
    48    30    52   ar
    49    32    33   ar
    50    32    53   ar
    51    34    48    1
    52    34    49    1
    53    34    54    1
    54    50    54    1
    55    51    54    1
    56    54    55    1
    57    11    12    1
    58    11    10    1
