@<TRIPOS>MOLECULE
ZINC00000133
 29 30 0 0 0
SMALL
GASTEIGER

@<TRIPOS>ATOM
      1 C           0.8959    0.0919    0.3239 C.3     1  UNL1        0.0052
      2 N           0.3720    1.4186    0.0600 N.am    1  UNL1       -0.2790
      3 C           0.7425    2.4963    0.9931 C.3     1  UNL1        0.1693
      4 H           1.7123    2.2167    1.4279 H       1  UNL1        0.0797
      5 S           1.0702    4.0660    0.1588 S.O2    1  UNL1       -0.0073
      6 O           2.1675    3.8668   -0.7747 O.2     1  UNL1       -0.1722
      7 O           1.1123    5.1612    1.1054 O.2     1  UNL1       -0.1722
      8 C          -0.4134    4.1943   -0.7903 C.3     1  UNL1        0.0764
      9 C          -0.6568    2.9483   -1.6145 C.3     1  UNL1        0.0436
     10 C          -0.5803    1.5923   -0.9269 C.2     1  UNL1        0.2185
     11 O          -1.2620    0.6582   -1.3462 O.2     1  UNL1       -0.2755
     12 C          -0.2540    2.6914    2.1449 C.ar    1  UNL1       -0.0057
     13 C          -1.6268    2.3953    2.0389 C.ar    1  UNL1       -0.0538
     14 C          -2.4913    2.5309    3.1346 C.ar    1  UNL1       -0.0430
     15 C          -1.9957    2.9679    4.3603 C.ar    1  UNL1        0.0410
     16 C          -0.6492    3.2897    4.4904 C.ar    1  UNL1       -0.0430
     17 C           0.2117    3.1551    3.3927 C.ar    1  UNL1       -0.0538
     18 CL         -3.0493    3.0863    5.7140 Cl      1  UNL1       -0.0835
     19 H           0.6481   -0.5972   -0.4874 H       1  UNL1        0.0429
     20 H           0.4945   -0.2870    1.2673 H       1  UNL1        0.0429
     21 H           1.9869    0.1626    0.3860 H       1  UNL1        0.0429
     22 H          -0.2997    5.0659   -1.4449 H       1  UNL1        0.0505
     23 H          -1.2363    4.3929   -0.1003 H       1  UNL1        0.0505
     24 H           0.0695    2.9025   -2.4352 H       1  UNL1        0.0374
     25 H          -1.6506    3.0308   -2.0700 H       1  UNL1        0.0374
     26 H          -2.0673    2.0275    1.1155 H       1  UNL1        0.0622
     27 H          -3.5414    2.2783    3.0257 H       1  UNL1        0.0632
     28 H          -0.2594    3.6398    5.4445 H       1  UNL1        0.0632
     29 H           1.2601    3.4214    3.5293 H       1  UNL1        0.0622
@<TRIPOS>BOND
     1     1     2    1
     2     1    19    1
     3     1    20    1
     4     1    21    1
     5     2    10   am
     6     2     3    1
     7     3     5    1
     8     5     6    2
     9     5     7    2
    10     5     8    1
    11     8     9    1
    12     8    22    1
    13     8    23    1
    14     9    10    1
    15     9    24    1
    16     9    25    1
    17    10    11    2
    18    12    17   ar
    19    12    13   ar
    20    13    14   ar
    21    13    26    1
    22    14    15   ar
    23    14    27    1
    24    15    16   ar
    25    15    18    1
    26    16    17   ar
    27    16    28    1
    28    17    29    1
    29     3    12    1
    30     3     4    1
