@<TRIPOS>MOLECULE
ZINC02041380
 49 50 0 0 0
SMALL
GASTEIGER

@<TRIPOS>ATOM
      1 C          -1.8029    0.5596   -3.3520 C.3     1  UNL1       -0.0413
      2 N          -0.3614    0.7822   -2.8672 N.4     1  UNL1        0.2412
      3 C          -0.1015    2.2890   -2.6768 C.3     1  UNL1       -0.0302
      4 C           0.1297    2.8086   -4.0838 C.3     1  UNL1       -0.0077
      5 C           0.8112    1.6740   -4.8257 C.3     1  UNL1       -0.0077
      6 C           0.6576    0.4252   -3.9669 C.3     1  UNL1       -0.0302
      7 C          -0.0859    0.0182   -1.5593 C.3     1  UNL1       -0.0303
      8 C          -0.3096   -1.4950   -1.7113 C.3     1  UNL1       -0.0123
      9 C           0.0531   -2.3426   -0.4795 C.3     1  UNL1       -0.0434
     10 C          -0.7119   -2.0782    0.8329 C.3     1  UNL1       -0.0123
     11 C          -2.2520   -2.2009    0.7736 C.3     1  UNL1       -0.0303
     12 N          -2.9992   -2.0904    2.1880 N.4     1  UNL1        0.2412
     13 C          -3.3235   -2.0035    3.7711 C.3     1  UNL1       -0.0302
     14 C          -4.1646   -0.7763    3.9854 C.3     1  UNL1       -0.0077
     15 C          -3.4272    0.2447    3.1920 C.3     1  UNL1       -0.0077
     16 C          -2.4303   -0.5653    2.3902 C.3     1  UNL1       -0.0302
     17 C          -2.5474   -3.6506    2.5255 C.3     1  UNL1       -0.0413
     18 H          -2.4329    0.3613   -2.4796 H       1  UNL1        0.0778
     19 H          -1.8209   -0.2944   -4.0339 H       1  UNL1        0.0778
     20 H          -2.1693    1.4545   -3.8593 H       1  UNL1        0.0778
     21 H           0.8027    2.3961   -2.0684 H       1  UNL1        0.0815
     22 H          -0.9580    2.7415   -2.1673 H       1  UNL1        0.0815
     23 H          -0.8218    3.0520   -4.5712 H       1  UNL1        0.0319
     24 H           0.7282    3.7248   -4.0900 H       1  UNL1        0.0319
     25 H           0.3622    1.5301   -5.8141 H       1  UNL1        0.0319
     26 H           1.8735    1.8899   -4.9865 H       1  UNL1        0.0319
     27 H           0.3087   -0.4491   -4.5244 H       1  UNL1        0.0815
     28 H           1.6053    0.1884   -3.4727 H       1  UNL1        0.0815
     29 H           0.9478    0.2384   -1.2620 H       1  UNL1        0.0815
     30 H          -0.7615    0.4403   -0.8058 H       1  UNL1        0.0815
     31 H          -1.3484   -1.7047   -1.9833 H       1  UNL1        0.0317
     32 H           0.3103   -1.8599   -2.5386 H       1  UNL1        0.0317
     33 H          -0.0652   -3.3979   -0.7402 H       1  UNL1        0.0269
     34 H           1.1271   -2.2001   -0.2795 H       1  UNL1        0.0269
     35 H          -0.2953   -2.7585    1.5896 H       1  UNL1        0.0317
     36 H          -0.3903   -1.0660    1.1459 H       1  UNL1        0.0317
     37 H          -2.6931   -1.4291    0.1300 H       1  UNL1        0.0815
     38 H          -2.5834   -3.1124    0.2604 H       1  UNL1        0.0815
     39 H          -2.3713   -1.9491    4.3272 H       1  UNL1        0.0815
     40 H          -3.9105   -2.8618    4.1183 H       1  UNL1        0.0815
     41 H          -5.1767   -0.9279    3.5987 H       1  UNL1        0.0319
     42 H          -4.2367   -0.5080    5.0445 H       1  UNL1        0.0319
     43 H          -4.1183    0.8138    2.5584 H       1  UNL1        0.0319
     44 H          -2.8992    0.9614    3.8257 H       1  UNL1        0.0319
     45 H          -2.3510   -0.0482    1.4258 H       1  UNL1        0.0815
     46 H          -1.4539   -0.6340    2.8813 H       1  UNL1        0.0815
     47 H          -3.4828   -4.1854    2.7522 H       1  UNL1        0.0778
     48 H          -2.1243   -4.1968    1.6812 H       1  UNL1        0.0778
     49 H          -1.8129   -3.6630    3.3424 H       1  UNL1        0.0778
@<TRIPOS>UNITY_ATOM_ATTR
2 1
charge 1
12 1
charge 1
@<TRIPOS>BOND
     1     1     2    1
     2     1    18    1
     3     1    19    1
     4     1    20    1
     5     2     6    1
     6     2     3    1
     7     2     7    1
     8     3     4    1
     9     3    21    1
    10     3    22    1
    11     4     5    1
    12     4    23    1
    13     4    24    1
    14     5     6    1
    15     5    25    1
    16     5    26    1
    17     6    27    1
    18     6    28    1
    19     7     8    1
    20     7    29    1
    21     7    30    1
    22     8     9    1
    23     8    31    1
    24     8    32    1
    25     9    10    1
    26     9    33    1
    27     9    34    1
    28    10    11    1
    29    10    35    1
    30    10    36    1
    31    11    12    1
    32    11    37    1
    33    11    38    1
    34    12    16    1
    35    12    13    1
    36    12    17    1
    37    13    14    1
    38    13    39    1
    39    13    40    1
    40    14    15    1
    41    14    41    1
    42    14    42    1
    43    15    16    1
    44    15    43    1
    45    15    44    1
    46    16    45    1
    47    16    46    1
    48    17    47    1
    49    17    48    1
    50    17    49    1
