@<TRIPOS>MOLECULE
ZINC01530652
 51 52 0 0 0
SMALL
GASTEIGER

@<TRIPOS>ATOM
      1 C           1.9806    3.4449    1.0268 C.3     1  UNL1       -0.0245
      2 C           0.5640    2.9676    0.7855 C.3     1  UNL1       -0.0347
      3 N           0.3358    2.3355   -0.5712 N.4     1  UNL1        0.2367
      4 C           0.5257    0.8362   -0.6756 C.3     1  UNL1       -0.0318
      5 C           1.7913    0.3328   -1.3783 C.3     1  UNL1       -0.0109
      6 C           3.1173    0.3067   -0.6107 C.3     1  UNL1       -0.0300
      7 C           3.1103   -0.4360    0.7373 C.3     1  UNL1        0.0180
      8 H           2.3131    0.0017    1.3420 H       1  UNL1        0.0495
      9 C           2.8209   -1.9380    0.6084 C.3     1  UNL1       -0.0467
     10 N           4.4175   -0.2022    1.3993 N.pl3   1  UNL1       -0.3409
     11 C           4.5918   -0.6314    2.7179 C.2     1  UNL1        0.0342
     12 C           5.6801   -1.5703    2.9893 C.2     1  UNL1       -0.0270
     13 C           5.6279   -2.3454    4.0861 C.2     1  UNL1       -0.0079
     14 N           4.6030   -2.2204    4.9891 N.pl3   1  UNL1       -0.3345
     15 C           3.7521   -1.1716    4.9497 C.3     1  UNL1        0.1080
     16 C           3.8124   -0.2689    3.7826 C.2     1  UNL1        0.0033
     17 C           2.9974    0.9413    3.8492 C.2     1  UNL1       -0.0530
     18 C           2.4782    1.3071    5.0425 C.2     1  UNL1       -0.0432
     19 C           2.0873    0.2238    5.9634 C.2     1  UNL1        0.0395
     20 C           2.6743   -0.9866    5.9119 C.2     1  UNL1       -0.0355
     21 CL          0.7412    0.5438    6.9838 Cl      1  UNL1       -0.0838
     22 C           0.7193    3.1989   -1.7712 C.3     1  UNL1       -0.0082
     23 C          -0.1062    2.7651   -2.9937 C.3     1  UNL1        0.0841
     24 O          -1.4699    2.6636   -2.5767 O.3     1  UNL1       -0.3898
     25 H           2.7089    2.6408    0.9512 H       1  UNL1        0.0281
     26 H           2.0574    3.8474    2.0441 H       1  UNL1        0.0281
     27 H           2.2685    4.2472    0.3418 H       1  UNL1        0.0281
     28 H           0.2540    2.2443    1.5467 H       1  UNL1        0.0812
     29 H          -0.1203    3.8223    0.8455 H       1  UNL1        0.0812
     30 H           0.3861    0.4023    0.3178 H       1  UNL1        0.0814
     31 H          -0.3302    0.4933   -1.2717 H       1  UNL1        0.0814
     32 H           1.5778   -0.6951   -1.6983 H       1  UNL1        0.0317
     33 H           1.9575    0.8748   -2.3133 H       1  UNL1        0.0317
     34 H           3.8730   -0.1539   -1.2621 H       1  UNL1        0.0285
     35 H           3.4586    1.3362   -0.4686 H       1  UNL1        0.0285
     36 H           3.7262   -2.5200    0.4061 H       1  UNL1        0.0247
     37 H           2.3980   -2.3150    1.5487 H       1  UNL1        0.0247
     38 H           2.0899   -2.1634   -0.1715 H       1  UNL1        0.0247
     39 H           5.1750   -0.5662    0.8152 H       1  UNL1        0.1463
     40 H           6.5584   -1.5752    2.3509 H       1  UNL1        0.0648
     41 H           6.4243   -3.0209    4.3637 H       1  UNL1        0.0779
     42 H           2.6260    1.3916    2.9440 H       1  UNL1        0.0622
     43 H           3.1794    1.9050    5.6546 H       1  UNL1        0.0632
     44 H           2.3192   -1.8268    6.4945 H       1  UNL1        0.0612
     45 H           0.4049    4.2151   -1.5012 H       1  UNL1        0.0837
     46 H           1.7961    3.1642   -1.9173 H       1  UNL1        0.0837
     47 H          -0.0114    3.4812   -3.8142 H       1  UNL1        0.0610
     48 H           0.2084    1.7842   -3.3644 H       1  UNL1        0.0610
     49 H          -1.9483    3.4348   -2.9399 H       1  UNL1        0.2096
     50 H          -0.6980    2.3885   -0.6498 H       1  UNL1        0.2034
     51 H           4.6142   -2.8166    5.8159 H       1  UNL1        0.1468
@<TRIPOS>UNITY_ATOM_ATTR
3 1
charge 1
@<TRIPOS>BOND
     1     1     2    1
     2     1    25    1
     3     1    26    1
     4     1    27    1
     5     2    28    1
     6     2    29    1
     7     3    22    1
     8     3    50    1
     9     4     5    1
    10     4    30    1
    11     4    31    1
    12     5     6    1
    13     5    32    1
    14     5    33    1
    15     6     7    1
    16     6    34    1
    17     6    35    1
    18     7     8    1
    19     7     9    1
    20     7    10    1
    21     9    36    1
    22     9    37    1
    23     9    38    1
    24    10    11    1
    25    10    39    1
    26    11    16    2
    27    11    12    1
    28    12    13    2
    29    12    40    1
    30    13    14    1
    31    13    41    1
    32    14    15    1
    33    14    51    1
    34    15    20    1
    35    15    16    1
    36    16    17    1
    37    17    18    2
    38    17    42    1
    39    18    19    1
    40    18    43    1
    41    19    20    2
    42    19    21    1
    43    20    44    1
    44    22    23    1
    45    22    45    1
    46    22    46    1
    47    23    24    1
    48    23    47    1
    49    23    48    1
    50    24    49    1
    51     3     4    1
    52     3     2    1
