@<TRIPOS>MOLECULE
ZINC00001894
 44 46 0 0 0
SMALL
GASTEIGER

@<TRIPOS>ATOM
      1 C           1.4427   -0.5818    0.3065 C.3     1  UNL1       -0.0471
      2 C           0.3963   -0.2567    1.3612 C.3     1  UNL1        0.0205
      3 N           0.8967    0.7334    2.3302 N.ar    1  UNL1       -0.3459
      4 C           0.5552    2.0694    2.1861 C.ar    1  UNL1        0.0229
      5 C           0.8189    3.0694    3.0414 C.ar    1  UNL1        0.1263
      6 C           1.5801    2.7292    4.2606 C.ar    1  UNL1        0.2036
      7 O           1.9972    3.5356    5.0848 O.2     1  UNL1       -0.2863
      8 C           1.8846    1.2904    4.4879 C.ar    1  UNL1        0.0488
      9 C           1.5502    0.3363    3.5112 C.ar    1  UNL1        0.0547
     10 C           1.8711   -1.0015    3.7978 C.ar    1  UNL1       -0.0136
     11 C           2.3763   -1.4359    5.0412 C.ar    1  UNL1        0.0677
     12 C           2.7018   -0.4366    5.9692 C.ar    1  UNL1        0.1451
     13 C           2.4836    0.9111    5.6971 C.ar    1  UNL1       -0.0118
     14 F           3.1685   -0.7659    7.1848 F       1  UNL1       -0.2035
     15 N           2.4980   -2.8098    5.2692 N.pl3   1  UNL1       -0.3175
     16 C           1.3335   -3.6455    4.9151 C.3     1  UNL1        0.0525
     17 C           0.5809   -4.1190    6.1714 C.3     1  UNL1       -0.0160
     18 N           1.5362   -4.8250    7.1245 N.4     1  UNL1        0.2353
     19 C           2.6821   -3.8868    7.5262 C.3     1  UNL1       -0.0160
     20 C           3.4196   -3.3586    6.2759 C.3     1  UNL1        0.0525
     21 C           0.8187   -5.3892    8.3101 C.3     1  UNL1       -0.0430
     22 C           0.2730    4.4644    2.7281 C.2     1  UNL1        0.3916
     23 O           0.0670    5.2296    3.7085 O.co2   1  UNL1       -0.2404
     24 O           0.0026    4.6700    1.5067 O.co2   1  UNL1       -0.2404
     25 H           1.6965    0.3100   -0.2780 H       1  UNL1        0.0247
     26 H           1.0634   -1.3395   -0.3831 H       1  UNL1        0.0247
     27 H           2.3673   -0.9576    0.7483 H       1  UNL1        0.0247
     28 H          -0.4942    0.1314    0.8557 H       1  UNL1        0.0489
     29 H           0.0504   -1.1723    1.8575 H       1  UNL1        0.0489
     30 H          -0.0067    2.2850    1.2765 H       1  UNL1        0.0818
     31 H           1.7299   -1.7481    3.0245 H       1  UNL1        0.0658
     32 H           2.7380    1.6614    6.4415 H       1  UNL1        0.0654
     33 H           1.6949   -4.5128    4.3517 H       1  UNL1        0.0516
     34 H           0.6066   -3.1357    4.2731 H       1  UNL1        0.0516
     35 H          -0.1966   -4.8400    5.8970 H       1  UNL1        0.0830
     36 H           0.1339   -3.2815    6.7196 H       1  UNL1        0.0830
     37 H           2.2408   -3.0765    8.1179 H       1  UNL1        0.0830
     38 H           3.3634   -4.4740    8.1492 H       1  UNL1        0.0830
     39 H           3.9436   -4.1993    5.8076 H       1  UNL1        0.0516
     40 H           4.2066   -2.6537    6.5645 H       1  UNL1        0.0516
     41 H           0.0418   -6.0673    7.9445 H       1  UNL1        0.0778
     42 H           1.5415   -5.9449    8.9120 H       1  UNL1        0.0778
     43 H           0.3795   -4.5666    8.8799 H       1  UNL1        0.0778
     44 H           1.9569   -5.6057    6.6055 H       1  UNL1        0.2032
@<TRIPOS>UNITY_ATOM_ATTR
18 1
charge 1
@<TRIPOS>BOND
     1     1     2    1
     2     1    25    1
     3     1    26    1
     4     1    27    1
     5     2     3    1
     6     2    28    1
     7     2    29    1
     8     3     9   ar
     9     3     4   ar
    10     4     5   ar
    11     4    30    1
    12     5     6   ar
    13     5    22    1
    14     6     7    2
    15     6     8   ar
    16     8    13   ar
    17     8     9   ar
    18     9    10   ar
    19    10    11   ar
    20    10    31    1
    21    11    12   ar
    22    11    15    1
    23    12    13   ar
    24    12    14    1
    25    13    32    1
    26    15    20    1
    27    15    16    1
    28    16    17    1
    29    16    33    1
    30    16    34    1
    31    17    18    1
    32    17    35    1
    33    17    36    1
    34    18    19    1
    35    18    21    1
    36    18    44    1
    37    19    20    1
    38    19    37    1
    39    19    38    1
    40    20    39    1
    41    20    40    1
    42    21    41    1
    43    21    42    1
    44    21    43    1
    45    22    23   ar
    46    22    24   ar
