@<TRIPOS>MOLECULE
ZINC00129343
 24 24 0 0 0
SMALL
GASTEIGER

@<TRIPOS>ATOM
      1 C           3.3109    4.6338    0.5278 C.ar    1  UNL1       -0.0186
      2 C           3.6910    5.7841    1.2233 C.ar    1  UNL1       -0.0399
      3 C           3.4498    7.0413    0.6735 C.ar    1  UNL1        0.0412
      4 C           2.8129    7.1557   -0.5605 C.ar    1  UNL1       -0.0399
      5 C           2.4358    6.0027   -1.2554 C.ar    1  UNL1       -0.0186
      6 C           2.6957    4.7366   -0.7259 C.ar    1  UNL1        0.1207
      7 O           2.3114    3.6837   -1.5144 O.3     1  UNL1       -0.4893
      8 C           2.7170    2.3894   -1.0668 C.3     1  UNL1        0.1175
      9 C           2.4712    1.3299   -2.1428 C.3     1  UNL1        0.1120
     10 H           3.0491    1.5729   -3.0419 H       1  UNL1        0.0650
     11 C           0.9908    1.2102   -2.5291 C.3     1  UNL1        0.0733
     12 O           0.8128    0.1724   -3.4948 O.3     1  UNL1       -0.3923
     13 O           2.9719    0.0749   -1.6574 O.3     1  UNL1       -0.3861
     14 CL          3.9404    8.4545    1.5205 Cl      1  UNL1       -0.0835
     15 H           3.5153    3.6748    0.9913 H       1  UNL1        0.0654
     16 H           4.1792    5.6892    2.1911 H       1  UNL1        0.0633
     17 H           2.6140    8.1340   -0.9896 H       1  UNL1        0.0633
     18 H           1.9447    6.0965   -2.2224 H       1  UNL1        0.0654
     19 H           3.7899    2.3790   -0.8350 H       1  UNL1        0.0723
     20 H           2.1639    2.1192   -0.1585 H       1  UNL1        0.0723
     21 H           0.3853    0.9327   -1.6606 H       1  UNL1        0.0584
     22 H           0.6000    2.1419   -2.9474 H       1  UNL1        0.0584
     23 H           1.3867    0.3753   -4.2545 H       1  UNL1        0.2095
     24 H           2.2076   -0.4747   -1.4046 H       1  UNL1        0.2100
@<TRIPOS>BOND
     1     1     6   ar
     2     1     2   ar
     3     1    15    1
     4     2     3   ar
     5     2    16    1
     6     3     4   ar
     7     3    14    1
     8     4     5   ar
     9     4    17    1
    10     5     6   ar
    11     5    18    1
    12     6     7    1
    13     7     8    1
    14     8    19    1
    15     8    20    1
    16     9    11    1
    17     9    13    1
    18    11    12    1
    19    11    21    1
    20    11    22    1
    21    12    23    1
    22    13    24    1
    23     9    10    1
    24     9     8    1
