@<TRIPOS>MOLECULE
ZINC00001795
 13 13 0 0 0
SMALL
GASTEIGER

@<TRIPOS>ATOM
      1 C           0.6965    1.2286    0.0023 C.ar    1  UNL1       -0.0428
      2 C           1.4487    0.0582   -0.0020 C.ar    1  UNL1       -0.0447
      3 C           0.8094   -1.1869   -0.0030 C.ar    1  UNL1        0.0812
      4 C          -0.5804   -1.1817    0.0046 C.ar    1  UNL1        0.0417
      5 N          -1.3481   -0.0576    0.0069 N.ar    1  UNL1       -0.2624
      6 C          -0.6838    1.1173    0.0037 C.ar    1  UNL1        0.0276
      7 C           1.5770   -2.4781   -0.0145 C.2     1  UNL1        0.3880
      8 O           0.9010   -3.5540   -0.0138 O.co2   1  UNL1       -0.2405
      9 O           2.8453   -2.3952   -0.0252 O.co2   1  UNL1       -0.2405
     10 H           1.1795    2.1974    0.0033 H       1  UNL1        0.0633
     11 H           2.5361    0.0984   -0.0058 H       1  UNL1        0.0627
     12 H          -1.1339   -2.1188    0.0091 H       1  UNL1        0.0838
     13 H          -1.3130    2.0010    0.0013 H       1  UNL1        0.0829
@<TRIPOS>BOND
     1     1     6   ar
     2     1     2   ar
     3     1    10    1
     4     2     3   ar
     5     2    11    1
     6     3     4   ar
     7     3     7    1
     8     4     5   ar
     9     4    12    1
    10     5     6   ar
    11     6    13    1
    12     7     8   ar
    13     7     9   ar
