@<TRIPOS>MOLECULE
ZINC00057464
 31 32 0 0 0
SMALL
GASTEIGER

@<TRIPOS>ATOM
      1 C           0.2133    0.2820   -0.1534 C.3     1  UNL1       -0.0616
      2 C           0.2785   -0.4985    1.1592 C.3     1  UNL1       -0.0127
      3 C           1.0365    0.2902    2.1899 C.3     1  UNL1        0.1521
      4 C           2.4868    0.1512    2.3385 C.2     1  UNL1        0.0915
      5 C           3.2207    1.2919    2.5299 C.2     1  UNL1        0.3233
      6 N           2.6265    2.5445    2.5999 N.2     1  UNL1        0.0211
      7 C           1.3298    2.5785    2.6652 C.cat   1  UNL1        0.4091
      8 N           0.5128    1.4913    2.6013 N.pl3   1  UNL1       -0.2170
      9 N           0.6623    3.7572    2.7478 N.pl3   1  UNL1       -0.2437
     10 N           4.5991    1.2729    2.6362 N.pl3   1  UNL1       -0.2461
     11 C           3.1363   -1.1796    2.3847 C.ar    1  UNL1       -0.0105
     12 C           3.5838   -1.8136    1.2165 C.ar    1  UNL1       -0.0526
     13 C           4.1770   -3.0767    1.2849 C.ar    1  UNL1       -0.0428
     14 C           4.3295   -3.7086    2.5176 C.ar    1  UNL1        0.0410
     15 C           3.8962   -3.0907    3.6879 C.ar    1  UNL1       -0.0428
     16 C           3.2996   -1.8301    3.6199 C.ar    1  UNL1       -0.0526
     17 CL          5.0583   -5.2672    2.5954 Cl      1  UNL1       -0.0835
     18 H          -0.3851    1.1941   -0.0401 H       1  UNL1        0.0231
     19 H          -0.2466   -0.3215   -0.9403 H       1  UNL1        0.0231
     20 H           1.2122    0.5811   -0.4918 H       1  UNL1        0.0231
     21 H          -0.7390   -0.6931    1.5172 H       1  UNL1        0.0302
     22 H           0.7375   -1.4747    0.9775 H       1  UNL1        0.0302
     23 H           1.2966    4.5316    2.5814 H       1  UNL1        0.2419
     24 H          -0.1650    3.8265    2.1729 H       1  UNL1        0.2419
     25 H           5.0257    0.5103    2.1241 H       1  UNL1        0.2884
     26 H           4.9492    2.1842    2.3560 H       1  UNL1        0.2884
     27 H           3.4653   -1.3266    0.2515 H       1  UNL1        0.0624
     28 H           4.5153   -3.5630    0.3738 H       1  UNL1        0.0632
     29 H           4.0175   -3.5781    4.6499 H       1  UNL1        0.0632
     30 H           2.9666   -1.3450    4.5375 H       1  UNL1        0.0624
     31 H          -0.4746    1.6382    2.4505 H       1  UNL1        0.2462
@<TRIPOS>BOND
     1     1     2    1
     2     1    18    1
     3     1    19    1
     4     1    20    1
     5     2     3    1
     6     2    21    1
     7     2    22    1
     8     3     8    1
     9     3     4    1
    10     4     5    2
    11     4    11    1
    12     5     6    1
    13     5    10    1
    14     6     7    2
    15     7     8    1
    16     7     9    1
    17     8    31    1
    18     9    23    1
    19     9    24    1
    20    10    25    1
    21    10    26    1
    22    11    16   ar
    23    11    12   ar
    24    12    13   ar
    25    12    27    1
    26    13    14   ar
    27    13    28    1
    28    14    15   ar
    29    14    17    1
    30    15    16   ar
    31    15    29    1
    32    16    30    1
