@<TRIPOS>MOLECULE
ZINC00895154
 32 33 0 0 0
SMALL
GASTEIGER

@<TRIPOS>ATOM
      1 C          -0.0339   -1.5192   -0.1449 C.3     1  UNL1       -0.0364
      2 C          -0.6385   -1.0899   -1.4792 C.3     1  UNL1        0.0801
      3 H           0.1317   -1.1484   -2.2560 H       1  UNL1        0.0617
      4 C          -1.2135    0.3476   -1.4420 C.3     1  UNL1        0.1004
      5 H          -0.4090    1.0263   -1.1312 H       1  UNL1        0.0638
      6 C          -1.7081    0.8009   -2.8406 C.3     1  UNL1        0.0646
      7 H          -0.8853    0.6411   -3.5530 H       1  UNL1        0.0539
      8 C          -2.0846    2.3143   -2.9020 C.3     1  UNL1        0.0313
      9 N          -2.6315    2.6680   -4.2275 N.pl3   1  UNL1       -0.3270
     10 C          -3.2998    1.7204   -5.0000 C.ar    1  UNL1        0.1255
     11 C          -3.4353    0.4493   -4.5365 C.ar    1  UNL1        0.1330
     12 C          -4.1262   -0.5615   -5.4478 C.ar    1  UNL1        0.2973
     13 O          -4.2392   -1.7242   -5.0623 O.2     1  UNL1       -0.2637
     14 N          -4.5566   -0.1411   -6.6966 N.ar    1  UNL1       -0.1759
     15 C          -4.3639    1.0876   -7.0256 C.ar    1  UNL1        0.1951
     16 N          -3.7802    2.0232   -6.2393 N.ar    1  UNL1       -0.3147
     17 H          -3.5584    2.9326   -6.6081 H       1  UNL1        0.1698
     18 N          -4.7390    1.5565   -8.2405 N.pl3   1  UNL1       -0.3289
     19 N          -2.8734    0.0299   -3.3160 N.pl3   1  UNL1       -0.3301
     20 O          -2.2247    0.4030   -0.4276 O.3     1  UNL1       -0.3874
     21 O          -1.6574   -2.0347   -1.8171 O.3     1  UNL1       -0.3894
     22 H           0.7755   -2.2357   -0.3255 H       1  UNL1        0.0255
     23 H          -0.7652   -2.0298    0.4912 H       1  UNL1        0.0255
     24 H           0.3915   -0.6747    0.4047 H       1  UNL1        0.0255
     25 H          -2.8572    2.5458   -2.1590 H       1  UNL1        0.0481
     26 H          -1.2140    2.9409   -2.6831 H       1  UNL1        0.0481
     27 H          -2.1594    3.4007   -4.7427 H       1  UNL1        0.1475
     28 H          -5.3104    0.8681   -8.7222 H       1  UNL1        0.1451
     29 H          -5.1943    2.4600   -8.2241 H       1  UNL1        0.1451
     30 H          -2.7545   -0.9914   -3.2944 H       1  UNL1        0.1467
     31 H          -2.6622    1.2694   -0.4659 H       1  UNL1        0.2100
     32 H          -2.3756   -1.8962   -1.1661 H       1  UNL1        0.2099
@<TRIPOS>BOND
     1     1    22    1
     2     1    23    1
     3     1    24    1
     4     2     4    1
     5     2    21    1
     6     4     5    1
     7     4     6    1
     8     4    20    1
     9     6     7    1
    10     6    19    1
    11     6     8    1
    12     8     9    1
    13     8    25    1
    14     8    26    1
    15     9    10    1
    16     9    27    1
    17    10    16   ar
    18    10    11   ar
    19    11    12   ar
    20    11    19    1
    21    12    13    2
    22    12    14   ar
    23    14    15   ar
    24    15    16   ar
    25    15    18    1
    26    16    17    1
    27    18    28    1
    28    18    29    1
    29    19    30    1
    30    20    31    1
    31    21    32    1
    32     2     3    1
    33     2     1    1
