@<TRIPOS>MOLECULE
ZINC01487602
 10 10 0 0 0
SMALL
GASTEIGER

@<TRIPOS>ATOM
      1 C          -0.0245    0.8968   -0.0534 C.3     1  UNL1        0.0754
      2 C          -0.8788   -0.3472   -0.0456 C.3     1  UNL1        0.0954
      3 H          -1.4620   -0.5747    0.8356 H       1  UNL1        0.0631
      4 O           0.5520   -0.4128    0.0509 O.3     1  UNL1       -0.3705
      5 C          -1.4420   -0.9234   -1.2976 C.3     1  UNL1        0.0510
      6 CL         -2.7317    0.1412   -1.8995 Cl      1  UNL1       -0.1227
      7 H          -0.0203    1.5185    0.8332 H       1  UNL1        0.0586
      8 H           0.1020    1.4381   -0.9840 H       1  UNL1        0.0586
      9 H          -0.6914   -1.0282   -2.0867 H       1  UNL1        0.0456
     10 H          -1.8834   -1.9057   -1.1032 H       1  UNL1        0.0456
@<TRIPOS>BOND
     1     1     4    1
     2     1     2    1
     3     1     7    1
     4     1     8    1
     5     2     3    1
     6     2     4    1
     7     2     5    1
     8     5     6    1
     9     5     9    1
    10     5    10    1
