@<TRIPOS>MOLECULE
ZINC00001655
 29 30 0 0 0
SMALL
GASTEIGER

@<TRIPOS>ATOM
      1 C           2.5319    2.0468   -0.4634 C.3     1  UNL1       -0.0383
      2 C           1.2017    1.3507   -0.3457 C.ar    1  UNL1       -0.0302
      3 C           0.0830    2.0862    0.0583 C.ar    1  UNL1       -0.0560
      4 C          -1.1454    1.4534    0.2284 C.ar    1  UNL1       -0.0412
      5 C          -1.2610    0.0695    0.0454 C.ar    1  UNL1        0.0635
      6 C          -0.1587   -0.7183   -0.3437 C.ar    1  UNL1        0.0687
      7 C           1.0630   -0.0374   -0.5860 C.ar    1  UNL1        0.0664
      8 CL          2.4175   -0.8612   -1.3190 Cl      1  UNL1       -0.0813
      9 N          -0.2811   -2.1245   -0.3747 N.pl3   1  UNL1       -0.3116
     10 C           0.5859   -3.1485    0.0710 C.ar    1  UNL1        0.0456
     11 C           1.5399   -2.8895    1.0725 C.ar    1  UNL1       -0.0397
     12 C           2.4752   -3.8515    1.4567 C.ar    1  UNL1       -0.0600
     13 C           2.4766   -5.0982    0.8497 C.ar    1  UNL1       -0.0609
     14 C           1.5346   -5.3799   -0.1410 C.ar    1  UNL1       -0.0458
     15 C           0.5768   -4.4203   -0.5443 C.ar    1  UNL1        0.0842
     16 C          -0.4202   -4.7942   -1.6227 C.2     1  UNL1        0.3883
     17 O          -0.1164   -5.7708   -2.3854 O.co2   1  UNL1       -0.2405
     18 O          -1.4963   -4.1137   -1.6768 O.co2   1  UNL1       -0.2405
     19 CL         -2.8113   -0.6354    0.3654 Cl      1  UNL1       -0.0816
     20 H           3.2218    1.6529    0.2917 H       1  UNL1        0.0278
     21 H           2.9644    1.9161   -1.4596 H       1  UNL1        0.0278
     22 H           2.4395    3.1241   -0.2902 H       1  UNL1        0.0278
     23 H           0.1594    3.1561    0.2383 H       1  UNL1        0.0621
     24 H          -2.0100    2.0387    0.5317 H       1  UNL1        0.0633
     25 H          -1.1486   -2.5217   -0.7754 H       1  UNL1        0.1523
     26 H           1.5618   -1.9183    1.5579 H       1  UNL1        0.0636
     27 H           3.2089   -3.6145    2.2196 H       1  UNL1        0.0618
     28 H           3.2043   -5.8536    1.1271 H       1  UNL1        0.0618
     29 H           1.5351   -6.3528   -0.6277 H       1  UNL1        0.0626
@<TRIPOS>BOND
     1     1     2    1
     2     1    20    1
     3     1    21    1
     4     1    22    1
     5     2     7   ar
     6     2     3   ar
     7     3     4   ar
     8     3    23    1
     9     4     5   ar
    10     4    24    1
    11     5     6   ar
    12     5    19    1
    13     6     7   ar
    14     6     9    1
    15     7     8    1
    16     9    10    1
    17     9    25    1
    18    10    15   ar
    19    10    11   ar
    20    11    12   ar
    21    11    26    1
    22    12    13   ar
    23    12    27    1
    24    13    14   ar
    25    13    28    1
    26    14    15   ar
    27    14    29    1
    28    15    16    1
    29    16    17   ar
    30    16    18   ar
