@<TRIPOS>MOLECULE
ZINC00002094
 34 35 0 0 0
SMALL
GASTEIGER

@<TRIPOS>ATOM
      1 C           0.9675   -0.0567    0.4765 C.3     1  UNL1        0.0792
      2 O           0.5115   -1.3896    0.2849 O.3     1  UNL1       -0.4875
      3 C           1.0124   -2.1482   -0.7335 C.ar    1  UNL1        0.2254
      4 C           2.3490   -2.1781   -1.1534 C.ar    1  UNL1        0.2113
      5 N           2.7469   -2.9467   -2.1967 N.ar    1  UNL1       -0.2139
      6 C           1.8395   -3.7560   -2.7480 C.ar    1  UNL1        0.1222
      7 N           0.5564   -3.8498   -2.4078 N.ar    1  UNL1       -0.1982
      8 C           0.1561   -3.0479   -1.3944 C.ar    1  UNL1        0.2627
      9 O          -1.1789   -3.2485   -1.1811 O.3     1  UNL1       -0.4771
     10 C          -1.8265   -2.6053   -0.1033 C.3     1  UNL1        0.0805
     11 N           3.3584   -1.4316   -0.6617 N.pl3   1  UNL1       -0.0738
     12 S           4.1775   -1.9030    0.6264 S.O2    1  UNL1        0.0931
     13 O           4.7726   -0.7885    1.3633 O.2     1  UNL1       -0.1483
     14 O           3.5426   -2.9140    1.4725 O.2     1  UNL1       -0.1483
     15 C           5.6685   -2.7737    0.0584 C.ar    1  UNL1        0.1105
     16 C           5.9093   -2.9697   -1.3010 C.ar    1  UNL1       -0.0333
     17 C           7.0499   -3.6599   -1.7058 C.ar    1  UNL1       -0.0392
     18 C           7.9904   -4.0980   -0.7701 C.ar    1  UNL1        0.0247
     19 C           7.7187   -3.9274    0.5938 C.ar    1  UNL1       -0.0392
     20 C           6.5700   -3.2498    1.0122 C.ar    1  UNL1       -0.0333
     21 N           9.0690   -4.8933   -1.1873 N.pl3   1  UNL1       -0.3580
     22 H           1.0141    0.1246    1.5550 H       1  UNL1        0.0660
     23 H           0.2302    0.6315    0.0522 H       1  UNL1        0.0660
     24 H           1.9334    0.2079    0.0541 H       1  UNL1        0.0660
     25 H           2.1838   -4.3942   -3.5520 H       1  UNL1        0.1049
     26 H          -1.3537   -2.8304    0.8565 H       1  UNL1        0.0660
     27 H          -1.9142   -1.5302   -0.2856 H       1  UNL1        0.0660
     28 H          -2.8459   -3.0044   -0.0551 H       1  UNL1        0.0660
     29 H           5.2125   -2.6105   -2.0501 H       1  UNL1        0.0638
     30 H           7.1960   -3.8428   -2.7665 H       1  UNL1        0.0636
     31 H           8.3975   -4.3227    1.3444 H       1  UNL1        0.0636
     32 H           6.3609   -3.1007    2.0680 H       1  UNL1        0.0638
     33 H           9.8521   -4.8588   -0.5414 H       1  UNL1        0.1423
     34 H           9.3447   -4.7056   -2.1454 H       1  UNL1        0.1423
@<TRIPOS>BOND
     1     1     2    1
     2     1    22    1
     3     1    23    1
     4     1    24    1
     5     2     3    1
     6     3     8   ar
     7     3     4   ar
     8     4     5   ar
     9     4    11    1
    10     5     6   ar
    11     6     7   ar
    12     6    25    1
    13     7     8   ar
    14     8     9    1
    15     9    10    1
    16    10    26    1
    17    10    27    1
    18    10    28    1
    19    11    12    1
    20    12    13    2
    21    12    14    2
    22    12    15    1
    23    15    20   ar
    24    15    16   ar
    25    16    17   ar
    26    16    29    1
    27    17    18   ar
    28    17    30    1
    29    18    19   ar
    30    18    21    1
    31    19    20   ar
    32    19    31    1
    33    20    32    1
    34    21    33    1
    35    21    34    1
