@<TRIPOS>MOLECULE
ZINC01846088
 53 54 0 0 0
SMALL
GASTEIGER

@<TRIPOS>ATOM
      1 C           1.1990   -1.6181   -4.8864 C.3     1  UNL1       -0.0245
      2 C           0.7456   -2.8843   -5.5902 C.3     1  UNL1       -0.0345
      3 N           1.3142   -4.1326   -4.9620 N.4     1  UNL1        0.2383
      4 C           0.9354   -5.3833   -5.7205 C.3     1  UNL1       -0.0314
      5 C          -0.2797   -5.8977   -4.9819 C.3     1  UNL1       -0.0074
      6 C           0.0439   -5.6390   -3.5229 C.3     1  UNL1       -0.0034
      7 C           0.9255   -4.3863   -3.5011 C.3     1  UNL1       -0.0048
      8 H           0.3453   -3.5276   -3.1493 H       1  UNL1        0.0867
      9 C           2.1948   -4.5617   -2.6359 C.3     1  UNL1        0.0548
     10 N           3.0181   -3.3644   -2.5941 N.am    1  UNL1       -0.3059
     11 C           4.0110   -3.1192   -3.5117 C.2     1  UNL1        0.2478
     12 O           4.1221   -3.8468   -4.5029 O.2     1  UNL1       -0.2701
     13 C           4.8683   -1.8945   -3.3464 C.ar    1  UNL1        0.0801
     14 C           5.4908   -1.4331   -4.5198 C.ar    1  UNL1       -0.0194
     15 C           6.3261   -0.3061   -4.5082 C.ar    1  UNL1        0.1096
     16 C           6.5275    0.4231   -3.3371 C.ar    1  UNL1        0.0532
     17 C           5.9170   -0.0555   -2.1669 C.ar    1  UNL1        0.0033
     18 C           5.0658   -1.1777   -2.1498 C.ar    1  UNL1        0.1340
     19 O           4.4649   -1.6300   -0.9998 O.3     1  UNL1       -0.4943
     20 C           4.3253   -0.6909    0.0737 C.3     1  UNL1        0.0788
     21 N           7.4777    1.4409   -3.1945 N.pl3   1  UNL1       -0.3564
     22 S           6.9886    0.2203   -6.0806 S.O2    1  UNL1       -0.0016
     23 O           6.0640   -0.2399   -7.0946 O.2     1  UNL1       -0.1693
     24 O           7.3057    1.6428   -5.9689 O.2     1  UNL1       -0.1693
     25 C           8.5170   -0.6900   -6.2430 C.3     1  UNL1        0.0681
     26 C           9.1815   -0.4360   -7.5863 C.3     1  UNL1       -0.0453
     27 H           0.7425   -1.5099   -3.8981 H       1  UNL1        0.0281
     28 H           0.9056   -0.7423   -5.4741 H       1  UNL1        0.0281
     29 H           2.2827   -1.5802   -4.7771 H       1  UNL1        0.0281
     30 H          -0.3457   -2.9683   -5.5853 H       1  UNL1        0.0812
     31 H           1.1037   -2.8692   -6.6245 H       1  UNL1        0.0812
     32 H           1.7831   -6.0721   -5.6425 H       1  UNL1        0.0814
     33 H           0.7418   -5.1433   -6.7697 H       1  UNL1        0.0814
     34 H          -1.1770   -5.3415   -5.2773 H       1  UNL1        0.0319
     35 H          -0.4660   -6.9577   -5.1802 H       1  UNL1        0.0319
     36 H          -0.8744   -5.4834   -2.9446 H       1  UNL1        0.0322
     37 H           0.5545   -6.5038   -3.0843 H       1  UNL1        0.0322
     38 H           1.9275   -4.7973   -1.6042 H       1  UNL1        0.0518
     39 H           2.8021   -5.3951   -3.0228 H       1  UNL1        0.0518
     40 H           2.8983   -2.6852   -1.8523 H       1  UNL1        0.1492
     41 H           5.3088   -1.9536   -5.4624 H       1  UNL1        0.0646
     42 H           6.1483    0.4818   -1.2529 H       1  UNL1        0.0673
     43 H           5.2692   -0.2259    0.3768 H       1  UNL1        0.0660
     44 H           3.5860    0.0715   -0.1943 H       1  UNL1        0.0660
     45 H           3.9604   -1.2283    0.9537 H       1  UNL1        0.0660
     46 H           7.3284    2.0662   -2.4053 H       1  UNL1        0.1424
     47 H           7.6430    1.9805   -4.0514 H       1  UNL1        0.1424
     48 H           9.1762   -0.3798   -5.4266 H       1  UNL1        0.0501
     49 H           8.2876   -1.7552   -6.1376 H       1  UNL1        0.0501
     50 H           9.2424    0.6324   -7.8121 H       1  UNL1        0.0245
     51 H          10.1971   -0.8471   -7.5947 H       1  UNL1        0.0245
     52 H           8.6207   -0.9161   -8.3954 H       1  UNL1        0.0245
     53 H           2.3531   -4.0522   -5.0080 H       1  UNL1        0.2037
@<TRIPOS>UNITY_ATOM_ATTR
3 1
charge 1
@<TRIPOS>BOND
     1     1     2    1
     2     1    27    1
     3     1    28    1
     4     1    29    1
     5     2     3    1
     6     2    30    1
     7     2    31    1
     8     3     7    1
     9     3     4    1
    10     3    53    1
    11     4     5    1
    12     4    32    1
    13     4    33    1
    14     5     6    1
    15     5    34    1
    16     5    35    1
    17     6     7    1
    18     6    36    1
    19     6    37    1
    20     7     8    1
    21     7     9    1
    22     9    10    1
    23     9    38    1
    24     9    39    1
    25    10    11   am
    26    10    40    1
    27    11    12    2
    28    11    13    1
    29    13    18   ar
    30    13    14   ar
    31    14    15   ar
    32    14    41    1
    33    15    16   ar
    34    15    22    1
    35    16    17   ar
    36    16    21    1
    37    17    18   ar
    38    17    42    1
    39    18    19    1
    40    19    20    1
    41    20    43    1
    42    20    44    1
    43    20    45    1
    44    21    46    1
    45    21    47    1
    46    22    23    2
    47    22    24    2
    48    22    25    1
    49    25    26    1
    50    25    48    1
    51    25    49    1
    52    26    50    1
    53    26    51    1
    54    26    52    1
