@<TRIPOS>MOLECULE
ZINC00896873
 29 30 0 0 0
SMALL
GASTEIGER

@<TRIPOS>ATOM
      1 C           0.8760    0.0541    0.1297 C.3     1  UNL1       -0.0189
      2 C           0.4632    0.4521   -1.2791 C.3     1  UNL1        0.0056
      3 H          -0.6132    0.2714   -1.3982 H       1  UNL1        0.0877
      4 C           1.2248   -0.2861   -2.4136 C.3     1  UNL1        0.1259
      5 H           0.9134   -1.3375   -2.3383 H       1  UNL1        0.0703
      6 O           0.7076    0.1374   -3.6892 O.3     1  UNL1       -0.3611
      7 C           0.7555    1.5423   -3.9399 C.3     1  UNL1        0.0885
      8 C           0.1849    2.4125   -2.8081 C.3     1  UNL1       -0.0093
      9 N           0.6106    1.9477   -1.4402 N.4     1  UNL1        0.2327
     10 C           2.7509   -0.2694   -2.3580 C.ar    1  UNL1       -0.0135
     11 C           3.5288    0.8956   -2.4362 C.ar    1  UNL1       -0.0559
     12 C           4.9260    0.8517   -2.3960 C.ar    1  UNL1       -0.0614
     13 C           5.5757   -0.3683   -2.2718 C.ar    1  UNL1       -0.0617
     14 C           4.8317   -1.5403   -2.1860 C.ar    1  UNL1       -0.0614
     15 C           3.4327   -1.4941   -2.2301 C.ar    1  UNL1       -0.0559
     16 H           0.6520   -1.0040    0.3042 H       1  UNL1        0.0285
     17 H           0.3245    0.6346    0.8775 H       1  UNL1        0.0285
     18 H           1.9439    0.2088    0.3095 H       1  UNL1        0.0285
     19 H           1.7758    1.8314   -4.2023 H       1  UNL1        0.0614
     20 H           0.1679    1.7243   -4.8466 H       1  UNL1        0.0614
     21 H           0.5061    3.4539   -2.9075 H       1  UNL1        0.0837
     22 H          -0.9080    2.3703   -2.8082 H       1  UNL1        0.0837
     23 H           1.5799    2.2203   -1.2345 H       1  UNL1        0.2018
     24 H           3.1028    1.8818   -2.5676 H       1  UNL1        0.0621
     25 H           5.5065    1.7661   -2.4838 H       1  UNL1        0.0618
     26 H           6.6620   -0.4073   -2.2597 H       1  UNL1        0.0618
     27 H           5.3429   -2.4966   -2.0996 H       1  UNL1        0.0618
     28 H           2.8929   -2.4381   -2.1752 H       1  UNL1        0.0621
     29 H           0.0365    2.4248   -0.7331 H       1  UNL1        0.2018
@<TRIPOS>UNITY_ATOM_ATTR
9 1
charge 1
@<TRIPOS>BOND
     1     1     2    1
     2     1    16    1
     3     1    17    1
     4     1    18    1
     5     2     3    1
     6     2     9    1
     7     2     4    1
     8     4     5    1
     9     4     6    1
    10     4    10    1
    11     6     7    1
    12     7     8    1
    13     7    19    1
    14     7    20    1
    15     8     9    1
    16     8    21    1
    17     8    22    1
    18     9    23    1
    19     9    29    1
    20    10    15   ar
    21    10    11   ar
    22    11    12   ar
    23    11    24    1
    24    12    13   ar
    25    12    25    1
    26    13    14   ar
    27    13    26    1
    28    14    15   ar
    29    14    27    1
    30    15    28    1
