@<TRIPOS>MOLECULE
ZINC03830891
 36 35 0 0 0
SMALL
GASTEIGER

@<TRIPOS>ATOM
      1 C           0.4976    3.1848    2.5547 C.3     1  UNK1        0.0091
      2 C           0.2416    1.7563    3.0351 C.3     1  UNK1        0.0296
      3 C           1.0603    0.7013    2.3191 C.2     1  UNK1        0.2138
      4 O           0.5382   -0.1760    1.6396 O.2     1  UNK1       -0.2758
      5 N           2.4209    0.8051    2.4691 N.am    1  UNK1       -0.3033
      6 C           3.3115   -0.2410    1.9274 C.3     1  UNK1        0.1081
      7 H           2.9160   -1.2053    2.2715 H       1  UNK1        0.0603
      8 C           3.3716   -0.2379    0.3875 C.3     1  UNK1        0.0177
      9 S           3.8022    1.3971   -0.3251 S.3     1  UNK1       -0.1759
     10 C           4.7236   -0.0842    2.5253 C.2     1  UNK1        0.2346
     11 O           5.0406    0.9325    3.1459 O.2     1  UNK1       -0.2737
     12 N           5.5656   -1.1392    2.2499 N.am    2  GLY2       -0.3031
     13 CA          6.8969   -1.2448    2.8686 C.3     2  GLY2        0.1133
     14 C           6.9231   -2.1526    4.1285 C.2     2  GLY2        0.3727
     15 O           8.0187   -2.1937    4.7448 O.co2   2  GLY2       -0.2446
     16 OXT         5.8378   -2.7784    4.3408 O.co2   2  GLY2       -0.2446
     17 C           0.1765    3.4283    1.0775 C.3     1  UNK1        0.0790
     18 H           0.7616    2.7970    0.4035 H       1  UNK1        0.0970
     19 C          -1.3573    3.3410    0.8014 C.2     1  UNK1        0.4026
     20 O          -1.8758    4.5019    0.9317 O.co2   1  UNK1       -0.2400
     21 O          -1.8140    2.2606    0.3862 O.co2   1  UNK1       -0.2400
     22 N           0.5976    4.8661    0.7732 N.4     1  UNK1        0.2289
     23 H           1.5444    3.4506    2.7510 H       1  UNK1        0.0330
     24 H          -0.1102    3.8580    3.1747 H       1  UNK1        0.0330
     25 H           0.4682    1.6862    4.1060 H       1  UNK1        0.0360
     26 H          -0.8186    1.5022    2.9262 H       1  UNK1        0.0360
     27 H           2.8129    1.3335    3.2429 H       1  UNK1        0.1495
     28 H           4.0946   -0.9691    0.0130 H       1  UNK1        0.0397
     29 H           2.3979   -0.5115   -0.0292 H       1  UNK1        0.0397
     30 H           3.1412    2.1025    0.6015 H       1  UNK1        0.1017
     31 H           5.1156   -2.0520    2.2611 H       2  GLY2        0.1493
     32 HA1         7.5486   -1.7038    2.1185 H       2  GLY2        0.0579
     33 HA2         7.2773   -0.2478    3.1114 H       2  GLY2        0.0579
     34 H          -0.2131    5.4085    1.1460 H       1  UNK1        0.2002
     35 H           1.4876    5.1792    1.1554 H       1  UNK1        0.2002
     36 H           0.5222    5.0187   -0.2376 H       1  UNK1        0.2002
@<TRIPOS>UNITY_ATOM_ATTR
22 1
charge 1
@<TRIPOS>BOND
     1     1     2    1
     2     1    17    1
     3     1    23    1
     4     1    24    1
     5     2     3    1
     6     2    25    1
     7     2    26    1
     8     3     4    2
     9     3     5   am
    10     5     6    1
    11     5    27    1
    12     6     7    1
    13     6     8    1
    14     6    10    1
    15     8     9    1
    16     8    28    1
    17     8    29    1
    18     9    30    1
    19    10    11    2
    20    10    12   am
    21    12    13    1
    22    12    31    1
    23    13    14    1
    24    13    32    1
    25    13    33    1
    26    14    15   ar
    27    14    16   ar
    28    17    18    1
    29    17    19    1
    30    17    22    1
    31    19    20   ar
    32    19    21   ar
    33    22    34    1
    34    22    35    1
    35    22    36    1
