@<TRIPOS>MOLECULE
ZINC00897232
 31 32 0 0 0
SMALL
GASTEIGER

@<TRIPOS>ATOM
      1 C           1.1765   -0.0314    0.1236 C.3     1  UNL1        0.0110
      2 N           0.5256    0.7113   -0.9649 N.3     1  UNL1       -0.1583
      3 C           0.3476    2.1426   -0.7312 C.3     1  UNL1        0.1074
      4 H           1.2830    2.5181   -0.2951 H       1  UNL1        0.0696
      5 N           0.2163    2.8092   -2.0236 N.pl3   1  UNL1       -0.3248
      6 C          -0.7596    2.3807   -2.9212 C.ar    1  UNL1        0.0565
      7 C          -1.1554    3.2365   -3.9596 C.ar    1  UNL1       -0.0186
      8 C          -2.1081    2.8402   -4.9205 C.ar    1  UNL1        0.0691
      9 C          -2.6510    1.5545   -4.8666 C.ar    1  UNL1        0.1252
     10 C          -2.2289    0.6679   -3.8739 C.ar    1  UNL1       -0.0057
     11 C          -1.2867    1.0853   -2.9269 C.ar    1  UNL1        0.1282
     12 S          -0.7627   -0.0632   -1.7072 S.O2    1  UNL1        0.0641
     13 O          -0.2564   -1.2414   -2.3771 O.2     1  UNL1       -0.1527
     14 O          -1.8283   -0.1599   -0.7292 O.2     1  UNL1       -0.1527
     15 S          -3.8022    0.9819   -6.0875 S.O2    1  UNL1        0.0574
     16 O          -3.2454    1.2268   -7.3957 O.2     1  UNL1       -0.1532
     17 O          -4.2799   -0.3183   -5.6930 O.2     1  UNL1       -0.1532
     18 N          -5.1085    2.0130   -5.9001 N.3     1  UNL1       -0.2035
     19 CL         -2.5408    4.0251   -6.1006 Cl      1  UNL1       -0.0815
     20 C          -0.7952    2.5144    0.2432 C.3     1  UNL1        0.0559
     21 CL         -0.8839    4.2872    0.4928 Cl      1  UNL1       -0.1221
     22 H           0.9973   -1.1081    0.0416 H       1  UNL1        0.0409
     23 H           0.8218    0.2951    1.1045 H       1  UNL1        0.0409
     24 H           2.2586    0.1212    0.0687 H       1  UNL1        0.0409
     25 H           0.2743    3.8238   -1.9358 H       1  UNL1        0.1477
     26 H          -0.7216    4.2314   -4.0272 H       1  UNL1        0.0652
     27 H          -2.6146   -0.3496   -3.8325 H       1  UNL1        0.0658
     28 H          -5.0491    2.7880   -6.5661 H       1  UNL1        0.1442
     29 H          -5.9682    1.4720   -5.9929 H       1  UNL1        0.1442
     30 H          -1.7804    2.2149   -0.1194 H       1  UNL1        0.0462
     31 H          -0.6390    2.0608    1.2257 H       1  UNL1        0.0462
@<TRIPOS>BOND
     1     1     2    1
     2     1    22    1
     3     1    23    1
     4     1    24    1
     5     2    12    1
     6     2     3    1
     7     3     5    1
     8     5     6    1
     9     5    25    1
    10     6    11   ar
    11     6     7   ar
    12     7     8   ar
    13     7    26    1
    14     8     9   ar
    15     8    19    1
    16     9    10   ar
    17     9    15    1
    18    10    11   ar
    19    10    27    1
    20    11    12    1
    21    12    13    2
    22    12    14    2
    23    15    16    2
    24    15    17    2
    25    15    18    1
    26    18    28    1
    27    18    29    1
    28    20    21    1
    29    20    30    1
    30    20    31    1
    31     3    20    1
    32     3     4    1
