@<TRIPOS>MOLECULE
ZINC00020255
 28 28 0 0 0
SMALL
GASTEIGER

@<TRIPOS>ATOM
      1 C          -0.0463    2.3586   -1.1818 C.3     1  UNL1       -0.0078
      2 C           0.2362    1.5614    0.0785 C.3     1  UNL1        0.0901
      3 C           1.0734    0.2810   -0.1431 C.3     1  UNL1        0.0288
      4 C           2.5050    0.4338   -0.6285 C.ar    1  UNL1       -0.0375
      5 C           3.5177    0.8786    0.2408 C.ar    1  UNL1       -0.0547
      6 C           4.8521    0.9140   -0.1694 C.ar    1  UNL1       -0.0163
      7 C           5.1844    0.4592   -1.4342 C.ar    1  UNL1        0.1582
      8 C           4.1998    0.0183   -2.3119 C.ar    1  UNL1        0.1585
      9 C           2.8607    0.0138   -1.9247 C.ar    1  UNL1       -0.0131
     10 O           4.6037   -0.4286   -3.5396 O.3     1  UNL1       -0.5033
     11 O           6.5000    0.4075   -1.7942 O.3     1  UNL1       -0.5033
     12 C          -1.1015    1.0447    0.7116 C.2     1  UNL1        0.4057
     13 O          -1.1800    1.4210    1.9263 O.co2   1  UNL1       -0.2396
     14 O          -1.8677    0.3761   -0.0155 O.co2   1  UNL1       -0.2396
     15 N           0.9087    2.4947    1.0731 N.4     1  UNL1        0.2311
     16 H          -0.5201    1.7405   -1.9518 H       1  UNL1        0.0293
     17 H           0.8687    2.7843   -1.6063 H       1  UNL1        0.0293
     18 H          -0.7325    3.1876   -0.9693 H       1  UNL1        0.0293
     19 H           1.1125   -0.3082    0.7847 H       1  UNL1        0.0377
     20 H           0.5441   -0.3686   -0.8556 H       1  UNL1        0.0377
     21 H           3.2974    1.1468    1.2703 H       1  UNL1        0.0621
     22 H           5.6340    1.2478    0.5071 H       1  UNL1        0.0655
     23 H           2.0998   -0.3690   -2.5999 H       1  UNL1        0.0658
     24 H           3.8147   -0.6520   -4.0630 H       1  UNL1        0.2923
     25 H           6.5029   -0.0577   -2.6549 H       1  UNL1        0.2923
     26 H           0.8414    1.9947    1.9782 H       1  UNL1        0.2005
     27 H           1.8490    2.8137    0.8454 H       1  UNL1        0.2005
     28 H           0.2616    3.2754    1.2360 H       1  UNL1        0.2005
@<TRIPOS>UNITY_ATOM_ATTR
15 1
charge 1
@<TRIPOS>BOND
     1     1    16    1
     2     1    17    1
     3     1    18    1
     4     2    12    1
     5     2    15    1
     6     3     4    1
     7     3    19    1
     8     3    20    1
     9     4     9   ar
    10     4     5   ar
    11     5     6   ar
    12     5    21    1
    13     6     7   ar
    14     6    22    1
    15     7     8   ar
    16     7    11    1
    17     8     9   ar
    18     8    10    1
    19     9    23    1
    20    10    24    1
    21    11    25    1
    22    12    13   ar
    23    12    14   ar
    24    15    26    1
    25    15    27    1
    26    15    28    1
    27     2     3    1
    28     2     1    1
