@<TRIPOS>MOLECULE
ZINC00014037
 41 42 0 0 0
SMALL
GASTEIGER

@<TRIPOS>ATOM
      1 C           4.1528   -1.7814   -5.5521 C.3     1  UNL1       -0.0493
      2 C           3.5132   -1.4906   -4.2003 C.3     1  UNL1        0.0118
      3 N           4.4536   -1.5138   -3.0798 N.am    1  UNL1       -0.3013
      4 C           5.3357   -0.3411   -2.8489 C.3     1  UNL1        0.0118
      5 C           5.9160    0.4087   -4.0466 C.3     1  UNL1       -0.0493
      6 C           4.2472   -2.3326   -1.9465 C.2     1  UNL1        0.2265
      7 O           5.1099   -2.4454   -1.0837 O.2     1  UNL1       -0.2746
      8 C           3.0248   -3.2686   -1.8422 C.3     1  UNL1        0.0801
      9 C           3.2576   -4.5087   -0.9285 C.3     1  UNL1       -0.0256
     10 C           3.1210   -4.7056   -2.4055 C.3     1  UNL1        0.0183
     11 H           2.1953   -5.1704   -2.7350 H       1  UNL1        0.0366
     12 C           4.2316   -5.1946   -3.2602 C.3     1  UNL1       -0.0312
     13 N           5.5240   -5.3911   -2.5862 N.4     1  UNL1        0.2187
     14 C           1.5892   -2.7047   -1.6164 C.ar    1  UNL1       -0.0320
     15 C           1.2396   -2.0132   -0.4406 C.ar    1  UNL1       -0.0576
     16 C          -0.0999   -1.8430   -0.0636 C.ar    1  UNL1       -0.0615
     17 C          -1.1262   -2.3490   -0.8551 C.ar    1  UNL1       -0.0617
     18 C          -0.8174   -2.9549   -2.0666 C.ar    1  UNL1       -0.0615
     19 C           0.5172   -3.0980   -2.4525 C.ar    1  UNL1       -0.0576
     20 H           4.7828   -0.9633   -5.9151 H       1  UNL1        0.0245
     21 H           3.3765   -1.9333   -6.3058 H       1  UNL1        0.0245
     22 H           4.7752   -2.6786   -5.5142 H       1  UNL1        0.0245
     23 H           2.9779   -0.5362   -4.1915 H       1  UNL1        0.0462
     24 H           2.7713   -2.2764   -4.0604 H       1  UNL1        0.0462
     25 H           4.7487    0.3717   -2.2574 H       1  UNL1        0.0462
     26 H           6.1787   -0.6464   -2.2171 H       1  UNL1        0.0462
     27 H           5.1416    0.7712   -4.7275 H       1  UNL1        0.0245
     28 H           6.4622    1.2967   -3.7012 H       1  UNL1        0.0245
     29 H           6.6270   -0.2100   -4.6045 H       1  UNL1        0.0245
     30 H           4.2078   -4.5901   -0.4150 H       1  UNL1        0.0283
     31 H           2.4352   -4.8338   -0.2937 H       1  UNL1        0.0283
     32 H           3.9586   -6.1783   -3.6613 H       1  UNL1        0.0816
     33 H           4.4024   -4.5316   -4.1120 H       1  UNL1        0.0816
     34 H           5.4337   -6.0592   -1.8123 H       1  UNL1        0.1994
     35 H           6.2347   -5.7521   -3.2315 H       1  UNL1        0.1994
     36 H           2.0175   -1.6712    0.2420 H       1  UNL1        0.0621
     37 H          -0.3437   -1.3591    0.8813 H       1  UNL1        0.0618
     38 H          -2.1607   -2.2797   -0.5275 H       1  UNL1        0.0618
     39 H          -1.6153   -3.3554   -2.6899 H       1  UNL1        0.0618
     40 H           0.7110   -3.6145   -3.3895 H       1  UNL1        0.0621
     41 H           5.8681   -4.5059   -2.1789 H       1  UNL1        0.1994
@<TRIPOS>UNITY_ATOM_ATTR
13 1
charge 1
@<TRIPOS>BOND
     1     1     2    1
     2     1    20    1
     3     1    21    1
     4     1    22    1
     5     2     3    1
     6     2    23    1
     7     2    24    1
     8     3     4    1
     9     3     6   am
    10     4     5    1
    11     4    25    1
    12     4    26    1
    13     5    27    1
    14     5    28    1
    15     5    29    1
    16     6     7    2
    17     8    10    1
    18     8     9    1
    19     9    10    1
    20     9    30    1
    21     9    31    1
    22    10    11    1
    23    10    12    1
    24    12    13    1
    25    12    32    1
    26    12    33    1
    27    13    34    1
    28    13    35    1
    29    13    41    1
    30    14    19   ar
    31    14    15   ar
    32    15    16   ar
    33    15    36    1
    34    16    17   ar
    35    16    37    1
    36    17    18   ar
    37    17    38    1
    38    18    19   ar
    39    18    39    1
    40    19    40    1
    41     8    14    1
    42     8     6    1
