@<TRIPOS>MOLECULE
ZINC00073711
 21 23 0 0 0
SMALL
GASTEIGER

@<TRIPOS>ATOM
      1 C           2.1811   -0.6644    0.0702 C.ar    1  UNL1       -0.0597
      2 C           2.1361    0.7241   -0.0801 C.ar    1  UNL1       -0.0596
      3 C           0.9112    1.3949   -0.1814 C.ar    1  UNL1       -0.0342
      4 C          -0.2721    0.6459   -0.1201 C.ar    1  UNL1        0.0895
      5 C          -0.1976   -0.7321    0.0583 C.ar    1  UNL1        0.0665
      6 C           1.0095   -1.4286    0.1465 C.ar    1  UNL1       -0.0362
      7 N          -1.5065   -1.1319    0.1232 N.ar    1  UNL1       -0.3366
      8 H          -1.8560   -2.0669    0.2726 H       1  UNL1        0.1674
      9 C          -2.3007   -0.0262   -0.0462 C.ar    1  UNL1        0.1582
     10 N          -1.5780    1.0629   -0.2080 N.ar    1  UNL1       -0.2261
     11 C          -3.7851   -0.0825   -0.0224 C.ar    1  UNL1        0.1131
     12 C          -4.5759    1.0186   -0.2797 C.ar    1  UNL1        0.0061
     13 S          -6.2281    0.5926   -0.1160 S.2     1  UNL1       -0.0832
     14 C          -5.7530   -1.0092    0.2794 C.ar    1  UNL1        0.0655
     15 N          -4.4598   -1.2552    0.2763 N.ar    1  UNL1       -0.2444
     16 H           3.1470   -1.1622    0.1344 H       1  UNL1        0.0618
     17 H           3.0618    1.2937   -0.1207 H       1  UNL1        0.0618
     18 H           0.8679    2.4716   -0.3001 H       1  UNL1        0.0639
     19 H           1.0468   -2.5054    0.2697 H       1  UNL1        0.0639
     20 H          -4.2632    2.0189   -0.5440 H       1  UNL1        0.0716
     21 H          -6.4868   -1.7681    0.5177 H       1  UNL1        0.0907
@<TRIPOS>BOND
     1     1     6   ar
     2     1     2   ar
     3     1    16    1
     4     2     3   ar
     5     2    17    1
     6     3     4   ar
     7     3    18    1
     8     4    10   ar
     9     4     5   ar
    10     5     6   ar
    11     5     7   ar
    12     6    19    1
    13     7     8    1
    14     7     9   ar
    15     9    10   ar
    16     9    11    1
    17    11    15   ar
    18    11    12   ar
    19    12    13   ar
    20    12    20    1
    21    13    14   ar
    22    14    15   ar
    23    14    21    1
