@<TRIPOS>MOLECULE
ZINC03079342
 25 24 0 0 0
SMALL
GASTEIGER

@<TRIPOS>ATOM
      1 C           1.2654    0.5328    0.3722 C.3     1  UNL1       -0.0417
      2 N           0.6296   -0.1660    1.5677 N.4     1  UNL1        0.2393
      3 C           1.0315    0.5385    2.8601 C.3     1  UNL1       -0.0417
      4 C          -0.8960   -0.0813    1.4407 C.3     1  UNL1       -0.0417
      5 C           1.0073   -1.6611    1.6112 C.3     1  UNL1        0.0043
      6 C           2.5109   -1.9479    1.7457 C.3     1  UNL1        0.1336
      7 O           2.7523   -3.3632    1.7151 O.3     1  UNL1       -0.4452
      8 C           2.4377   -4.0120    2.8644 C.2     1  UNL1        0.3978
      9 O           1.9676   -3.4764    3.8521 O.2     1  UNL1       -0.2267
     10 N           2.6824   -5.3267    2.7436 N.am    1  UNL1       -0.2950
     11 H           0.7142    1.4557    0.1694 H       1  UNL1        0.0778
     12 H           1.2149   -0.1363   -0.4917 H       1  UNL1        0.0778
     13 H           2.3052    0.7686    0.6156 H       1  UNL1        0.0778
     14 H           0.6749    1.5715    2.8115 H       1  UNL1        0.0778
     15 H           0.5728    0.0102    3.7009 H       1  UNL1        0.0778
     16 H           2.1207    0.5273    2.9465 H       1  UNL1        0.0778
     17 H          -1.2035   -0.6584    0.5641 H       1  UNL1        0.0778
     18 H          -1.3415   -0.4955    2.3506 H       1  UNL1        0.0778
     19 H          -1.1793    0.9694    1.3275 H       1  UNL1        0.0778
     20 H           0.4359   -2.1072    2.4324 H       1  UNL1        0.0849
     21 H           0.6339   -2.1132    0.6837 H       1  UNL1        0.0849
     22 H           3.0601   -1.5214    0.9013 H       1  UNL1        0.0752
     23 H           2.9418   -1.5208    2.6575 H       1  UNL1        0.0752
     24 H           3.1041   -5.7035    1.9070 H       1  UNL1        0.1482
     25 H           2.5331   -5.9360    3.5394 H       1  UNL1        0.1482
@<TRIPOS>UNITY_ATOM_ATTR
2 1
charge 1
@<TRIPOS>BOND
     1     1     2    1
     2     1    11    1
     3     1    12    1
     4     1    13    1
     5     2     3    1
     6     2     4    1
     7     2     5    1
     8     3    14    1
     9     3    15    1
    10     3    16    1
    11     4    17    1
    12     4    18    1
    13     4    19    1
    14     5     6    1
    15     5    20    1
    16     5    21    1
    17     6     7    1
    18     6    22    1
    19     6    23    1
    20     7     8    1
    21     8     9    2
    22     8    10   am
    23    10    24    1
    24    10    25    1
