@<TRIPOS>MOLECULE
ZINC03812897
 46 49 0 0 0
SMALL
GASTEIGER

@<TRIPOS>ATOM
      1 C           0.4612    0.3009   -1.0813 C.3     1  UNL1       -0.0558
      2 C           2.1746    0.3553   -0.3681 C.3     1  UNL1        0.0111
      3 C           2.9809    0.8581   -1.5280 C.3     1  UNL1       -0.0433
      4 C           2.5693    0.1087   -2.7435 C.3     1  UNL1       -0.0453
      5 C           2.7458   -1.3503   -2.4077 C.3     1  UNL1       -0.0125
      6 H           3.8483   -1.4613   -2.2616 H       1  UNL1        0.0352
      7 C           2.4123   -2.2352   -3.5691 C.ar    1  UNL1       -0.0406
      8 C           2.2556   -1.7180   -4.8805 C.ar    1  UNL1       -0.0546
      9 C           1.8765   -2.5375   -5.9248 C.ar    1  UNL1       -0.0199
     10 C           1.6655   -3.8799   -5.7137 C.ar    1  UNL1        0.1171
     11 C           1.8842   -4.4559   -4.4499 C.ar    1  UNL1       -0.0167
     12 C           2.2518   -3.6215   -3.3608 C.ar    1  UNL1       -0.0405
     13 C           2.4578   -4.2197   -1.9514 C.3     1  UNL1       -0.0270
     14 C           2.8171   -3.1876   -0.8279 C.3     1  UNL1       -0.0454
     15 C           1.9953   -1.8438   -1.0563 C.3     1  UNL1       -0.0305
     16 H           1.0074   -2.2300   -1.2970 H       1  UNL1        0.0310
     17 C           1.6651   -0.7950    0.3089 C.3     1  UNL1       -0.0286
     18 H           2.2572   -1.3203    1.0568 H       1  UNL1        0.0310
     19 C           0.9151    0.8855    1.0268 C.3     1  UNL1       -0.0458
     20 C           2.1041    1.9725    1.2360 C.3     1  UNL1       -0.0118
     21 C           2.9768    0.8099    1.1836 C.3     1  UNL1        0.1317
     22 C           2.4935    0.1786    2.4790 C.1     1  UNL1       -0.0704
     23 C           2.0789   -0.3629    3.5903 C.1     1  UNL1       -0.1163
     24 O           4.3546    0.9720    1.0730 O.3     1  UNL1       -0.3760
     25 O           1.2503   -4.6163   -6.7862 O.3     1  UNL1       -0.5068
     26 H          -0.3304   -0.0771   -0.3757 H       1  UNL1        0.0236
     27 H           0.1308    1.2575   -1.4867 H       1  UNL1        0.0236
     28 H           0.3108   -0.4673   -1.8451 H       1  UNL1        0.0236
     29 H           2.7731    1.9172   -1.6929 H       1  UNL1        0.0272
     30 H           4.0464    0.7515   -1.3639 H       1  UNL1        0.0272
     31 H           1.5848    0.3289   -3.0968 H       1  UNL1        0.0271
     32 H           3.2200    0.4585   -3.5969 H       1  UNL1        0.0271
     33 H           2.4509   -0.6837   -5.0953 H       1  UNL1        0.0622
     34 H           1.7251   -2.1121   -6.9220 H       1  UNL1        0.0654
     35 H           1.7165   -5.5050   -4.2906 H       1  UNL1        0.0657
     36 H           3.2224   -5.0009   -2.0198 H       1  UNL1        0.0313
     37 H           1.5071   -4.6917   -1.6839 H       1  UNL1        0.0313
     38 H           3.9075   -3.0049   -0.8840 H       1  UNL1        0.0271
     39 H           2.6532   -3.6427    0.1515 H       1  UNL1        0.0271
     40 H           0.3327    0.6744    1.9458 H       1  UNL1        0.0269
     41 H           0.2113    1.5307    0.4816 H       1  UNL1        0.0269
     42 H           2.1411    2.5442    2.1722 H       1  UNL1        0.0303
     43 H           2.3306    2.6674    0.4104 H       1  UNL1        0.0303
     44 H           1.7396   -0.8089    4.4968 H       1  UNL1        0.1229
     45 H           4.6912    1.2028    1.9551 H       1  UNL1        0.2114
     46 H           1.0361   -5.5324   -6.4788 H       1  UNL1        0.2921
@<TRIPOS>BOND
     1     1    26    1
     2     1    27    1
     3     1    28    1
     4     2     1    1
     5     2    17    1
     6     2    21    1
     7     2     3    1
     8     3     4    1
     9     3    29    1
    10     3    30    1
    11     4     5    1
    12     4    31    1
    13     4    32    1
    14     5     6    1
    15     5    15    1
    16     5     7    1
    17     7    12   ar
    18     7     8   ar
    19     8     9   ar
    20     8    33    1
    21     9    10   ar
    22     9    34    1
    23    10    11   ar
    24    10    25    1
    25    11    12   ar
    26    11    35    1
    27    12    13    1
    28    13    14    1
    29    13    36    1
    30    13    37    1
    31    14    15    1
    32    14    38    1
    33    14    39    1
    34    15    16    1
    35    15    17    1
    36    17    18    1
    37    17    19    1
    38    19    20    1
    39    19    40    1
    40    19    41    1
    41    20    21    1
    42    20    42    1
    43    20    43    1
    44    21    22    1
    45    21    24    1
    46    22    23    3
    47    23    44    1
    48    24    45    1
    49    25    46    1
