@<TRIPOS>MOLECULE
ZINC03872449
 12 11 0 0 0
SMALL
GASTEIGER

@<TRIPOS>ATOM
      1 C           1.1833    0.0539   -0.1152 C.3     1  UNL1        0.2635
      2 H           1.5015    0.6878   -0.9482 H       1  UNL1        0.0914
      3 C           0.3850    0.8850    0.8981 C.3     1  UNL1        0.4059
      4 O          -0.1503    0.1172    1.9530 O.3     1  UNL1       -0.2553
      5 C          -0.8324    0.9560    2.8481 C.3     1  UNL1        0.3509
      6 F          -1.9755    1.3818    2.2668 F       1  UNL1       -0.1782
      7 F          -1.2006    0.1870    3.9029 F       1  UNL1       -0.1782
      8 F           1.1707    1.8585    1.4311 F       1  UNL1       -0.1704
      9 F          -0.6278    1.5240    0.2565 F       1  UNL1       -0.1704
     10 F           0.4156   -0.9465   -0.6314 F       1  UNL1       -0.2191
     11 CL          2.6522   -0.6650    0.5969 Cl      1  UNL1       -0.0763
     12 H          -0.2430    1.8008    3.2182 H       1  UNL1        0.1362
@<TRIPOS>BOND
     1     1    10    1
     2     1    11    1
     3     3     4    1
     4     3     8    1
     5     3     9    1
     6     4     5    1
     7     5     6    1
     8     5     7    1
     9     5    12    1
    10     1     3    1
    11     1     2    1
