@<TRIPOS>MOLECULE
ZINC00002159
 31 32 0 0 0
SMALL
GASTEIGER

@<TRIPOS>ATOM
      1 C5M        -2.4423    4.2740   -7.3237 C.3     1    T1       -0.0332
      2 C5         -1.2224    3.4583   -7.0484 C.ar    1    T1        0.0302
      3 C6         -1.2124    2.3334   -6.3229 C.ar    1    T1        0.0199
      4 N1         -0.0555    1.6217   -6.0371 N.ar    1    T1       -0.2737
      5 C2          1.1833    2.0984   -6.4526 C.ar    1    T1        0.3313
      6 O2          2.2709    1.6472   -6.1051 O.2     1    T1       -0.2464
      7 N3          1.1510    3.1688   -7.3115 N.ar    1    T1       -0.2747
      8 H3          2.0441    3.5233   -7.6149 H       1    T1        0.1734
      9 C4          0.0651    3.9436   -7.5864 C.ar    1    T1        0.2568
     10 O4          0.1551    4.9927   -8.2144 O.2     1    T1       -0.2674
     11 C1*        -0.1192    0.5396   -5.0424 C.3     1    T1        0.1422
     12 H1*        -0.0616    1.0131   -4.0534 H       1    T1        0.0840
     13 C2*         0.9233   -0.5703   -5.1546 C.3     1    T1        0.0214
     14 C3*         0.2307   -1.7262   -4.4794 C.3     1    T1        0.0876
     15 H3*         0.6622   -2.6981   -4.7337 H       1    T1        0.0621
     16 C4*        -1.2109   -1.5460   -4.9274 C.3     1    T1        0.1100
     17 H4*        -1.9301   -1.8619   -4.1641 H       1    T1        0.0646
     18 O4*        -1.4082   -0.1251   -5.1259 O.3     1    T1       -0.3483
     19 C5*        -1.5067   -2.2540   -6.2537 C.3     1    T1        0.0729
     20 O5*        -2.8932   -2.1361   -6.5717 O.3     1    T1       -0.3924
     21 O3*         0.3425   -1.5497   -3.0654 O.3     1    T1       -0.3890
     22 H5M1       -3.3572    3.7388   -7.0489 H       1    T1        0.0280
     23 H5M2       -2.5155    4.5248   -8.3869 H       1    T1        0.0280
     24 H5M3       -2.4121    5.2058   -6.7489 H       1    T1        0.0280
     25 H6         -2.1368    1.9574   -5.8929 H       1    T1        0.0816
     26 H2*1        1.8632   -0.3004   -4.6638 H       1    T1        0.0335
     27 H2*2        1.1250   -0.8126   -6.2043 H       1    T1        0.0335
     28 H5*1       -0.9384   -1.8183   -7.0819 H       1    T1        0.0584
     29 H5*2       -1.2738   -3.3208   -6.1877 H       1    T1        0.0584
     30 H5*        -3.1813   -1.2623   -6.2467 H       1    T1        0.2095
     31 H3*        -0.0580   -2.3249   -2.6332 H       1    T1        0.2099
@<TRIPOS>BOND
     1     1     2    1
     2     1    22    1
     3     1    23    1
     4     1    24    1
     5     2     9   ar
     6     2     3   ar
     7     3     4   ar
     8     3    25    1
     9     4     5   ar
    10     5     6    2
    11     5     7   ar
    12     7     8    1
    13     7     9   ar
    14     9    10    2
    15    11    18    1
    16    11    13    1
    17    13    14    1
    18    13    26    1
    19    13    27    1
    20    14    15    1
    21    14    16    1
    22    14    21    1
    23    16    18    1
    24    19    20    1
    25    19    28    1
    26    19    29    1
    27    20    30    1
    28    21    31    1
    29    11    12    1
    30    11     4    1
    31    16    19    1
    32    16    17    1
