@<TRIPOS>MOLECULE
ZINC03787060
 31 33 0 0 0
SMALL
GASTEIGER

@<TRIPOS>ATOM
      1 C           3.0409   -0.6441    1.2348 C.3     1  UNL1       -0.0358
      2 C           2.6122   -0.0417   -0.1265 C.3     1  UNL1        0.1352
      3 C           3.2609   -0.5960   -1.4272 C.3     1  UNL1        0.1552
      4 H           2.6490   -1.3874   -1.8737 H       1  UNL1        0.0641
      5 N           3.3223    0.5099   -2.4001 N.am    1  UNL1       -0.2630
      6 C           3.5423    1.8788   -1.9195 C.3     1  UNL1        0.1536
      7 H           4.5524    2.2524   -2.1119 H       1  UNL1        0.0750
      8 S           3.1264    1.7505   -0.1805 S.O2    1  UNL1       -0.0022
      9 O           1.9587    2.5719    0.0800 O.2     1  UNL1       -0.1719
     10 O           4.3057    1.9682    0.6385 O.2     1  UNL1       -0.1719
     11 C           2.4540    2.3129   -2.9153 C.3     1  UNL1        0.0629
     12 C           2.4279    0.8426   -3.3543 C.2     1  UNL1        0.2212
     13 O           1.7690    0.1725   -4.1107 O.2     1  UNL1       -0.2754
     14 C           4.6741   -1.1698   -1.1607 C.2     1  UNL1        0.3783
     15 O           5.6159   -0.3413   -1.2293 O.co2   1  UNL1       -0.2442
     16 O           4.6853   -2.4066   -0.8921 O.co2   1  UNL1       -0.2442
     17 C           1.0625   -0.0257   -0.2054 C.3     1  UNL1        0.0703
     18 N           0.3397   -1.2823   -0.1862 N.ar    1  UNL1       -0.2495
     19 C           0.7812   -2.5666   -0.0908 C.ar    1  UNL1        0.0455
     20 C          -0.3679   -3.3172   -0.1162 C.ar    1  UNL1        0.0693
     21 N          -1.4522   -2.4933   -0.1827 N.ar    1  UNL1       -0.1380
     22 N          -1.0100   -1.2430   -0.2113 N.ar    1  UNL1       -0.0657
     23 H           3.4192    0.1046    1.9344 H       1  UNL1        0.0252
     24 H           2.2006   -1.1168    1.7583 H       1  UNL1        0.0252
     25 H           3.8023   -1.4193    1.1528 H       1  UNL1        0.0252
     26 H           1.4924    2.6348   -2.4981 H       1  UNL1        0.0393
     27 H           2.7756    3.0153   -3.6877 H       1  UNL1        0.0393
     28 H           0.6629    0.5325    0.6568 H       1  UNL1        0.0532
     29 H           0.7171    0.4989   -1.1032 H       1  UNL1        0.0532
     30 H           1.8231   -2.8465   -0.0230 H       1  UNL1        0.0842
     31 H          -0.4691   -4.3918   -0.0844 H       1  UNL1        0.0864
@<TRIPOS>BOND
     1     1    23    1
     2     1    24    1
     3     1    25    1
     4     2     8    1
     5     2     3    1
     6     3     5    1
     7     5    12   am
     8     5     6    1
     9     6     7    1
    10     6     8    1
    11     6    11    1
    12     8     9    2
    13     8    10    2
    14    11    12    1
    15    11    26    1
    16    11    27    1
    17    12    13    2
    18    14    15   ar
    19    14    16   ar
    20    17    18    1
    21    17    28    1
    22    17    29    1
    23    18    22   ar
    24    18    19   ar
    25    19    20   ar
    26    19    30    1
    27    20    21   ar
    28    20    31    1
    29    21    22   ar
    30     2    17    1
    31     2     1    1
    32     3    14    1
    33     3     4    1
