@<TRIPOS>MOLECULE
ZINC00901552
 14 13 0 0 0
SMALL
GASTEIGER

@<TRIPOS>ATOM
      1 C           1.0660   -0.0850   -0.0763 C.3     1  UNL1        0.0565
      2 C           0.4844    0.8971    0.9482 C.3     1  UNL1        0.0341
      3 H           0.8413    1.9034    0.6958 H       1  UNL1        0.0440
      4 C          -1.0523    0.9274    0.9559 C.3     1  UNL1        0.0044
      5 S          -1.8987   -0.6318    1.3844 S.3     1  UNL1       -0.1771
      6 S           1.1921    0.5474    2.6118 S.3     1  UNL1       -0.1718
      7 O           2.4822    0.0530   -0.1661 O.3     1  UNL1       -0.3939
      8 H           0.6587    0.1239   -1.0714 H       1  UNL1        0.0568
      9 H           0.8418   -1.1293    0.1622 H       1  UNL1        0.0568
     10 H          -1.4031    1.6920    1.6584 H       1  UNL1        0.0385
     11 H          -1.4126    1.2250   -0.0352 H       1  UNL1        0.0385
     12 H          -1.5231   -1.3337    0.3054 H       1  UNL1        0.1017
     13 H           0.5537    1.5310    3.2637 H       1  UNL1        0.1020
     14 H           2.8296   -0.0919    0.7356 H       1  UNL1        0.2094
@<TRIPOS>BOND
     1     1     2    1
     2     1     7    1
     3     1     8    1
     4     1     9    1
     5     2     3    1
     6     2     4    1
     7     2     6    1
     8     4     5    1
     9     4    10    1
    10     4    11    1
    11     5    12    1
    12     6    13    1
    13     7    14    1
