@<TRIPOS>MOLECULE
ZINC00607849
 55 57 0 0 0
SMALL
GASTEIGER

@<TRIPOS>ATOM
      1 C           0.8152    2.5600   -6.5494 C.3     1  UNL1       -0.0428
      2 C          -1.2909    2.0243   -5.3029 C.3     1  UNL1       -0.0319
      3 C          -2.0499    1.4307   -6.4788 C.3     1  UNL1       -0.0123
      4 C          -1.6518    0.0020   -6.8350 C.3     1  UNL1       -0.0432
      5 C          -0.1559   -0.3153   -6.7450 C.3     1  UNL1       -0.0095
      6 C           0.5455    0.2781   -5.5002 C.3     1  UNL1       -0.0208
      7 H           1.6289    0.2242   -5.6161 H       1  UNL1        0.0851
      8 C           0.1497   -0.5237   -4.2427 C.3     1  UNL1       -0.0056
      9 C           0.5582    0.0487   -2.8904 C.3     1  UNL1       -0.0208
     10 C           1.9968    0.0609   -2.4317 C.ar    1  UNL1       -0.0260
     11 C           2.6537   -1.1832   -2.3041 C.ar    1  UNL1       -0.0568
     12 C           3.9079   -1.2857   -1.6920 C.ar    1  UNL1       -0.0614
     13 C           4.5459   -0.1499   -1.2099 C.ar    1  UNL1       -0.0600
     14 C           3.9514    1.0954   -1.3866 C.ar    1  UNL1       -0.0402
     15 C           2.6772    1.2131   -1.9700 C.ar    1  UNL1        0.0369
     16 N           2.1941    2.5284   -2.0502 N.am    1  UNL1       -0.2813
     17 C           0.9996    3.0976   -1.6597 C.2     1  UNL1        0.2483
     18 O           0.7209    4.2177   -2.0875 O.2     1  UNL1       -0.2699
     19 C           0.0206    2.3706   -0.8063 C.ar    1  UNL1        0.0372
     20 C          -1.3391    2.6247   -1.0237 C.ar    1  UNL1       -0.0462
     21 C          -2.2998    1.7658   -0.4892 C.ar    1  UNL1       -0.0192
     22 C          -1.9085    0.6507    0.2536 C.ar    1  UNL1        0.1201
     23 C          -0.5659    0.4802    0.5879 C.ar    1  UNL1       -0.0192
     24 C           0.3962    1.3629    0.0875 C.ar    1  UNL1       -0.0462
     25 O          -2.9131   -0.1949    0.6303 O.3     1  UNL1       -0.4951
     26 C          -2.5635   -1.5783    0.6416 C.3     1  UNL1        0.0788
     27 H           0.6688    3.6197   -6.3301 H       1  UNL1        0.0778
     28 H           1.8808    2.3215   -6.5872 H       1  UNL1        0.0778
     29 H           0.3359    2.3017   -7.4973 H       1  UNL1        0.0778
     30 H          -1.6261    1.6018   -4.3514 H       1  UNL1        0.0814
     31 H          -1.4267    3.1098   -5.2461 H       1  UNL1        0.0814
     32 H          -3.1253    1.4579   -6.2588 H       1  UNL1        0.0317
     33 H          -1.9178    2.0706   -7.3585 H       1  UNL1        0.0317
     34 H          -2.2024   -0.6912   -6.1868 H       1  UNL1        0.0269
     35 H          -1.9914   -0.2176   -7.8569 H       1  UNL1        0.0269
     36 H          -0.0176   -1.3999   -6.7567 H       1  UNL1        0.0320
     37 H           0.3462    0.0524   -7.6443 H       1  UNL1        0.0320
     38 H          -0.9445   -0.6229   -4.2103 H       1  UNL1        0.0323
     39 H           0.5260   -1.5486   -4.3433 H       1  UNL1        0.0323
     40 H           0.1350    1.0439   -2.8547 H       1  UNL1        0.0316
     41 H           0.0149   -0.5323   -2.1325 H       1  UNL1        0.0316
     42 H           2.1745   -2.1041   -2.6285 H       1  UNL1        0.0621
     43 H           4.3780   -2.2591   -1.5597 H       1  UNL1        0.0618
     44 H           5.4916   -0.2316   -0.6771 H       1  UNL1        0.0618
     45 H           4.4563    1.9704   -0.9765 H       1  UNL1        0.0636
     46 H           2.8979    3.2541   -2.1875 H       1  UNL1        0.1551
     47 H          -1.6531    3.4595   -1.6467 H       1  UNL1        0.0626
     48 H          -3.3551    1.9408   -0.6849 H       1  UNL1        0.0654
     49 H          -0.2355   -0.3373    1.2196 H       1  UNL1        0.0654
     50 H           1.4374    1.1962    0.3501 H       1  UNL1        0.0626
     51 H          -2.2012   -1.9003   -0.3421 H       1  UNL1        0.0660
     52 H          -1.8295   -1.8075    1.4195 H       1  UNL1        0.0660
     53 H          -3.4691   -2.1491    0.8679 H       1  UNL1        0.0660
     54 N           0.1884    1.7563   -5.4251 N.4     1  UNL1        0.2352
     55 H           0.6298    2.1383   -4.5761 H       1  UNL1        0.2033
@<TRIPOS>UNITY_ATOM_ATTR
54 1
charge 1
@<TRIPOS>BOND
     1     1    27    1
     2     1    28    1
     3     1    29    1
     4     2     3    1
     5     2    30    1
     6     2    31    1
     7     2    54    1
     8     3     4    1
     9     3    32    1
    10     3    33    1
    11     4     5    1
    12     4    34    1
    13     4    35    1
    14     5     6    1
    15     5    36    1
    16     5    37    1
    17     6     7    1
    18     6     8    1
    19     6    54    1
    20     8     9    1
    21     8    38    1
    22     8    39    1
    23     9    10    1
    24     9    40    1
    25     9    41    1
    26    10    15   ar
    27    10    11   ar
    28    11    12   ar
    29    11    42    1
    30    12    13   ar
    31    12    43    1
    32    13    14   ar
    33    13    44    1
    34    14    15   ar
    35    14    45    1
    36    15    16    1
    37    16    17   am
    38    16    46    1
    39    17    18    2
    40    17    19    1
    41    19    24   ar
    42    19    20   ar
    43    20    21   ar
    44    20    47    1
    45    21    22   ar
    46    21    48    1
    47    22    23   ar
    48    22    25    1
    49    23    24   ar
    50    23    49    1
    51    24    50    1
    52    25    26    1
    53    26    51    1
    54    26    52    1
    55    26    53    1
    56    54    55    1
    57    54     1    1
