@<TRIPOS>MOLECULE
ZINC00897291
 27 28 0 0 0
SMALL
GASTEIGER

@<TRIPOS>ATOM
      1 C          -0.7442   -1.1891    1.3779 C.3     1  UNL1       -0.0488
      2 C           0.6476   -0.5972    1.2045 C.3     1  UNL1        0.0211
      3 N           1.0784    0.1022    2.3959 N.am    1  UNL1       -0.2245
      4 C           1.5489   -0.5180    3.5237 C.2     1  UNL1        0.2479
      5 O           1.7719   -1.7162    3.6501 O.2     1  UNL1       -0.2727
      6 C           1.6902    0.5371    4.6279 C.3     1  UNL1        0.1267
      7 H           2.7350    0.6093    4.9450 H       1  UNL1        0.0646
      8 N           1.3652    1.7300    3.8826 N.am    1  UNL1       -0.2836
      9 C           0.9049    1.4348    2.6218 C.2     1  UNL1        0.3094
     10 O           0.3973    2.2539    1.8777 O.2     1  UNL1       -0.2522
     11 C           0.7351    0.3249    5.7794 C.ar    1  UNL1       -0.0183
     12 C          -0.6577    0.3443    5.5813 C.ar    1  UNL1       -0.0563
     13 C          -1.5356    0.1915    6.6535 C.ar    1  UNL1       -0.0614
     14 C          -1.0364    0.0090    7.9392 C.ar    1  UNL1       -0.0617
     15 C           0.3406   -0.0383    8.1505 C.ar    1  UNL1       -0.0614
     16 C           1.2230    0.1149    7.0776 C.ar    1  UNL1       -0.0563
     17 H          -0.7554   -1.9395    2.1761 H       1  UNL1        0.0245
     18 H          -1.0713   -1.6727    0.4530 H       1  UNL1        0.0245
     19 H          -1.4731   -0.4156    1.6405 H       1  UNL1        0.0245
     20 H           1.3617   -1.4002    0.9938 H       1  UNL1        0.0467
     21 H           0.6468    0.1015    0.3612 H       1  UNL1        0.0467
     22 H           1.2053    2.6380    4.2948 H       1  UNL1        0.1513
     23 H          -1.0761    0.4877    4.5871 H       1  UNL1        0.0621
     24 H          -2.6086    0.2201    6.4822 H       1  UNL1        0.0618
     25 H          -1.7213   -0.0993    8.7759 H       1  UNL1        0.0618
     26 H           0.7267   -0.1924    9.1551 H       1  UNL1        0.0618
     27 H           2.2933    0.0706    7.2692 H       1  UNL1        0.0621
@<TRIPOS>BOND
     1     1     2    1
     2     1    17    1
     3     1    18    1
     4     1    19    1
     5     2     3    1
     6     2    20    1
     7     2    21    1
     8     3     9   am
     9     3     4   am
    10     4     5    2
    11     4     6    1
    12     6     7    1
    13     6     8    1
    14     6    11    1
    15     8     9   am
    16     8    22    1
    17     9    10    2
    18    11    16   ar
    19    11    12   ar
    20    12    13   ar
    21    12    23    1
    22    13    14   ar
    23    13    24    1
    24    14    15   ar
    25    14    25    1
    26    15    16   ar
    27    15    26    1
    28    16    27    1
