@<TRIPOS>MOLECULE
ZINC03814394
 49 52 0 0 0
SMALL
GASTEIGER

@<TRIPOS>ATOM
      1 C           1.2735   -0.5074    2.5599 C.3     1  UNL1       -0.0646
      2 C           0.7292   -1.0321    1.2527 C.3     1  UNL1       -0.0458
      3 C           0.4463   -2.6603    0.8889 C.3     1  UNL1        0.0208
      4 C           1.7359   -3.4088    1.2308 C.3     1  UNL1       -0.0427
      5 C           2.9606   -2.7639    0.5369 C.3     1  UNL1       -0.0487
      6 C           2.7448   -2.7505   -0.9721 C.3     1  UNL1       -0.0311
      7 H           2.7597   -3.8267   -1.2146 H       1  UNL1        0.0309
      8 C           1.3203   -2.1943   -1.4844 C.3     1  UNL1       -0.0305
      9 H           1.3483   -1.0991   -1.5348 H       1  UNL1        0.0310
     10 C           0.1032   -2.5991   -0.6108 C.3     1  UNL1       -0.0102
     11 H          -0.1790   -3.5796   -1.0037 H       1  UNL1        0.0352
     12 C          -1.2275   -1.8035   -0.3685 C.2     1  UNL1       -0.0803
     13 C          -1.7382   -2.1401    0.8717 C.2     1  UNL1       -0.0439
     14 C          -0.9385   -3.3169    1.3679 C.3     1  UNL1        0.1508
     15 C          -1.7437   -4.3904    0.6070 C.1     1  UNL1       -0.0661
     16 C          -2.6542   -4.8252   -0.0460 C.1     1  UNL1       -0.1160
     17 O          -0.9698   -3.6437    2.7301 O.3     1  UNL1       -0.3724
     18 C           1.1507   -2.7111   -2.9529 C.3     1  UNL1       -0.0457
     19 C           2.3506   -2.3882   -3.8625 C.3     1  UNL1       -0.0308
     20 C           3.6360   -2.7589   -3.1876 C.2     1  UNL1       -0.0629
     21 C           4.6209   -3.4818   -3.7604 C.2     1  UNL1       -0.0197
     22 C           5.8387   -2.5884   -3.9021 C.2     1  UNL1        0.1561
     23 O           6.7055   -2.8615   -4.7258 O.2     1  UNL1       -0.2927
     24 C           5.8928   -1.3688   -2.9980 C.3     1  UNL1        0.0104
     25 C           5.2848   -1.7626   -1.6178 C.3     1  UNL1       -0.0392
     26 C           3.7927   -2.0340   -1.8664 C.3     1  UNL1       -0.0160
     27 H           3.4184   -1.0084   -1.9971 H       1  UNL1        0.0349
     28 H           1.0977    0.5822    2.5618 H       1  UNL1        0.0230
     29 H           2.3574   -0.6198    2.6305 H       1  UNL1        0.0230
     30 H           0.7721   -0.9237    3.4288 H       1  UNL1        0.0230
     31 H          -0.1525   -0.4066    1.0753 H       1  UNL1        0.0269
     32 H           1.4213   -0.6428    0.4937 H       1  UNL1        0.0269
     33 H           1.8968   -3.4008    2.3157 H       1  UNL1        0.0272
     34 H           1.6585   -4.4620    0.9352 H       1  UNL1        0.0272
     35 H           3.1742   -1.7614    0.9134 H       1  UNL1        0.0268
     36 H           3.8510   -3.3530    0.7903 H       1  UNL1        0.0268
     37 H          -1.5818   -0.9483   -0.9131 H       1  UNL1        0.0573
     38 H          -2.5199   -1.6860    1.4599 H       1  UNL1        0.0607
     39 H          -3.5526   -4.8780   -0.6387 H       1  UNL1        0.1229
     40 H          -0.9738   -4.6248    2.7623 H       1  UNL1        0.2117
     41 H           0.2424   -2.2926   -3.3961 H       1  UNL1        0.0271
     42 H           1.0278   -3.8034   -2.9341 H       1  UNL1        0.0271
     43 H           2.3780   -1.3080   -4.0531 H       1  UNL1        0.0310
     44 H           2.2566   -2.8878   -4.8298 H       1  UNL1        0.0310
     45 H           5.0954   -4.2655   -3.1464 H       1  UNL1        0.0652
     46 H           6.9233   -1.0162   -2.9161 H       1  UNL1        0.0345
     47 H           5.3035   -0.5770   -3.4856 H       1  UNL1        0.0345
     48 H           5.4108   -0.9165   -0.9318 H       1  UNL1        0.0275
     49 H           5.8185   -2.6224   -1.1997 H       1  UNL1        0.0275
@<TRIPOS>BOND
     1     1     2    1
     2     1    28    1
     3     1    29    1
     4     1    30    1
     5     2    31    1
     6     2    32    1
     7     3     2    1
     8     3    10    1
     9     3    14    1
    10     3     4    1
    11     4     5    1
    12     4    33    1
    13     4    34    1
    14     5     6    1
    15     5    35    1
    16     5    36    1
    17     6     7    1
    18     6    26    1
    19     6     8    1
    20     8     9    1
    21     8    10    1
    22     8    18    1
    23    10    11    1
    24    10    12    1
    25    12    13    2
    26    12    37    1
    27    13    14    1
    28    13    38    1
    29    14    15    1
    30    14    17    1
    31    15    16    3
    32    16    39    1
    33    17    40    1
    34    18    19    1
    35    18    41    1
    36    18    42    1
    37    19    20    1
    38    19    43    1
    39    19    44    1
    40    20    26    1
    41    20    21    2
    42    21    22    1
    43    21    45    1
    44    22    23    2
    45    22    24    1
    46    24    25    1
    47    24    46    1
    48    24    47    1
    49    25    26    1
    50    25    48    1
    51    25    49    1
    52    26    27    1
