@<TRIPOS>MOLECULE
ZINC00621893
 56 58 0 0 0
SMALL
GASTEIGER

@<TRIPOS>ATOM
      1 C          -2.2642   -4.6038   -1.1764 C.3     1  UNL1        0.0333
      2 C          -1.3652   -3.6825   -0.4043 C.2     1  UNL1        0.3047
      3 O          -1.4732   -2.4659   -0.3672 O.2     1  UNL1       -0.2511
      4 O          -0.4307   -4.3941    0.2850 O.3     1  UNL1       -0.4506
      5 C           0.3824   -3.6025    1.1753 C.3     1  UNL1        0.1947
      6 H           0.7806   -2.7737    0.5780 H       1  UNL1        0.0848
      7 C           1.5737   -4.4293    1.7157 C.3     1  UNL1        0.0805
      8 H           2.2794   -4.5606    0.8840 H       1  UNL1        0.0506
      9 S           2.5776   -3.5785    3.0361 S.3     1  UNL1       -0.1111
     10 C           2.4090   -1.8617    2.5561 C.ar    1  UNL1        0.0300
     11 C           3.5823   -1.1364    2.3088 C.ar    1  UNL1       -0.0465
     12 C           3.5285    0.2283    2.0183 C.ar    1  UNL1       -0.0606
     13 C           2.3022    0.8823    1.9698 C.ar    1  UNL1       -0.0599
     14 C           1.1293    0.1813    2.2474 C.ar    1  UNL1       -0.0392
     15 C           1.1698   -1.1836    2.5670 C.ar    1  UNL1        0.0500
     16 N          -0.0346   -1.8523    2.9336 N.am    1  UNL1       -0.2622
     17 C          -0.4469   -3.0553    2.3515 C.2     1  UNL1        0.2623
     18 O          -1.4540   -3.6331    2.7691 O.2     1  UNL1       -0.2711
     19 C          -0.9630   -1.1939    3.8631 C.3     1  UNL1        0.0600
     20 C          -1.1326   -1.9489    5.2012 C.3     1  UNL1       -0.0158
     21 N           0.2002   -2.2548    5.8772 N.4     1  UNL1        0.2320
     22 C           0.9468   -1.0412    6.3524 C.3     1  UNL1       -0.0433
     23 C           0.0202   -3.2406    7.0047 C.3     1  UNL1       -0.0433
     24 C           1.1447   -5.8362    2.1472 C.ar    1  UNL1       -0.0299
     25 C           0.6649   -6.1364    3.4319 C.ar    1  UNL1       -0.0539
     26 C           0.1447   -7.4021    3.7229 C.ar    1  UNL1       -0.0197
     27 C           0.0624   -8.3793    2.7330 C.ar    1  UNL1        0.1201
     28 C           0.5792   -8.1145    1.4682 C.ar    1  UNL1       -0.0197
     29 C           1.1183   -6.8565    1.1819 C.ar    1  UNL1       -0.0539
     30 O          -0.5163   -9.5597    3.1082 O.3     1  UNL1       -0.4951
     31 C          -1.2395  -10.2270    2.0763 C.3     1  UNL1        0.0788
     32 H          -2.9059   -4.0088   -1.8347 H       1  UNL1        0.0342
     33 H          -2.8908   -5.1692   -0.4864 H       1  UNL1        0.0342
     34 H          -1.6696   -5.2777   -1.7977 H       1  UNL1        0.0342
     35 H           4.5568   -1.6220    2.3459 H       1  UNL1        0.0629
     36 H           4.4467    0.7825    1.8248 H       1  UNL1        0.0618
     37 H           2.2588    1.9394    1.7111 H       1  UNL1        0.0618
     38 H           0.1830    0.7113    2.1632 H       1  UNL1        0.0636
     39 H          -0.6420   -0.1707    4.0795 H       1  UNL1        0.0521
     40 H          -1.9403   -1.1226    3.3712 H       1  UNL1        0.0521
     41 H          -1.7322   -1.3649    5.9073 H       1  UNL1        0.0830
     42 H          -1.6256   -2.9128    5.0465 H       1  UNL1        0.0830
     43 H           0.3712   -0.5669    7.1507 H       1  UNL1        0.0777
     44 H           1.9244   -1.3677    6.7160 H       1  UNL1        0.0777
     45 H           1.0843   -0.3553    5.5134 H       1  UNL1        0.0777
     46 H          -0.4686   -4.1329    6.6087 H       1  UNL1        0.0777
     47 H           1.0090   -3.4963    7.3940 H       1  UNL1        0.0777
     48 H          -0.5934   -2.7695    7.7790 H       1  UNL1        0.0777
     49 H           0.6593   -5.3939    4.2219 H       1  UNL1        0.0622
     50 H          -0.2332   -7.6209    4.7185 H       1  UNL1        0.0654
     51 H           0.5731   -8.8673    0.6865 H       1  UNL1        0.0654
     52 H           1.4835   -6.6731    0.1713 H       1  UNL1        0.0622
     53 H          -1.9619   -9.5542    1.5987 H       1  UNL1        0.0660
     54 H          -0.5634  -10.6626    1.3343 H       1  UNL1        0.0660
     55 H          -1.8000  -11.0475    2.5342 H       1  UNL1        0.0660
     56 H           0.7878   -2.7151    5.1652 H       1  UNL1        0.2028
@<TRIPOS>UNITY_ATOM_ATTR
21 1
charge 1
@<TRIPOS>BOND
     1     1     2    1
     2     1    32    1
     3     1    33    1
     4     1    34    1
     5     2     3    2
     6     2     4    1
     7     5    17    1
     8     5     7    1
     9     7     9    1
    10     9    10    1
    11    10    15   ar
    12    10    11   ar
    13    11    12   ar
    14    11    35    1
    15    12    13   ar
    16    12    36    1
    17    13    14   ar
    18    13    37    1
    19    14    15   ar
    20    14    38    1
    21    15    16    1
    22    16    17   am
    23    16    19    1
    24    17    18    2
    25    19    20    1
    26    19    39    1
    27    19    40    1
    28    20    21    1
    29    20    41    1
    30    20    42    1
    31    21    22    1
    32    21    23    1
    33    21    56    1
    34    22    43    1
    35    22    44    1
    36    22    45    1
    37    23    46    1
    38    23    47    1
    39    23    48    1
    40    24    29   ar
    41    24    25   ar
    42    25    26   ar
    43    25    49    1
    44    26    27   ar
    45    26    50    1
    46    27    28   ar
    47    27    30    1
    48    28    29   ar
    49    28    51    1
    50    29    52    1
    51    30    31    1
    52    31    53    1
    53    31    54    1
    54    31    55    1
    55     5     6    1
    56     5     4    1
    57     7    24    1
    58     7     8    1
