@<TRIPOS>MOLECULE
ZINC00057503
 29 30 0 0 0
SMALL
GASTEIGER

@<TRIPOS>ATOM
      1 C           1.0572   -0.1470   -2.7351 C.3     1  UNL1       -0.0480
      2 C           0.5363    0.5369   -1.4696 C.3     1  UNL1        0.0828
      3 H           0.8504    1.5885   -1.5264 H       1  UNL1        0.0461
      4 C          -0.9819    0.4766   -1.3961 C.ar    1  UNL1       -0.0338
      5 C          -1.7388    1.6542   -1.3308 C.ar    1  UNL1       -0.0571
      6 C          -3.1369    1.6024   -1.2887 C.ar    1  UNL1       -0.0506
      7 C          -3.7969    0.3660   -1.3041 C.ar    1  UNL1        0.0228
      8 C          -3.0479   -0.8107   -1.3882 C.ar    1  UNL1       -0.0506
      9 C          -1.6533   -0.7546   -1.4147 C.ar    1  UNL1       -0.0571
     10 C          -5.2912    0.3483   -1.2800 C.2     1  UNL1        0.1997
     11 O          -5.8792    1.3013   -1.7948 O.2     1  UNL1       -0.2861
     12 C          -5.9819   -0.7838   -0.6683 C.ar    1  UNL1        0.0594
     13 C          -5.5999   -1.5964    0.3848 C.ar    1  UNL1       -0.0438
     14 C          -6.5444   -2.6320    0.6498 C.ar    1  UNL1       -0.0540
     15 C          -7.6351   -2.5574   -0.1850 C.ar    1  UNL1       -0.0236
     16 S          -7.5256   -1.2396   -1.2677 S.2     1  UNL1       -0.0934
     17 C           1.1726   -0.0492   -0.1896 C.2     1  UNL1        0.3630
     18 O           1.5060   -1.2695   -0.2362 O.co2   1  UNL1       -0.2457
     19 O           1.3131    0.7752    0.7620 O.co2   1  UNL1       -0.2457
     20 H           0.6677    0.3487   -3.6311 H       1  UNL1        0.0241
     21 H           0.7659   -1.2018   -2.7935 H       1  UNL1        0.0241
     22 H           2.1511   -0.1115   -2.7744 H       1  UNL1        0.0241
     23 H          -1.2390    2.6205   -1.3080 H       1  UNL1        0.0621
     24 H          -3.7030    2.5293   -1.2414 H       1  UNL1        0.0625
     25 H          -3.5194   -1.7866   -1.4441 H       1  UNL1        0.0625
     26 H          -1.0797   -1.6799   -1.4478 H       1  UNL1        0.0621
     27 H          -4.6761   -1.4683    0.9383 H       1  UNL1        0.0630
     28 H          -6.4252   -3.3890    1.4149 H       1  UNL1        0.0623
     29 H          -8.4981   -3.2086   -0.2081 H       1  UNL1        0.0693
@<TRIPOS>BOND
     1     1     2    1
     2     1    20    1
     3     1    21    1
     4     1    22    1
     5     2     3    1
     6     2     4    1
     7     2    17    1
     8     4     9   ar
     9     4     5   ar
    10     5     6   ar
    11     5    23    1
    12     6     7   ar
    13     6    24    1
    14     7     8   ar
    15     7    10    1
    16     8     9   ar
    17     8    25    1
    18     9    26    1
    19    10    11    2
    20    10    12    1
    21    12    16   ar
    22    12    13   ar
    23    13    14   ar
    24    13    27    1
    25    14    15   ar
    26    14    28    1
    27    15    16   ar
    28    15    29    1
    29    17    18   ar
    30    17    19   ar
