@<TRIPOS>MOLECULE
ZINC00020783
 40 40 0 0 0
SMALL
GASTEIGER

@<TRIPOS>ATOM
      1 C           0.5715    0.3391   -0.1488 C.3     1  UNL1       -0.0647
      2 C           0.3246   -0.7918   -1.1299 C.3     1  UNL1       -0.0486
      3 C           0.9795   -2.1787   -0.8530 C.3     1  UNL1       -0.0086
      4 H           0.6340   -2.5046    0.1386 H       1  UNL1        0.0353
      5 C           0.3757   -3.1230   -1.8986 C.ar    1  UNL1       -0.0404
      6 C          -0.3769   -4.2437   -1.5093 C.ar    1  UNL1       -0.0581
      7 C          -0.8676   -5.1372   -2.4733 C.ar    1  UNL1       -0.0580
      8 C          -0.6293   -4.9110   -3.8302 C.ar    1  UNL1       -0.0202
      9 C           0.0884   -3.7925   -4.2161 C.ar    1  UNL1        0.1171
     10 C           0.5861   -2.9018   -3.2724 C.ar    1  UNL1       -0.0167
     11 O           0.3720   -3.5365   -5.5242 O.3     1  UNL1       -0.5068
     12 C           2.5573   -2.2371   -0.8371 C.3     1  UNL1        0.0032
     13 H           2.9375   -1.8362   -1.7832 H       1  UNL1        0.0356
     14 C           3.1496   -1.3644    0.2898 C.3     1  UNL1       -0.0570
     15 C           3.1741   -3.6513   -0.5974 C.3     1  UNL1       -0.0292
     16 C           3.6394   -4.3200   -2.9988 C.3     1  UNL1       -0.0433
     17 C           3.3313   -6.0626   -1.2638 C.3     1  UNL1       -0.0433
     18 H           0.6655   -0.0155    0.8800 H       1  UNL1        0.0230
     19 H          -0.2624    1.0491   -0.1868 H       1  UNL1        0.0230
     20 H           1.4614    0.9097   -0.4298 H       1  UNL1        0.0230
     21 H          -0.7645   -0.9446   -1.1572 H       1  UNL1        0.0269
     22 H           0.5969   -0.4275   -2.1279 H       1  UNL1        0.0269
     23 H          -0.5867   -4.4392   -0.4591 H       1  UNL1        0.0620
     24 H          -1.4449   -6.0055   -2.1658 H       1  UNL1        0.0619
     25 H          -1.0222   -5.6103   -4.5659 H       1  UNL1        0.0654
     26 H           1.1418   -2.0348   -3.6242 H       1  UNL1        0.0657
     27 H          -0.2521   -4.0337   -6.0841 H       1  UNL1        0.2921
     28 H           2.6940   -1.6021    1.2571 H       1  UNL1        0.0234
     29 H           4.2310   -1.5194    0.3866 H       1  UNL1        0.0234
     30 H           3.0318   -0.3003    0.0938 H       1  UNL1        0.0234
     31 H           4.2612   -3.5824   -0.4526 H       1  UNL1        0.0817
     32 H           2.7420   -4.0760    0.3181 H       1  UNL1        0.0817
     33 H           4.7220   -4.3505   -2.8601 H       1  UNL1        0.0777
     34 H           3.3151   -5.0598   -3.7369 H       1  UNL1        0.0777
     35 H           3.3231   -3.3269   -3.3143 H       1  UNL1        0.0777
     36 H           3.0597   -6.1963   -0.2132 H       1  UNL1        0.0777
     37 H           2.7491   -6.7518   -1.8822 H       1  UNL1        0.0777
     38 H           4.4032   -6.2193   -1.4079 H       1  UNL1        0.0777
     39 N           2.9778   -4.6640   -1.6935 N.4     1  UNL1        0.2311
     40 H           1.9741   -4.7075   -1.8972 H       1  UNL1        0.2028
@<TRIPOS>UNITY_ATOM_ATTR
39 1
charge 1
@<TRIPOS>BOND
     1     1     2    1
     2     1    18    1
     3     1    19    1
     4     1    20    1
     5     2     3    1
     6     2    21    1
     7     2    22    1
     8     3     4    1
     9     3     5    1
    10     3    12    1
    11     5    10   ar
    12     5     6   ar
    13     6     7   ar
    14     6    23    1
    15     7     8   ar
    16     7    24    1
    17     8     9   ar
    18     8    25    1
    19     9    10   ar
    20     9    11    1
    21    10    26    1
    22    11    27    1
    23    12    13    1
    24    12    14    1
    25    12    15    1
    26    14    28    1
    27    14    29    1
    28    14    30    1
    29    15    31    1
    30    15    32    1
    31    15    39    1
    32    16    33    1
    33    16    34    1
    34    16    35    1
    35    16    39    1
    36    17    36    1
    37    17    37    1
    38    17    38    1
    39    17    39    1
    40    39    40    1
