@<TRIPOS>MOLECULE
ZINC01530601
 58 60 0 0 0
SMALL
GASTEIGER

@<TRIPOS>ATOM
      1 C          -0.8934   -4.2395    5.7667 C.3     1  UNL1       -0.0245
      2 C           0.6173   -4.2666    5.9229 C.3     1  UNL1       -0.0347
      3 N           1.1374   -2.9677    6.5069 N.4     1  UNL1        0.2372
      4 C           0.5849   -2.6327    7.8891 C.3     1  UNL1       -0.0347
      5 C           0.8862   -3.7037    8.9265 C.3     1  UNL1       -0.0245
      6 C           2.6648   -2.8377    6.4708 C.3     1  UNL1        0.0031
      7 C           3.2505   -2.7141    5.0515 C.3     1  UNL1        0.1291
      8 O           2.7590   -1.5283    4.4169 O.3     1  UNL1       -0.4867
      9 C           3.4408   -1.1216    3.2905 C.ar    1  UNL1        0.1208
     10 C           4.3616   -1.8872    2.5707 C.ar    1  UNL1       -0.0194
     11 C           4.9714   -1.3702    1.4152 C.ar    1  UNL1       -0.0505
     12 C           4.6582   -0.0883    0.9449 C.ar    1  UNL1       -0.0157
     13 C           3.7570    0.6874    1.6825 C.ar    1  UNL1       -0.0505
     14 C           3.1528    0.1718    2.8418 C.ar    1  UNL1       -0.0194
     15 C           5.2105    0.3850   -0.3576 C.2     1  UNL1        0.0081
     16 C           4.5511    0.0845   -1.5073 C.2     1  UNL1        0.0563
     17 C           3.2364   -0.5854   -1.5441 C.ar    1  UNL1       -0.0061
     18 C           3.1257   -1.9784   -1.5305 C.ar    1  UNL1       -0.0532
     19 C           1.8633   -2.5771   -1.4885 C.ar    1  UNL1       -0.0612
     20 C           0.7136   -1.7862   -1.4719 C.ar    1  UNL1       -0.0617
     21 C           0.8194   -0.3990   -1.5213 C.ar    1  UNL1       -0.0612
     22 C           2.0763    0.2019   -1.5616 C.ar    1  UNL1       -0.0532
     23 CL          5.1256    0.5385   -3.0904 Cl      1  UNL1       -0.0823
     24 C           6.4320    1.2251   -0.4359 C.ar    1  UNL1       -0.0159
     25 C           7.6954    0.6564   -0.6401 C.ar    1  UNL1       -0.0540
     26 C           8.8182    1.4748   -0.7978 C.ar    1  UNL1       -0.0612
     27 C           8.6871    2.8627   -0.7516 C.ar    1  UNL1       -0.0617
     28 C           7.4344    3.4370   -0.5469 C.ar    1  UNL1       -0.0612
     29 C           6.3114    2.6224   -0.3896 C.ar    1  UNL1       -0.0540
     30 H          -1.4094   -4.1993    6.7311 H       1  UNL1        0.0281
     31 H          -1.2321   -5.1512    5.2627 H       1  UNL1        0.0281
     32 H          -1.2148   -3.3833    5.1655 H       1  UNL1        0.0281
     33 H           0.9489   -5.0899    6.5614 H       1  UNL1        0.0812
     34 H           1.0694   -4.3858    4.9367 H       1  UNL1        0.0812
     35 H           1.0209   -1.6732    8.1867 H       1  UNL1        0.0812
     36 H          -0.4935   -2.4795    7.7838 H       1  UNL1        0.0812
     37 H           1.9602   -3.8729    9.0416 H       1  UNL1        0.0281
     38 H           0.4966   -3.3936    9.9023 H       1  UNL1        0.0281
     39 H           0.4091   -4.6584    8.6847 H       1  UNL1        0.0281
     40 H           2.9014   -1.9235    7.0262 H       1  UNL1        0.0848
     41 H           3.0788   -3.7056    6.9921 H       1  UNL1        0.0848
     42 H           4.3401   -2.6526    5.1638 H       1  UNL1        0.0751
     43 H           3.0033   -3.5921    4.4467 H       1  UNL1        0.0751
     44 H           4.6239   -2.8997    2.8574 H       1  UNL1        0.0654
     45 H           5.6765   -1.9900    0.8631 H       1  UNL1        0.0625
     46 H           3.4976    1.6893    1.3471 H       1  UNL1        0.0625
     47 H           2.4454    0.7937    3.3846 H       1  UNL1        0.0654
     48 H           4.0151   -2.6030   -1.5472 H       1  UNL1        0.0624
     49 H           1.7773   -3.6598   -1.4722 H       1  UNL1        0.0618
     50 H          -0.2679   -2.2528   -1.4355 H       1  UNL1        0.0618
     51 H          -0.0761    0.2193   -1.5323 H       1  UNL1        0.0618
     52 H           2.1504    1.2863   -1.6043 H       1  UNL1        0.0624
     53 H           7.8116   -0.4215   -0.7112 H       1  UNL1        0.0624
     54 H           9.7948    1.0316   -0.9771 H       1  UNL1        0.0618
     55 H           9.5592    3.4976   -0.8899 H       1  UNL1        0.0618
     56 H           7.3291    4.5190   -0.5293 H       1  UNL1        0.0618
     57 H           5.3368    3.0872   -0.2626 H       1  UNL1        0.0624
     58 H           0.8086   -2.2157    5.8816 H       1  UNL1        0.2034
@<TRIPOS>UNITY_ATOM_ATTR
3 1
charge 1
@<TRIPOS>BOND
     1     1     2    1
     2     1    30    1
     3     1    31    1
     4     1    32    1
     5     2     3    1
     6     2    33    1
     7     2    34    1
     8     3     4    1
     9     3     6    1
    10     3    58    1
    11     4     5    1
    12     4    35    1
    13     4    36    1
    14     5    37    1
    15     5    38    1
    16     5    39    1
    17     6     7    1
    18     6    40    1
    19     6    41    1
    20     7     8    1
    21     7    42    1
    22     7    43    1
    23     8     9    1
    24     9    14   ar
    25     9    10   ar
    26    10    11   ar
    27    10    44    1
    28    11    12   ar
    29    11    45    1
    30    12    13   ar
    31    12    15    1
    32    13    14   ar
    33    13    46    1
    34    14    47    1
    35    15    16    2
    36    15    24    1
    37    16    17    1
    38    16    23    1
    39    17    22   ar
    40    17    18   ar
    41    18    19   ar
    42    18    48    1
    43    19    20   ar
    44    19    49    1
    45    20    21   ar
    46    20    50    1
    47    21    22   ar
    48    21    51    1
    49    22    52    1
    50    24    29   ar
    51    24    25   ar
    52    25    26   ar
    53    25    53    1
    54    26    27   ar
    55    26    54    1
    56    27    28   ar
    57    27    55    1
    58    28    29   ar
    59    28    56    1
    60    29    57    1
