@<TRIPOS>MOLECULE
ZINC00000083
 28 27 0 0 0
SMALL
GASTEIGER

@<TRIPOS>ATOM
      1 C           1.0133   -0.3434    2.4350 C.3     1  UNL1       -0.0226
      2 C           0.5465   -1.0228    1.1435 C.3     1  UNL1        0.1412
      3 H           0.7973   -2.0834    1.2248 H       1  UNL1        0.0786
      4 C          -0.9836   -0.8723    0.9909 C.3     1  UNL1        0.0069
      5 N          -1.6223   -1.4957   -0.2841 N.4     1  UNL1        0.2395
      6 C          -1.2734   -2.9728   -0.4325 C.3     1  UNL1       -0.0417
      7 C          -3.1440   -1.3796   -0.1430 C.3     1  UNL1       -0.0417
      8 C          -1.2258   -0.7453   -1.5507 C.3     1  UNL1       -0.0417
      9 O           1.2396   -0.3643    0.0633 O.3     1  UNL1       -0.4422
     10 C           2.0405   -1.1541   -0.6956 C.2     1  UNL1        0.3981
     11 O           2.1834   -2.3547   -0.5629 O.2     1  UNL1       -0.2267
     12 N           2.5876   -0.4410   -1.6992 N.am    1  UNL1       -0.2950
     13 H           0.4315   -0.6792    3.2996 H       1  UNL1        0.0267
     14 H           0.9381    0.7466    2.3601 H       1  UNL1        0.0267
     15 H           2.0670   -0.5736    2.6207 H       1  UNL1        0.0267
     16 H          -1.4774   -1.3578    1.8413 H       1  UNL1        0.0851
     17 H          -1.2699    0.1868    0.9816 H       1  UNL1        0.0851
     18 H          -1.5609   -3.4897    0.4872 H       1  UNL1        0.0778
     19 H          -1.8286   -3.3724   -1.2871 H       1  UNL1        0.0778
     20 H          -0.2043   -3.0739   -0.6145 H       1  UNL1        0.0778
     21 H          -3.4007   -0.3197   -0.0555 H       1  UNL1        0.0778
     22 H          -3.6111   -1.8128   -1.0335 H       1  UNL1        0.0778
     23 H          -3.4534   -1.9294    0.7505 H       1  UNL1        0.0778
     24 H          -1.2951    0.3288   -1.3585 H       1  UNL1        0.0778
     25 H          -0.2189   -1.0335   -1.8436 H       1  UNL1        0.0778
     26 H          -1.9111   -1.0321   -2.3546 H       1  UNL1        0.0778
     27 H           2.5614    0.5664   -1.6915 H       1  UNL1        0.1482
     28 H           3.2536   -0.9092   -2.3022 H       1  UNL1        0.1482
@<TRIPOS>UNITY_ATOM_ATTR
5 1
charge 1
@<TRIPOS>BOND
     1     1     2    1
     2     1    13    1
     3     1    14    1
     4     1    15    1
     5     2     3    1
     6     2     4    1
     7     2     9    1
     8     4     5    1
     9     4    16    1
    10     4    17    1
    11     5     6    1
    12     5     7    1
    13     5     8    1
    14     6    18    1
    15     6    19    1
    16     6    20    1
    17     7    21    1
    18     7    22    1
    19     7    23    1
    20     8    24    1
    21     8    25    1
    22     8    26    1
    23     9    10    1
    24    10    11    2
    25    10    12   am
    26    12    27    1
    27    12    28    1
