@<TRIPOS>MOLECULE
ZINC00001695
 26 26 0 0 0
SMALL
GASTEIGER

@<TRIPOS>ATOM
      1 C           1.2907    2.3874   -0.0453 C.3     1  UNL1       -0.0190
      2 C           0.5379    1.2066   -0.6353 C.3     1  UNL1        0.0035
      3 H           0.8133    0.2933   -0.0946 H       1  UNL1        0.0876
      4 C          -1.0142    1.3330   -0.6440 C.3     1  UNL1        0.1223
      5 H          -1.3879    1.3673    0.3862 H       1  UNL1        0.0701
      6 C          -1.5233    2.5292   -1.4221 C.ar    1  UNL1       -0.0104
      7 C          -1.6446    3.7774   -0.7906 C.ar    1  UNL1       -0.0557
      8 C          -2.0172    4.9119   -1.5176 C.ar    1  UNL1       -0.0580
      9 C          -2.2927    4.8145   -2.8803 C.ar    1  UNL1       -0.0202
     10 C          -2.2070    3.5760   -3.5027 C.ar    1  UNL1        0.1172
     11 C          -1.8324    2.4418   -2.7891 C.ar    1  UNL1       -0.0144
     12 O          -2.4698    3.4211   -4.8279 O.3     1  UNL1       -0.5068
     13 O          -1.5130    0.1251   -1.2374 O.3     1  UNL1       -0.3816
     14 N           1.0239    0.9696   -2.0353 N.4     1  UNL1        0.2226
     15 H           0.9781    2.5612    0.9897 H       1  UNL1        0.0285
     16 H           1.1312    3.3090   -0.6130 H       1  UNL1        0.0285
     17 H           2.3690    2.1947   -0.0385 H       1  UNL1        0.0285
     18 H          -1.4402    3.8908    0.2737 H       1  UNL1        0.0621
     19 H          -2.0895    5.8770   -1.0201 H       1  UNL1        0.0619
     20 H          -2.5719    5.7070   -3.4337 H       1  UNL1        0.0654
     21 H          -1.7962    1.4934   -3.3211 H       1  UNL1        0.0658
     22 H          -2.8577    4.2451   -5.1743 H       1  UNL1        0.2921
     23 H          -2.4914    0.1695   -1.1845 H       1  UNL1        0.2105
     24 H           0.7766    1.7490   -2.6604 H       1  UNL1        0.1998
     25 H           2.0359    0.8121   -2.0898 H       1  UNL1        0.1998
     26 H           0.5384    0.1353   -2.4004 H       1  UNL1        0.1998
@<TRIPOS>UNITY_ATOM_ATTR
14 1
charge 1
@<TRIPOS>BOND
     1     1     2    1
     2     1    15    1
     3     1    16    1
     4     1    17    1
     5     2     3    1
     6     2     4    1
     7     2    14    1
     8     4     5    1
     9     4     6    1
    10     4    13    1
    11     6    11   ar
    12     6     7   ar
    13     7     8   ar
    14     7    18    1
    15     8     9   ar
    16     8    19    1
    17     9    10   ar
    18     9    20    1
    19    10    11   ar
    20    10    12    1
    21    11    21    1
    22    12    22    1
    23    13    23    1
    24    14    24    1
    25    14    25    1
    26    14    26    1
