@<TRIPOS>MOLECULE
ZINC01538857
 67 70 0 0 0
SMALL
GASTEIGER

@<TRIPOS>ATOM
      1 C          -4.3941   -4.8987    9.6934 C.3     1  UNL1       -0.0560
      2 C          -3.6704   -3.6741    9.0861 C.3     1  UNL1       -0.0127
      3 C          -4.7259   -2.9109    8.2507 C.3     1  UNL1       -0.0560
      4 C          -3.2088   -2.7742   10.2485 C.3     1  UNL1       -0.0560
      5 C          -2.4749   -4.0520    8.1940 C.ar    1  UNL1       -0.0419
      6 C          -1.8190   -3.0654    7.4267 C.ar    1  UNL1       -0.0562
      7 C          -0.8295   -3.4031    6.4968 C.ar    1  UNL1       -0.0347
      8 C          -0.4592   -4.7380    6.3448 C.ar    1  UNL1        0.1104
      9 C          -1.0277   -5.7236    7.1412 C.ar    1  UNL1       -0.0347
     10 C          -2.0219   -5.3790    8.0630 C.ar    1  UNL1       -0.0562
     11 S           0.7111   -5.2096    5.0382 S.O2    1  UNL1        0.0931
     12 O           0.2588   -6.5590    4.6636 O.2     1  UNL1       -0.1483
     13 O           0.4393   -4.1968    4.0154 O.2     1  UNL1       -0.1483
     14 N           2.1520   -5.0988    5.6897 N.pl3   1  UNL1       -0.0738
     15 C           2.7330   -6.1336    6.3285 C.ar    1  UNL1        0.2125
     16 C           3.5799   -7.0865    5.7411 C.ar    1  UNL1        0.2327
     17 C           4.1335   -8.0148    6.6250 C.ar    1  UNL1        0.2643
     18 N           4.0408   -7.9300    7.9642 N.ar    1  UNL1       -0.1866
     19 C           3.2749   -6.9320    8.4476 C.ar    1  UNL1        0.2028
     20 N           2.6040   -6.0508    7.6764 N.ar    1  UNL1       -0.2027
     21 C           3.2471   -6.7679    9.9248 C.ar    1  UNL1        0.1978
     22 N           2.1355   -6.2731   10.5138 N.ar    1  UNL1       -0.2331
     23 C           2.1564   -6.1660   11.8523 C.ar    1  UNL1        0.0315
     24 C           3.2288   -6.5296   12.6309 C.ar    1  UNL1       -0.0254
     25 C           4.3156   -7.0208   11.9518 C.ar    1  UNL1        0.0315
     26 N           4.3530   -7.1514   10.6164 N.ar    1  UNL1       -0.2331
     27 O           4.9316   -9.0460    6.1600 O.3     1  UNL1       -0.4715
     28 C           4.8186  -10.2400    6.9638 C.3     1  UNL1        0.1143
     29 C           5.9699  -10.4278    7.9677 C.3     1  UNL1        0.0783
     30 O           6.0135   -9.4857    9.0314 O.3     1  UNL1       -0.3917
     31 O           3.8832   -7.1968    4.4002 O.3     1  UNL1       -0.4434
     32 C           4.2475   -6.0858    3.6561 C.ar    1  UNL1        0.1702
     33 C           4.7167   -4.8989    4.2499 C.ar    1  UNL1       -0.0157
     34 C           5.0104   -3.7640    3.4914 C.ar    1  UNL1       -0.0581
     35 C           4.9456   -3.8245    2.1086 C.ar    1  UNL1       -0.0581
     36 C           4.5785   -5.0201    1.4948 C.ar    1  UNL1       -0.0163
     37 C           4.2095   -6.1479    2.2509 C.ar    1  UNL1        0.1621
     38 O           3.9080   -7.2256    1.4571 O.3     1  UNL1       -0.4914
     39 C           2.9423   -8.1410    1.9539 C.3     1  UNL1        0.0790
     40 H          -5.2674   -4.5931   10.2815 H       1  UNL1        0.0238
     41 H          -3.7390   -5.4669   10.3636 H       1  UNL1        0.0238
     42 H          -4.7528   -5.5790    8.9112 H       1  UNL1        0.0238
     43 H          -5.5957   -2.6438    8.8624 H       1  UNL1        0.0238
     44 H          -4.3347   -1.9770    7.8334 H       1  UNL1        0.0238
     45 H          -5.0831   -3.5225    7.4136 H       1  UNL1        0.0238
     46 H          -2.5157   -3.3050   10.9111 H       1  UNL1        0.0238
     47 H          -2.7012   -1.8704    9.8945 H       1  UNL1        0.0238
     48 H          -4.0634   -2.4488   10.8545 H       1  UNL1        0.0238
     49 H          -2.0922   -2.0172    7.5166 H       1  UNL1        0.0621
     50 H          -0.3677   -2.6370    5.8802 H       1  UNL1        0.0637
     51 H          -0.7089   -6.7560    7.0305 H       1  UNL1        0.0637
     52 H          -2.4432   -6.1880    8.6503 H       1  UNL1        0.0621
     53 H           1.2481   -5.7669   12.2920 H       1  UNL1        0.0831
     54 H           3.2158   -6.4353   13.7067 H       1  UNL1        0.0648
     55 H           5.2154   -7.3356   12.4718 H       1  UNL1        0.0831
     56 H           3.8403  -10.3196    7.4569 H       1  UNL1        0.0720
     57 H           4.8709  -11.0792    6.2596 H       1  UNL1        0.0720
     58 H           5.8737  -11.4127    8.4388 H       1  UNL1        0.0591
     59 H           6.9361  -10.3882    7.4587 H       1  UNL1        0.0591
     60 H           5.5389   -8.6786    8.7344 H       1  UNL1        0.2095
     61 H           4.8058   -4.8102    5.3290 H       1  UNL1        0.0655
     62 H           5.2678   -2.8365    3.9942 H       1  UNL1        0.0619
     63 H           5.1759   -2.9482    1.5116 H       1  UNL1        0.0619
     64 H           4.5492   -5.0733    0.4097 H       1  UNL1        0.0655
     65 H           3.4190   -8.8764    2.6075 H       1  UNL1        0.0660
     66 H           2.1002   -7.6421    2.4418 H       1  UNL1        0.0660
     67 H           2.5460   -8.6883    1.0909 H       1  UNL1        0.0660
@<TRIPOS>BOND
     1     1     2    1
     2     1    40    1
     3     1    41    1
     4     1    42    1
     5     2     3    1
     6     2     4    1
     7     2     5    1
     8     3    43    1
     9     3    44    1
    10     3    45    1
    11     4    46    1
    12     4    47    1
    13     4    48    1
    14     5    10   ar
    15     5     6   ar
    16     6     7   ar
    17     6    49    1
    18     7     8   ar
    19     7    50    1
    20     8     9   ar
    21     8    11    1
    22     9    10   ar
    23     9    51    1
    24    10    52    1
    25    11    12    2
    26    11    13    2
    27    11    14    1
    28    14    15    1
    29    15    20   ar
    30    15    16   ar
    31    16    17   ar
    32    16    31    1
    33    17    18   ar
    34    17    27    1
    35    18    19   ar
    36    19    20   ar
    37    19    21    1
    38    21    26   ar
    39    21    22   ar
    40    22    23   ar
    41    23    24   ar
    42    23    53    1
    43    24    25   ar
    44    24    54    1
    45    25    26   ar
    46    25    55    1
    47    27    28    1
    48    28    29    1
    49    28    56    1
    50    28    57    1
    51    29    30    1
    52    29    58    1
    53    29    59    1
    54    30    60    1
    55    31    32    1
    56    32    37   ar
    57    32    33   ar
    58    33    34   ar
    59    33    61    1
    60    34    35   ar
    61    34    62    1
    62    35    36   ar
    63    35    63    1
    64    36    37   ar
    65    36    64    1
    66    37    38    1
    67    38    39    1
    68    39    65    1
    69    39    66    1
    70    39    67    1
