@<TRIPOS>MOLECULE
ZINC03823475
 54 57 0 0 0
SMALL
GASTEIGER

@<TRIPOS>ATOM
      1 C           0.8711    0.2171   -0.8391 C.3     1  UNL1       -0.0428
      2 N           1.3138    1.6109   -0.5668 N.4     1  UNL1        0.2355
      3 C           2.7934    1.8094   -0.3989 C.3     1  UNL1       -0.0317
      4 C           2.9336    3.1773    0.2481 C.3     1  UNL1       -0.0074
      5 C           1.5352    3.6316    0.6408 C.3     1  UNL1       -0.0046
      6 C           0.6076    2.4316    0.4766 C.3     1  UNL1       -0.0168
      7 H          -0.2633    2.8251   -0.0695 H       1  UNL1        0.0854
      8 C          -0.0465    1.8152    1.7353 C.3     1  UNL1        0.0175
      9 C           0.4068    0.6993    2.6472 C.ar    1  UNL1       -0.0170
     10 C          -0.5390   -0.0272    3.3699 C.ar    1  UNL1        0.0061
     11 N           0.0589   -1.0873    3.9868 N.ar    1  UNL1       -0.3604
     12 H          -0.4083   -1.7976    4.5387 H       1  UNL1        0.1653
     13 C           1.3948   -1.0845    3.6781 C.ar    1  UNL1        0.0467
     14 C           1.6682    0.1181    3.0108 C.ar    1  UNL1        0.0033
     15 C           3.0222    0.4181    2.7784 C.ar    1  UNL1       -0.0491
     16 C           3.9929   -0.5939    2.9108 C.ar    1  UNL1       -0.0451
     17 C           3.6489   -1.8206    3.4906 C.ar    1  UNL1       -0.0565
     18 C           2.3575   -2.0621    3.9468 C.ar    1  UNL1       -0.0375
     19 C           5.3290   -0.4560    2.2349 C.3     1  UNL1       -0.0078
     20 C           6.3160    0.5266    2.8352 C.3     1  UNL1        0.0748
     21 S           7.7177    0.6223    1.7209 S.O2    1  UNL1       -0.0028
     22 O           8.2885   -0.7067    1.5924 O.2     1  UNL1       -0.1693
     23 O           7.2732    1.3522    0.5462 O.2     1  UNL1       -0.1693
     24 C           8.8673    1.6264    2.6064 C.ar    1  UNL1        0.0882
     25 C           9.8201    1.0193    3.4201 C.ar    1  UNL1       -0.0369
     26 C          10.7043    1.8264    4.1426 C.ar    1  UNL1       -0.0600
     27 C          10.6205    3.2169    4.0332 C.ar    1  UNL1       -0.0616
     28 C           9.6851    3.8117    3.1907 C.ar    1  UNL1       -0.0600
     29 C           8.8051    3.0188    2.4583 C.ar    1  UNL1       -0.0369
     30 H           1.6354   -0.2600   -1.4640 H       1  UNL1        0.0778
     31 H           0.7348   -0.3266    0.0878 H       1  UNL1        0.0778
     32 H          -0.0613    0.2836   -1.4101 H       1  UNL1        0.0778
     33 H           3.1842    1.0013    0.2156 H       1  UNL1        0.0814
     34 H           3.2567    1.7678   -1.3907 H       1  UNL1        0.0814
     35 H           3.3823    3.8922   -0.4536 H       1  UNL1        0.0319
     36 H           3.6008    3.1435    1.1134 H       1  UNL1        0.0319
     37 H           1.2246    4.3991   -0.0857 H       1  UNL1        0.0322
     38 H           1.4943    4.1070    1.6235 H       1  UNL1        0.0322
     39 H          -0.3672    2.6413    2.3843 H       1  UNL1        0.0369
     40 H          -0.9894    1.4070    1.3309 H       1  UNL1        0.0369
     41 H          -1.6124    0.0989    3.4643 H       1  UNL1        0.0810
     42 H           3.3012    1.3918    2.4058 H       1  UNL1        0.0627
     43 H           4.3806   -2.6238    3.5611 H       1  UNL1        0.0621
     44 H           2.0967   -3.0121    4.4048 H       1  UNL1        0.0638
     45 H           5.8033   -1.4435    2.1772 H       1  UNL1        0.0329
     46 H           5.1201   -0.1853    1.1919 H       1  UNL1        0.0329
     47 H           5.8993    1.5343    2.9227 H       1  UNL1        0.0507
     48 H           6.6726    0.1937    3.8142 H       1  UNL1        0.0507
     49 H           9.9035   -0.0601    3.4970 H       1  UNL1        0.0636
     50 H          11.4583    1.3744    4.7855 H       1  UNL1        0.0618
     51 H          11.3113    3.8455    4.6064 H       1  UNL1        0.0618
     52 H           9.6434    4.8951    3.0983 H       1  UNL1        0.0618
     53 H           8.0922    3.4823    1.7861 H       1  UNL1        0.0636
     54 H           1.1177    2.1042   -1.4493 H       1  UNL1        0.2033
@<TRIPOS>UNITY_ATOM_ATTR
2 1
charge 1
@<TRIPOS>BOND
     1     1     2    1
     2     1    30    1
     3     1    31    1
     4     1    32    1
     5     2     6    1
     6     2     3    1
     7     2    54    1
     8     3     4    1
     9     3    33    1
    10     3    34    1
    11     4     5    1
    12     4    35    1
    13     4    36    1
    14     5     6    1
    15     5    37    1
    16     5    38    1
    17     6     7    1
    18     6     8    1
    19     8     9    1
    20     8    39    1
    21     8    40    1
    22     9    14   ar
    23     9    10   ar
    24    10    11   ar
    25    10    41    1
    26    11    12    1
    27    11    13   ar
    28    13    18   ar
    29    13    14   ar
    30    14    15   ar
    31    15    16   ar
    32    15    42    1
    33    16    17   ar
    34    16    19    1
    35    17    18   ar
    36    17    43    1
    37    18    44    1
    38    19    20    1
    39    19    45    1
    40    19    46    1
    41    20    21    1
    42    20    47    1
    43    20    48    1
    44    21    22    2
    45    21    23    2
    46    21    24    1
    47    24    29   ar
    48    24    25   ar
    49    25    26   ar
    50    25    49    1
    51    26    27   ar
    52    26    50    1
    53    27    28   ar
    54    27    51    1
    55    28    29   ar
    56    28    52    1
    57    29    53    1
