@<TRIPOS>MOLECULE
ZINC00057206
 35 35 0 0 0
SMALL
GASTEIGER

@<TRIPOS>ATOM
      1 C           1.3301   -2.3054    0.8398 C.3     1  UNL1       -0.0142
      2 C           0.4453   -1.5142   -0.1283 C.3     1  UNL1        0.0390
      3 H           0.6585   -0.4457   -0.0755 H       1  UNL1        0.0933
      4 C          -0.9979   -1.8576    0.2087 C.2     1  UNL1        0.2100
      5 O          -1.5144   -2.8447   -0.3189 O.2     1  UNL1       -0.2860
      6 C          -1.7636   -1.0448    1.1959 C.ar    1  UNL1        0.0245
      7 C          -1.1704   -0.0587    1.9951 C.ar    1  UNL1       -0.0510
      8 C          -1.9336    0.6210    2.9510 C.ar    1  UNL1       -0.0597
      9 C          -3.2862    0.3178    3.1102 C.ar    1  UNL1       -0.0433
     10 C          -3.8802   -0.6424    2.2989 C.ar    1  UNL1        0.0416
     11 C          -3.1288   -1.3241    1.3438 C.ar    1  UNL1       -0.0327
     12 CL         -5.5475   -1.0114    2.4916 Cl      1  UNL1       -0.0835
     13 N           0.8142   -1.9723   -1.5432 N.4     1  UNL1        0.2383
     14 C           0.2614   -1.2701   -2.7735 C.3     1  UNL1       -0.0197
     15 C           0.5484    0.2304   -2.7064 C.3     1  UNL1       -0.0193
     16 C           0.9956   -1.8872   -3.9757 C.3     1  UNL1       -0.0193
     17 C          -1.2379   -1.5325   -2.9260 C.3     1  UNL1       -0.0193
     18 H           1.1343   -2.0235    1.8759 H       1  UNL1        0.0289
     19 H           2.3933   -2.1445    0.6378 H       1  UNL1        0.0289
     20 H           1.1318   -3.3846    0.7591 H       1  UNL1        0.0289
     21 H          -0.1185    0.2047    1.9273 H       1  UNL1        0.0625
     22 H          -1.4731    1.3710    3.5911 H       1  UNL1        0.0618
     23 H          -3.8685    0.8334    3.8722 H       1  UNL1        0.0632
     24 H          -3.6137   -2.0785    0.7252 H       1  UNL1        0.0639
     25 H           1.8399   -1.9913   -1.6180 H       1  UNL1        0.2026
     26 H           1.6209    0.4323   -2.6058 H       1  UNL1        0.0287
     27 H           0.2043    0.7282   -3.6226 H       1  UNL1        0.0287
     28 H           0.0291    0.7120   -1.8728 H       1  UNL1        0.0287
     29 H           0.8652   -2.9755   -4.0053 H       1  UNL1        0.0287
     30 H           0.6135   -1.4830   -4.9204 H       1  UNL1        0.0287
     31 H           2.0711   -1.6799   -3.9392 H       1  UNL1        0.0287
     32 H          -1.4651   -2.6037   -2.8807 H       1  UNL1        0.0287
     33 H          -1.8257   -1.0132   -2.1634 H       1  UNL1        0.0287
     34 H          -1.5999   -1.1694   -3.8944 H       1  UNL1        0.0287
     35 H           0.5066   -2.9582   -1.5967 H       1  UNL1        0.2026
@<TRIPOS>UNITY_ATOM_ATTR
13 1
charge 1
@<TRIPOS>BOND
     1     1    18    1
     2     1    19    1
     3     1    20    1
     4     2     4    1
     5     2    13    1
     6     4     5    2
     7     4     6    1
     8     6    11   ar
     9     6     7   ar
    10     7     8   ar
    11     7    21    1
    12     8     9   ar
    13     8    22    1
    14     9    10   ar
    15     9    23    1
    16    10    11   ar
    17    10    12    1
    18    11    24    1
    19    13    14    1
    20    13    25    1
    21    13    35    1
    22    14    15    1
    23    14    16    1
    24    14    17    1
    25    15    26    1
    26    15    27    1
    27    15    28    1
    28    16    29    1
    29    16    30    1
    30    16    31    1
    31    17    32    1
    32    17    33    1
    33    17    34    1
    34     2     3    1
    35     2     1    1
