@<TRIPOS>MOLECULE
ZINC00896485
 32 34 0 0 0
SMALL
GASTEIGER

@<TRIPOS>ATOM
      1 C           1.3033   -0.5282   -0.1348 C.ar    1  UNL1       -0.0617
      2 C           0.9247    0.5012    0.7247 C.ar    1  UNL1       -0.0611
      3 C          -0.4308    0.7631    0.9722 C.ar    1  UNL1       -0.0526
      4 C          -1.4241    0.0024    0.3484 C.ar    1  UNL1        0.0006
      5 C          -1.0293   -1.0341   -0.5190 C.ar    1  UNL1       -0.0526
      6 C           0.3172   -1.2987   -0.7565 C.ar    1  UNL1       -0.0611
      7 C          -2.9035    0.3458    0.3561 C.2     1  UNL1        0.0760
      8 N          -3.7312   -0.6010    0.0638 N.2     1  UNL1       -0.2585
      9 CA         -5.0974   -0.1860   -0.3887 C.3     1  UNL1        0.2274
     10 HA         -5.6186   -1.1293   -0.6170 H       1  UNL1        0.0761
     11 C          -5.0256    0.5692   -1.7285 C.2     1  UNL1        0.2530
     12 O          -5.7870    0.2852   -2.6730 O.2     1  UNL1       -0.2725
     13 N          -4.0532    1.5233   -1.9925 N.am    1  UNL1       -0.2827
     14 C          -3.2667    2.1936   -1.0399 C.ar    1  UNL1        0.0428
     15 C          -3.2664    1.7880    0.2814 C.ar    1  UNL1        0.0231
     16 C          -2.9462    2.6642    1.3142 C.ar    1  UNL1       -0.0324
     17 C          -2.2316    3.8035    0.9720 C.ar    1  UNL1        0.0417
     18 C          -1.8785    4.0392   -0.3597 C.ar    1  UNL1       -0.0416
     19 C          -2.4642    3.2779   -1.3816 C.ar    1  UNL1       -0.0385
     20 CL         -1.6422    4.8408    2.2120 Cl      1  UNL1       -0.0835
     21 C          -5.9416    0.5103    0.7022 C.2     1  UNL1        0.3890
     22 O          -6.1816   -0.1881    1.7390 O.co2   1  UNL1       -0.2434
     23 H           2.3457   -0.7297   -0.3258 H       1  UNL1        0.0618
     24 H           1.6875    1.1094    1.2006 H       1  UNL1        0.0618
     25 H          -0.6689    1.5779    1.6436 H       1  UNL1        0.0624
     26 H          -1.7830   -1.6021   -1.0553 H       1  UNL1        0.0624
     27 H           0.5986   -2.0974   -1.4456 H       1  UNL1        0.0618
     28 H          -4.1297    1.9122   -2.9184 H       1  UNL1        0.1549
     29 H          -3.1890    2.4077    2.3370 H       1  UNL1        0.0639
     30 H          -1.1778    4.8296   -0.6085 H       1  UNL1        0.0633
     31 H          -2.2550    3.5094   -2.4202 H       1  UNL1        0.0637
     32 OXT        -6.3245    1.6883    0.4639 O.co2   1  UNL1       -0.2434
@<TRIPOS>BOND
     1     1     6   ar
     2     1     2   ar
     3     1    23    1
     4     2     3   ar
     5     2    24    1
     6     3     4   ar
     7     3    25    1
     8     4     5   ar
     9     4     7    1
    10     5     6   ar
    11     5    26    1
    12     6    27    1
    13     7    15    1
    14     7     8    2
    15     8     9    1
    16     9    11    1
    17    11    12    2
    18    11    13   am
    19    13    14    1
    20    13    28    1
    21    14    19   ar
    22    14    15   ar
    23    15    16   ar
    24    16    17   ar
    25    16    29    1
    26    17    18   ar
    27    17    20    1
    28    18    19   ar
    29    18    30    1
    30    19    31    1
    31    21    22   ar
    32    21    32   ar
    33     9    21    1
    34     9    10    1
