@<TRIPOS>MOLECULE
ZINC00601310
 48 51 0 0 0
SMALL
GASTEIGER

@<TRIPOS>ATOM
      1 C           0.3953   -0.8082   -3.5575 C.ar    1  UNL1       -0.0616
      2 C           0.7317    0.1315   -2.5858 C.ar    1  UNL1       -0.0598
      3 C           0.2572    1.4483   -2.6822 C.ar    1  UNL1       -0.0363
      4 C          -0.5716    1.8524   -3.7468 C.ar    1  UNL1        0.0633
      5 C          -0.8845    0.8828   -4.7166 C.ar    1  UNL1       -0.0363
      6 C          -0.4115   -0.4311   -4.6266 C.ar    1  UNL1       -0.0598
      7 N          -1.0324    3.2114   -3.9201 N.ar    1  UNL1       -0.2594
      8 C          -2.3834    3.6104   -3.8334 C.ar    1  UNL1       -0.0029
      9 O          -3.2302    2.8919   -4.4284 O.co2   1  UNL1       -0.8598
     10 C          -2.5077    4.7469   -3.1235 C.ar    1  UNL1        0.0303
     11 C          -1.1417    5.1346   -2.6982 C.ar    1  UNL1        0.2747
     12 O          -0.8950    6.1480   -2.0559 O.2     1  UNL1       -0.2656
     13 N          -0.2571    4.1905   -3.2416 N.ar    1  UNL1       -0.2130
     14 C           0.9887    4.5866   -3.8066 C.ar    1  UNL1        0.0677
     15 C           1.3673    4.1590   -5.0889 C.ar    1  UNL1       -0.0362
     16 C           2.5759    4.5639   -5.6556 C.ar    1  UNL1       -0.0598
     17 C           3.4358    5.3885   -4.9371 C.ar    1  UNL1       -0.0616
     18 C           3.0819    5.8135   -3.6572 C.ar    1  UNL1       -0.0598
     19 C           1.8615    5.4205   -3.0973 C.ar    1  UNL1       -0.0362
     20 C          -3.7398    5.5171   -2.7883 C.3     1  UNL1       -0.0099
     21 C          -3.7991    6.9645   -3.2633 C.3     1  UNL1        0.0321
     22 S          -3.6476    7.2256   -5.0506 S.O     1  UNL1        0.0541
     23 O          -3.7155    8.7144   -5.2701 O.2     1  UNL1       -0.2521
     24 C          -5.2373    6.6087   -5.6601 C.ar    1  UNL1        0.0388
     25 C          -6.3653    7.4381   -5.7317 C.ar    1  UNL1       -0.0459
     26 C          -7.5087    7.0242   -6.4257 C.ar    1  UNL1       -0.0606
     27 C          -7.5306    5.7811   -7.0566 C.ar    1  UNL1       -0.0617
     28 C          -6.4239    4.9393   -6.9640 C.ar    1  UNL1       -0.0606
     29 C          -5.2851    5.3490   -6.2638 C.ar    1  UNL1       -0.0459
     30 H           0.7575   -1.8289   -3.4823 H       1  UNL1        0.0618
     31 H           1.3599   -0.1562   -1.7479 H       1  UNL1        0.0618
     32 H           0.5318    2.1558   -1.9058 H       1  UNL1        0.0639
     33 H          -1.5123    1.1701   -5.5575 H       1  UNL1        0.0639
     34 H          -0.6830   -1.1495   -5.3938 H       1  UNL1        0.0618
     35 H           0.6970    3.5377   -5.6794 H       1  UNL1        0.0639
     36 H           2.8285    4.2397   -6.6607 H       1  UNL1        0.0618
     37 H           4.3760    5.7047   -5.3785 H       1  UNL1        0.0618
     38 H           3.7505    6.4574   -3.0935 H       1  UNL1        0.0618
     39 H           1.6034    5.7604   -2.0974 H       1  UNL1        0.0639
     40 H          -4.6293    4.9882   -3.1485 H       1  UNL1        0.0324
     41 H          -3.8292    5.5268   -1.6937 H       1  UNL1        0.0324
     42 H          -4.7294    7.4331   -2.9245 H       1  UNL1        0.0408
     43 H          -2.9813    7.5378   -2.8118 H       1  UNL1        0.0408
     44 H          -6.3391    8.4322   -5.2925 H       1  UNL1        0.0629
     45 H          -8.3672    7.6859   -6.5031 H       1  UNL1        0.0618
     46 H          -8.4005    5.4715   -7.6296 H       1  UNL1        0.0618
     47 H          -6.4263    3.9687   -7.4538 H       1  UNL1        0.0618
     48 H          -4.4203    4.6868   -6.2254 H       1  UNL1        0.0629
@<TRIPOS>UNITY_ATOM_ATTR
9 1
charge -1
@<TRIPOS>BOND
     1     1     6   ar
     2     1     2   ar
     3     1    30    1
     4     2     3   ar
     5     2    31    1
     6     3     4   ar
     7     3    32    1
     8     4     5   ar
     9     4     7    1
    10     5     6   ar
    11     5    33    1
    12     6    34    1
    13     7    13   ar
    14     7     8   ar
    15     8     9    1
    16     8    10   ar
    17    10    11   ar
    18    10    20    1
    19    11    12    2
    20    11    13   ar
    21    13    14    1
    22    14    19   ar
    23    14    15   ar
    24    15    16   ar
    25    15    35    1
    26    16    17   ar
    27    16    36    1
    28    17    18   ar
    29    17    37    1
    30    18    19   ar
    31    18    38    1
    32    19    39    1
    33    20    21    1
    34    20    40    1
    35    20    41    1
    36    21    42    1
    37    21    43    1
    38    22    24    1
    39    24    29   ar
    40    24    25   ar
    41    25    26   ar
    42    25    44    1
    43    26    27   ar
    44    26    45    1
    45    27    28   ar
    46    27    46    1
    47    28    29   ar
    48    28    47    1
    49    29    48    1
    50    22    23    2
    51    22    21    1
