@<TRIPOS>MOLECULE
ZINC03782818
 51 55 0 0 0
SMALL
GASTEIGER

@<TRIPOS>ATOM
      1 C           0.2627   -4.0427    0.4123 C.3     1  UNL1       -0.0306
      2 C           1.5813   -3.8584    1.1410 C.3     1  UNL1        0.0899
      3 O           2.2359   -2.7209    0.5869 O.3     1  UNL1       -0.4638
      4 C           3.0447   -2.1118    1.4452 C.ar    1  UNL1        0.2995
      5 N           3.6696   -2.7327    2.4205 N.ar    1  UNL1       -0.1949
      6 C           3.9913   -1.7347    3.2807 C.ar    1  UNL1        0.0935
      7 C           4.5515   -1.8990    4.5588 C.ar    1  UNL1       -0.0341
      8 C           4.6577   -0.7971    5.3818 C.ar    1  UNL1       -0.0588
      9 C           4.2266    0.4535    4.9481 C.ar    1  UNL1       -0.0455
     10 C           3.7103    0.6859    3.6317 C.ar    1  UNL1        0.0888
     11 C           3.6228   -0.4690    2.8074 C.ar    1  UNL1        0.0861
     12 N           3.1875   -0.7493    1.5154 N.ar    1  UNL1       -0.2888
     13 C           2.9236    0.2328    0.4721 C.3     1  UNL1        0.0531
     14 C           2.5620   -0.3037   -0.8889 C.ar    1  UNL1       -0.0276
     15 C           3.5625   -0.5882   -1.8063 C.ar    1  UNL1       -0.0563
     16 C           3.2391   -0.9608   -3.1069 C.ar    1  UNL1       -0.0537
     17 C           1.9306   -1.2674   -3.4914 C.ar    1  UNL1       -0.0170
     18 C           0.9193   -1.0133   -2.5393 C.ar    1  UNL1       -0.0537
     19 C           1.2259   -0.4924   -1.2711 C.ar    1  UNL1       -0.0563
     20 C           1.6326   -1.7933   -4.8542 C.ar    1  UNL1       -0.0027
     21 C           0.4597   -1.3167   -5.4978 C.ar    1  UNL1       -0.0532
     22 C           0.1320   -1.6561   -6.8131 C.ar    1  UNL1       -0.0611
     23 C           0.9790   -2.4738   -7.5432 C.ar    1  UNL1       -0.0609
     24 C           2.1474   -2.9496   -6.9530 C.ar    1  UNL1       -0.0460
     25 C           2.4827   -2.6402   -5.6171 C.ar    1  UNL1        0.0820
     26 C           3.7975   -3.2520   -5.1303 C.2     1  UNL1        0.4198
     27 N           4.8517   -3.4769   -5.9658 N.pl3   1  UNL1        0.1384
     28 N           5.8909   -3.7586   -5.1448 N.2     1  UNL1        0.1084
     29 N           5.4371   -3.8628   -3.8798 N.2     1  UNL1        0.1165
     30 N           4.0973   -3.6488   -3.8691 N.2     1  UNL1        0.1095
     31 C           3.2278    2.0809    3.3018 C.2     1  UNL1        0.3886
     32 O           3.1984    2.4407    2.0919 O.co2   1  UNL1       -0.2405
     33 O           2.9066    2.8286    4.2963 O.co2   1  UNL1       -0.2405
     34 H          -0.5220   -3.4714    0.9226 H       1  UNL1        0.0262
     35 H          -0.0393   -5.0928    0.4137 H       1  UNL1        0.0262
     36 H           0.3123   -3.6765   -0.6168 H       1  UNL1        0.0262
     37 H           1.3625   -3.7187    2.2089 H       1  UNL1        0.0695
     38 H           2.2188   -4.7417    1.0245 H       1  UNL1        0.0695
     39 H           4.8314   -2.8929    4.8874 H       1  UNL1        0.0639
     40 H           5.0384   -0.9038    6.3918 H       1  UNL1        0.0618
     41 H           4.2911    1.3027    5.6228 H       1  UNL1        0.0626
     42 H           2.1097    0.8764    0.8142 H       1  UNL1        0.0543
     43 H           3.8467    0.8161    0.3642 H       1  UNL1        0.0543
     44 H           4.6139   -0.5424   -1.5288 H       1  UNL1        0.0621
     45 H           4.0694   -1.0732   -3.8035 H       1  UNL1        0.0624
     46 H          -0.1223   -1.2240   -2.7628 H       1  UNL1        0.0624
     47 H           0.4232   -0.2784   -0.5704 H       1  UNL1        0.0621
     48 H          -0.2012   -0.6238   -4.9809 H       1  UNL1        0.0624
     49 H          -0.7708   -1.2595   -7.2674 H       1  UNL1        0.0618
     50 H           0.7503   -2.7373   -8.5696 H       1  UNL1        0.0618
     51 H           2.8103   -3.5892   -7.5366 H       1  UNL1        0.0626
@<TRIPOS>BOND
     1     1     2    1
     2     1    34    1
     3     1    35    1
     4     1    36    1
     5     2     3    1
     6     2    37    1
     7     2    38    1
     8     3     4    1
     9     4    12   ar
    10     4     5   ar
    11     5     6   ar
    12     6    11   ar
    13     6     7   ar
    14     7     8   ar
    15     7    39    1
    16     8     9   ar
    17     8    40    1
    18     9    10   ar
    19     9    41    1
    20    10    11   ar
    21    10    31    1
    22    11    12   ar
    23    12    13    1
    24    13    14    1
    25    13    42    1
    26    13    43    1
    27    14    19   ar
    28    14    15   ar
    29    15    16   ar
    30    15    44    1
    31    16    17   ar
    32    16    45    1
    33    17    18   ar
    34    17    20    1
    35    18    19   ar
    36    18    46    1
    37    19    47    1
    38    20    25   ar
    39    20    21   ar
    40    21    22   ar
    41    21    48    1
    42    22    23   ar
    43    22    49    1
    44    23    24   ar
    45    23    50    1
    46    24    25   ar
    47    24    51    1
    48    25    26    1
    49    26    30    2
    50    26    27    1
    51    27    28    1
    52    28    29    2
    53    29    30    1
    54    31    32   ar
    55    31    33   ar
