@<TRIPOS>MOLECULE
ZINC01550499
 49 51 0 0 0
SMALL
GASTEIGER

@<TRIPOS>ATOM
      1 C           0.6229   -0.6171   -0.3207 C.3     1  UNL1       -0.0173
      2 C           0.3358    0.1996   -1.5817 C.3     1  UNL1        0.0009
      3 H          -0.7383    0.4025   -1.5867 H       1  UNL1        0.0901
      4 C           0.7628   -0.5399   -2.8405 C.ar    1  UNL1        0.0075
      5 C           2.0185   -1.1907   -2.8510 C.ar    1  UNL1       -0.0527
      6 C           2.4460   -1.9060   -3.9618 C.ar    1  UNL1       -0.0607
      7 C           1.6393   -1.9772   -5.0884 C.ar    1  UNL1       -0.0540
      8 C           0.3991   -1.3337   -5.1251 C.ar    1  UNL1       -0.0174
      9 C          -0.0608   -0.5866   -4.0061 C.ar    1  UNL1       -0.0094
     10 C          -1.3242    0.0467   -4.1272 C.ar    1  UNL1       -0.0536
     11 C          -2.1034   -0.0774   -5.2831 C.ar    1  UNL1       -0.0612
     12 C          -1.6447   -0.8332   -6.3515 C.ar    1  UNL1       -0.0612
     13 C          -0.4023   -1.4496   -6.2720 C.ar    1  UNL1       -0.0540
     14 N           1.0115    1.5476   -1.5605 N.4     1  UNL1        0.2323
     15 C           0.6588    2.5591   -0.5234 C.3     1  UNL1       -0.0328
     16 C           1.1775    2.2493    0.8781 C.3     1  UNL1       -0.0086
     17 C           2.6912    2.0085    0.9761 C.3     1  UNL1       -0.0229
     18 C           3.0813    1.3888    2.2953 C.ar    1  UNL1       -0.0466
     19 C           2.8628    2.0859    3.4913 C.ar    1  UNL1       -0.0585
     20 C           3.2147    1.5183    4.7185 C.ar    1  UNL1       -0.0610
     21 C           3.7840    0.2469    4.7675 C.ar    1  UNL1       -0.0501
     22 C           4.0147   -0.4722    3.5856 C.ar    1  UNL1        0.0551
     23 C           3.6696    0.1130    2.3535 C.ar    1  UNL1       -0.0469
     24 C           4.6308   -1.8520    3.6262 C.3     1  UNL1        0.4174
     25 F           4.8850   -2.3078    4.8829 F       1  UNL1       -0.1659
     26 F           3.8244   -2.7837    3.0423 F       1  UNL1       -0.1659
     27 F           5.8119   -1.9128    2.9520 F       1  UNL1       -0.1659
     28 H          -0.1091   -0.3840    0.4590 H       1  UNL1        0.0288
     29 H           1.6243   -0.4391    0.0750 H       1  UNL1        0.0288
     30 H           0.5352   -1.6945   -0.5020 H       1  UNL1        0.0288
     31 H           2.6727   -1.1849   -1.9805 H       1  UNL1        0.0622
     32 H           3.4021   -2.4296   -3.9478 H       1  UNL1        0.0618
     33 H           1.9875   -2.5541   -5.9438 H       1  UNL1        0.0624
     34 H          -1.7527    0.6508   -3.3362 H       1  UNL1        0.0624
     35 H          -3.0777    0.4052   -5.3426 H       1  UNL1        0.0618
     36 H          -2.2574   -0.9510   -7.2418 H       1  UNL1        0.0618
     37 H          -0.0606   -2.0380   -7.1243 H       1  UNL1        0.0624
     38 H           2.0260    1.4186   -1.6295 H       1  UNL1        0.2019
     39 H           1.0865    3.5066   -0.8713 H       1  UNL1        0.0814
     40 H          -0.4341    2.6650   -0.5265 H       1  UNL1        0.0814
     41 H           0.9157    3.0993    1.5228 H       1  UNL1        0.0320
     42 H           0.6240    1.4083    1.3037 H       1  UNL1        0.0320
     43 H           3.0392    1.3565    0.1684 H       1  UNL1        0.0315
     44 H           3.2286    2.9553    0.8479 H       1  UNL1        0.0315
     45 H           2.4284    3.0799    3.4865 H       1  UNL1        0.0620
     46 H           3.0433    2.0666    5.6405 H       1  UNL1        0.0618
     47 H           4.0527   -0.1808    5.7334 H       1  UNL1        0.0623
     48 H           3.8616   -0.4495    1.4405 H       1  UNL1        0.0626
     49 H           0.7716    1.9692   -2.4688 H       1  UNL1        0.2019
@<TRIPOS>UNITY_ATOM_ATTR
14 1
charge 1
@<TRIPOS>BOND
     1     1    28    1
     2     1    29    1
     3     1    30    1
     4     2     4    1
     5     2    14    1
     6     4     9   ar
     7     4     5   ar
     8     5     6   ar
     9     5    31    1
    10     6     7   ar
    11     6    32    1
    12     7     8   ar
    13     7    33    1
    14     8    13   ar
    15     8     9   ar
    16     9    10   ar
    17    10    11   ar
    18    10    34    1
    19    11    12   ar
    20    11    35    1
    21    12    13   ar
    22    12    36    1
    23    13    37    1
    24    14    15    1
    25    14    38    1
    26    14    49    1
    27    15    16    1
    28    15    39    1
    29    15    40    1
    30    16    17    1
    31    16    41    1
    32    16    42    1
    33    17    18    1
    34    17    43    1
    35    17    44    1
    36    18    23   ar
    37    18    19   ar
    38    19    20   ar
    39    19    45    1
    40    20    21   ar
    41    20    46    1
    42    21    22   ar
    43    21    47    1
    44    22    23   ar
    45    22    24    1
    46    23    48    1
    47    24    25    1
    48    24    26    1
    49    24    27    1
    50     2     3    1
    51     2     1    1
