@<TRIPOS>MOLECULE
ZINC00020253
 33 35 0 0 0
SMALL
GASTEIGER

@<TRIPOS>ATOM
      1 C           1.9680    1.2196    0.0829 C.ar    1  UNL1       -0.0610
      2 C           2.3005   -0.1477    0.1306 C.ar    1  UNL1       -0.0613
      3 C           1.3053   -1.1313    0.1223 C.ar    1  UNL1       -0.0532
      4 C          -0.0174   -0.7192    0.0707 C.ar    1  UNL1        0.0189
      5 C          -0.3307    0.6418    0.0587 C.ar    1  UNL1        0.0446
      6 C           0.6346    1.6304    0.0534 C.ar    1  UNL1       -0.0492
      7 C          -1.7956    0.7637    0.0262 C.2     1  UNL1        0.2470
      8 O          -2.4198    1.8072    0.0373 O.2     1  UNL1       -0.2701
      9 N          -2.2975   -0.5118   -0.0119 N.am    1  UNL1       -0.2761
     10 C          -1.2859   -1.5240   -0.0663 C.3     1  UNL1        0.1867
     11 C          -1.3221   -2.3092   -1.3749 C.ar    1  UNL1        0.0088
     12 C          -1.2840   -3.7126   -1.3864 C.ar    1  UNL1       -0.0524
     13 C          -1.1377   -4.4163   -2.5859 C.ar    1  UNL1       -0.0411
     14 C          -1.0110   -3.7360   -3.8013 C.ar    1  UNL1        0.0673
     15 C          -1.0776   -2.3435   -3.8140 C.ar    1  UNL1        0.1236
     16 C          -1.2592   -1.6383   -2.6138 C.ar    1  UNL1       -0.0261
     17 S          -0.7966   -1.4654   -5.3172 S.O2    1  UNL1        0.0574
     18 O           0.6006   -1.5811   -5.6580 O.2     1  UNL1       -0.1532
     19 O          -1.8707   -1.7466   -6.2388 O.2     1  UNL1       -0.1532
     20 N          -0.9978    0.1597   -4.9147 N.3     1  UNL1       -0.2035
     21 CL         -0.7343   -4.6946   -5.2091 Cl      1  UNL1       -0.0815
     22 O          -1.5081   -2.3677    1.0442 O.3     1  UNL1       -0.3639
     23 H           2.7621    1.9644    0.0663 H       1  UNL1        0.0618
     24 H           3.3488   -0.4415    0.1566 H       1  UNL1        0.0618
     25 H           1.5724   -2.1844    0.1274 H       1  UNL1        0.0622
     26 H           0.3603    2.6788    0.0145 H       1  UNL1        0.0625
     27 H          -3.2837   -0.7116    0.0277 H       1  UNL1        0.1524
     28 H          -1.3397   -4.2747   -0.4552 H       1  UNL1        0.0622
     29 H          -1.0868   -5.5026   -2.5579 H       1  UNL1        0.0633
     30 H          -1.2952   -0.5509   -2.6267 H       1  UNL1        0.0642
     31 H          -0.0964    0.6371   -4.9686 H       1  UNL1        0.1442
     32 H          -1.7048    0.5658   -5.5318 H       1  UNL1        0.1442
     33 H          -0.7517   -2.2649    1.6423 H       1  UNL1        0.2127
@<TRIPOS>BOND
     1     1     6   ar
     2     1     2   ar
     3     1    23    1
     4     2     3   ar
     5     2    24    1
     6     3     4   ar
     7     3    25    1
     8     4    10    1
     9     4     5   ar
    10     5     6   ar
    11     5     7    1
    12     6    26    1
    13     7     8    2
    14     7     9   am
    15     9    10    1
    16     9    27    1
    17    10    11    1
    18    10    22    1
    19    11    16   ar
    20    11    12   ar
    21    12    13   ar
    22    12    28    1
    23    13    14   ar
    24    13    29    1
    25    14    15   ar
    26    14    21    1
    27    15    16   ar
    28    15    17    1
    29    16    30    1
    30    17    18    2
    31    17    19    2
    32    17    20    1
    33    20    31    1
    34    20    32    1
    35    22    33    1
