@<TRIPOS>MOLECULE
ZINC03860468
 26 26 0 0 0
SMALL
GASTEIGER

@<TRIPOS>ATOM
      1 C          -0.0066   -0.0168   -2.3760 C.3     1  UNL1        0.0730
      2 C           0.5366    0.8996   -1.2743 C.3     1  UNL1        0.1132
      3 H           0.9755    0.2605   -0.4969 H       1  UNL1        0.0647
      4 C          -0.5772    1.7886   -0.6617 C.3     1  UNL1        0.1147
      5 H          -1.1233    2.3449   -1.4333 H       1  UNL1        0.0648
      6 C           0.0456    2.7964    0.3180 C.3     1  UNL1        0.1304
      7 H           0.4439    2.2692    1.1946 H       1  UNL1        0.0679
      8 C           1.1454    3.5668   -0.3955 C.3     1  UNL1        0.0565
      9 H           0.7276    4.1455   -1.2297 H       1  UNL1        0.0927
     10 C           2.1942    2.5728   -0.9135 C.3     1  UNL1        0.2030
     11 H           2.6514    1.9958   -0.0996 H       1  UNL1        0.0968
     12 O           1.5917    1.7017   -1.8561 O.3     1  UNL1       -0.3383
     13 O           3.2117    3.3299   -1.5457 O.3     1  UNL1       -0.3627
     14 N           1.7444    4.5991    0.5066 N.4     1  UNL1        0.2263
     15 O          -0.9188    3.7285    0.8161 O.3     1  UNL1       -0.3834
     16 O          -1.5250    1.0196    0.0759 O.3     1  UNL1       -0.3864
     17 O          -0.6142    0.7669   -3.3986 O.3     1  UNL1       -0.3924
     18 H          -0.7584   -0.7076   -1.9821 H       1  UNL1        0.0584
     19 H           0.7976   -0.6032   -2.8324 H       1  UNL1        0.0584
     20 H           3.7828    2.6738   -1.9919 H       1  UNL1        0.2127
     21 H           2.5734    5.0079    0.0487 H       1  UNL1        0.2000
     22 H           1.0478    5.3391    0.6660 H       1  UNL1        0.2000
     23 H          -1.6845    3.1909    1.1168 H       1  UNL1        0.2102
     24 H          -2.1322    0.5976   -0.5654 H       1  UNL1        0.2100
     25 H           0.1108    1.1447   -3.9316 H       1  UNL1        0.2095
     26 H           2.0141    4.2317    1.4262 H       1  UNL1        0.2000
@<TRIPOS>UNITY_ATOM_ATTR
14 1
charge 1
@<TRIPOS>BOND
     1     1    17    1
     2     1    18    1
     3     1    19    1
     4     2    12    1
     5     2     4    1
     6     4     5    1
     7     4     6    1
     8     4    16    1
     9     6     7    1
    10     6     8    1
    11     6    15    1
    12     8    10    1
    13    10    11    1
    14    10    12    1
    15    10    13    1
    16    13    20    1
    17    14    21    1
    18    14    22    1
    19    14    26    1
    20    15    23    1
    21    16    24    1
    22    17    25    1
    23     2     3    1
    24     2     1    1
    25     8    14    1
    26     8     9    1
