@<TRIPOS>MOLECULE
ZINC00000570
 42 43 0 0 0
SMALL
GASTEIGER

@<TRIPOS>ATOM
      1 C          -4.4853    2.9088    2.9512 C.3     1  UNL1       -0.0219
      2 C          -4.3815    1.6154    3.7529 C.3     1  UNL1       -0.0283
      3 C          -5.6796    0.8131    3.6330 C.3     1  UNL1       -0.0219
      4 N          -3.2420    0.7734    3.2479 N.4     1  UNL1        0.2301
      5 C          -1.8433    1.3683    3.3538 C.3     1  UNL1       -0.0147
      6 C          -0.8300    0.3268    2.8298 C.3     1  UNL1        0.0608
      7 H          -1.1150    0.1020    1.7916 H       1  UNL1        0.0550
      8 C           0.6234    0.7934    2.8532 C.3     1  UNL1       -0.0256
      9 C           1.4932   -0.2586    2.1511 C.3     1  UNL1       -0.0241
     10 C           1.0940   -1.6666    2.5211 C.ar    1  UNL1       -0.0260
     11 C           1.9181   -2.7425    2.1470 C.ar    1  UNL1       -0.0494
     12 C           1.5832   -4.0829    2.4448 C.ar    1  UNL1        0.0043
     13 C           0.3659   -4.3219    3.1132 C.ar    1  UNL1        0.0822
     14 C          -0.4463   -3.2417    3.5114 C.ar    1  UNL1       -0.0140
     15 C          -0.1157   -1.9310    3.1758 C.ar    1  UNL1        0.0328
     16 N          -0.9790   -0.8996    3.6357 N.pl3   1  UNL1       -0.3358
     17 N          -0.1731   -5.6689    3.3804 N.pl3   1  UNL1       -0.1862
     18 O           0.4302   -6.6472    2.9208 O.2     1  UNL1       -0.1726
     19 O          -1.2304   -5.7497    4.0221 O.co2   1  UNL1       -0.7770
     20 C           2.5382   -5.1422    1.9565 C.3     1  UNL1        0.0712
     21 O           2.1464   -5.5158    0.6467 O.3     1  UNL1       -0.3903
     22 H          -4.7612    2.7157    1.9086 H       1  UNL1        0.0284
     23 H          -3.5498    3.4731    2.9551 H       1  UNL1        0.0284
     24 H          -5.2485    3.5648    3.3840 H       1  UNL1        0.0284
     25 H          -4.1754    1.8272    4.8073 H       1  UNL1        0.0845
     26 H          -5.9100    0.5664    2.5905 H       1  UNL1        0.0284
     27 H          -5.6262   -0.1223    4.1988 H       1  UNL1        0.0284
     28 H          -6.5239    1.3910    4.0272 H       1  UNL1        0.0284
     29 H          -3.1998   -0.1205    3.7638 H       1  UNL1        0.2017
     30 H          -1.8117    2.2759    2.7435 H       1  UNL1        0.0832
     31 H          -1.6840    1.6005    4.4094 H       1  UNL1        0.0832
     32 H           0.7391    1.7573    2.3443 H       1  UNL1        0.0288
     33 H           0.9698    0.9267    3.8863 H       1  UNL1        0.0288
     34 H           1.3832   -0.1496    1.0643 H       1  UNL1        0.0314
     35 H           2.5479   -0.0842    2.3961 H       1  UNL1        0.0314
     36 H           2.8355   -2.5403    1.5886 H       1  UNL1        0.0625
     37 H          -1.3748   -3.4158    4.0496 H       1  UNL1        0.0658
     38 H          -0.6927   -0.7458    4.6118 H       1  UNL1        0.1466
     39 H           3.5546   -4.7334    1.8969 H       1  UNL1        0.0608
     40 H           2.6235   -6.0131    2.6109 H       1  UNL1        0.0608
     41 H           1.4468   -6.1872    0.7459 H       1  UNL1        0.2098
     42 H          -3.4203    0.4862    2.2759 H       1  UNL1        0.2017
@<TRIPOS>UNITY_ATOM_ATTR
4 1
charge 1
19 1
charge -1
@<TRIPOS>BOND
     1     1     2    1
     2     1    22    1
     3     1    23    1
     4     1    24    1
     5     2     3    1
     6     2     4    1
     7     2    25    1
     8     3    26    1
     9     3    27    1
    10     3    28    1
    11     4     5    1
    12     4    29    1
    13     4    42    1
    14     5    30    1
    15     5    31    1
    16     6    16    1
    17     6     8    1
    18     8     9    1
    19     8    32    1
    20     8    33    1
    21     9    10    1
    22     9    34    1
    23     9    35    1
    24    10    15   ar
    25    10    11   ar
    26    11    12   ar
    27    11    36    1
    28    12    13   ar
    29    12    20    1
    30    13    14   ar
    31    13    17    1
    32    14    15   ar
    33    14    37    1
    34    15    16    1
    35    16    38    1
    36    17    18    2
    37    17    19    1
    38    20    21    1
    39    20    39    1
    40    20    40    1
    41    21    41    1
    42     6     7    1
    43     6     5    1
