@<TRIPOS>MOLECULE
ZINC03860453
 37 41 0 0 0
SMALL
GASTEIGER

@<TRIPOS>ATOM
      1 C          -0.1109    4.1034   -1.7719 C.ar    1  UNL1       -0.0610
      2 C          -0.0086    2.9495   -2.5683 C.ar    1  UNL1       -0.0613
      3 C           0.0317    1.6782   -1.9860 C.ar    1  UNL1       -0.0533
      4 C          -0.0275    1.5863   -0.6030 C.ar    1  UNL1        0.0190
      5 C          -0.1180    2.7305    0.1660 C.ar    1  UNL1        0.0667
      6 C          -0.1665    4.0000   -0.3821 C.ar    1  UNL1       -0.0474
      7 C          -0.1458    2.3555    1.5717 C.2     1  UNL1        0.3411
      8 O          -0.2231    3.1151    2.5158 O.2     1  UNL1       -0.2449
      9 O          -0.0632    0.9956    1.6231 O.3     1  UNL1       -0.4398
     10 C          -0.0111    0.3903    0.3001 C.3     1  UNL1        0.1963
     11 C          -1.2497   -0.4736    0.1507 C.ar    1  UNL1        0.0474
     12 C          -2.5508    0.0608    0.2693 C.ar    1  UNL1       -0.0471
     13 C          -3.6800   -0.7493    0.1276 C.ar    1  UNL1       -0.0195
     14 C          -3.5166   -2.1043   -0.1252 C.ar    1  UNL1        0.1204
     15 C          -2.2471   -2.6537   -0.2439 C.ar    1  UNL1        0.0226
     16 C          -1.1177   -1.8400   -0.1087 C.ar    1  UNL1        0.1395
     17 O           0.0875   -2.4778   -0.2532 O.3     1  UNL1       -0.4549
     18 C           1.2452   -1.7638   -0.0784 C.ar    1  UNL1        0.1395
     19 C           1.2823   -0.3961    0.2036 C.ar    1  UNL1        0.0474
     20 C           2.5416    0.2169    0.3761 C.ar    1  UNL1       -0.0471
     21 C           3.7238   -0.5163    0.2447 C.ar    1  UNL1       -0.0195
     22 C           3.6555   -1.8713   -0.0488 C.ar    1  UNL1        0.1204
     23 C           2.4273   -2.4997   -0.2058 C.ar    1  UNL1        0.0226
     24 O           4.7810   -2.6254   -0.1947 O.3     1  UNL1       -0.5066
     25 O          -4.5886   -2.9346   -0.2637 O.3     1  UNL1       -0.5066
     26 H          -0.1451    5.0831   -2.2439 H       1  UNL1        0.0618
     27 H           0.0389    3.0482   -3.6513 H       1  UNL1        0.0618
     28 H           0.1107    0.7891   -2.6063 H       1  UNL1        0.0622
     29 H          -0.2438    4.8796    0.2496 H       1  UNL1        0.0626
     30 H          -2.6986    1.1190    0.4757 H       1  UNL1        0.0624
     31 H          -4.6669   -0.3068    0.2200 H       1  UNL1        0.0654
     32 H          -2.1344   -3.7170   -0.4369 H       1  UNL1        0.0691
     33 H           2.6129    1.2775    0.6093 H       1  UNL1        0.0624
     34 H           4.6778   -0.0142    0.3741 H       1  UNL1        0.0654
     35 H           2.3884   -3.5632   -0.4266 H       1  UNL1        0.0691
     36 H           5.5578   -2.0590   -0.0557 H       1  UNL1        0.2921
     37 H          -5.4015   -2.4252   -0.1155 H       1  UNL1        0.2921
@<TRIPOS>BOND
     1     1     6   ar
     2     1     2   ar
     3     1    26    1
     4     2     3   ar
     5     2    27    1
     6     3     4   ar
     7     3    28    1
     8     4    10    1
     9     4     5   ar
    10     5     6   ar
    11     5     7    1
    12     6    29    1
    13     7     8    2
    14     7     9    1
    15     9    10    1
    16    10    19    1
    17    10    11    1
    18    11    16   ar
    19    11    12   ar
    20    12    13   ar
    21    12    30    1
    22    13    14   ar
    23    13    31    1
    24    14    15   ar
    25    14    25    1
    26    15    16   ar
    27    15    32    1
    28    16    17    1
    29    17    18    1
    30    18    23   ar
    31    18    19   ar
    32    19    20   ar
    33    20    21   ar
    34    20    33    1
    35    21    22   ar
    36    21    34    1
    37    22    23   ar
    38    22    24    1
    39    23    35    1
    40    24    36    1
    41    25    37    1
