@<TRIPOS>MOLECULE
ZINC03813047
 52 55 0 0 0
SMALL
GASTEIGER

@<TRIPOS>ATOM
      1 C           1.9022    1.8737    2.0109 C.3     1  UNL1       -0.0567
      2 C           1.6857    2.2708    0.5175 C.3     1  UNL1       -0.0004
      3 C           0.3804    3.0893    0.4469 C.3     1  UNL1       -0.0445
      4 C          -0.8403    2.2148    0.8084 C.3     1  UNL1       -0.0487
      5 C          -0.9450    0.9481   -0.0877 C.3     1  UNL1       -0.0292
      6 H          -1.1569    1.3488   -1.0921 H       1  UNL1        0.0310
      7 C           0.3819    0.1557   -0.1863 C.3     1  UNL1       -0.0342
      8 H           0.5582   -0.3994    0.7417 H       1  UNL1        0.0306
      9 C           1.5620    1.0682   -0.4365 C.3     1  UNL1       -0.0298
     10 H           1.4453    1.4397   -1.4654 H       1  UNL1        0.0310
     11 C           2.9327    0.4156   -0.3386 C.3     1  UNL1       -0.0468
     12 C           3.8815    1.6162   -0.3559 C.3     1  UNL1       -0.0235
     13 C           3.0024    2.8793   -0.0780 C.3     1  UNL1        0.0689
     14 C           2.8100    3.6980   -1.3727 C.3     1  UNL1       -0.0356
     15 O           3.7018    3.6912    0.8605 O.3     1  UNL1       -0.3883
     16 C           0.2659   -0.8412   -1.3511 C.3     1  UNL1       -0.0494
     17 C          -0.7876   -1.8814   -1.0294 C.3     1  UNL1       -0.0488
     18 C          -2.1335   -1.1916   -0.7923 C.3     1  UNL1       -0.0222
     19 H          -2.4157   -0.7451   -1.7602 H       1  UNL1        0.0312
     20 C          -2.1079   -0.0427    0.2582 C.3     1  UNL1        0.0085
     21 C          -3.4720    0.6368    0.0996 C.3     1  UNL1        0.0983
     22 O          -4.5880   -0.2731    0.1986 O.3     1  UNL1       -0.4641
     23 C          -4.5503   -1.5569   -0.2316 C.2     1  UNL1        0.3074
     24 O          -5.5928   -2.2127   -0.3425 O.2     1  UNL1       -0.2508
     25 C          -3.2069   -2.2027   -0.4412 C.3     1  UNL1        0.0484
     26 C          -1.9670   -0.5976    1.7031 C.3     1  UNL1       -0.0559
     27 H           1.2345    1.0682    2.3300 H       1  UNL1        0.0236
     28 H           2.9237    1.5408    2.2205 H       1  UNL1        0.0236
     29 H           1.7145    2.7303    2.6700 H       1  UNL1        0.0236
     30 H           0.2046    3.4971   -0.5527 H       1  UNL1        0.0272
     31 H           0.4298    3.9512    1.1228 H       1  UNL1        0.0272
     32 H          -1.7443    2.8245    0.6936 H       1  UNL1        0.0268
     33 H          -0.7880    1.9564    1.8684 H       1  UNL1        0.0268
     34 H           3.0376   -0.1455    0.5987 H       1  UNL1        0.0269
     35 H           3.1410   -0.2806   -1.1551 H       1  UNL1        0.0269
     36 H           4.3770    1.6613   -1.3318 H       1  UNL1        0.0293
     37 H           4.6727    1.4839    0.3907 H       1  UNL1        0.0293
     38 H           3.5104    3.3932   -2.1571 H       1  UNL1        0.0257
     39 H           2.9756    4.7665   -1.1996 H       1  UNL1        0.0257
     40 H           1.8206    3.5848   -1.8176 H       1  UNL1        0.0257
     41 H           3.0468    4.2562    1.3094 H       1  UNL1        0.2102
     42 H           1.2179   -1.3414   -1.5592 H       1  UNL1        0.0268
     43 H          -0.0101   -0.3110   -2.2723 H       1  UNL1        0.0268
     44 H          -0.4746   -2.4639   -0.1560 H       1  UNL1        0.0268
     45 H          -0.8659   -2.5822   -1.8680 H       1  UNL1        0.0268
     46 H          -3.6248    1.4020    0.8675 H       1  UNL1        0.0703
     47 H          -3.5546    1.1383   -0.8736 H       1  UNL1        0.0703
     48 H          -3.2993   -2.9317   -1.2558 H       1  UNL1        0.0380
     49 H          -2.9535   -2.7589    0.4677 H       1  UNL1        0.0380
     50 H          -2.9197   -0.9635    2.1001 H       1  UNL1        0.0236
     51 H          -1.6257    0.1620    2.4092 H       1  UNL1        0.0236
     52 H          -1.2535   -1.4248    1.7590 H       1  UNL1        0.0236
@<TRIPOS>BOND
     1     1    27    1
     2     1    28    1
     3     1    29    1
     4     2     1    1
     5     2     9    1
     6     2    13    1
     7     2     3    1
     8     3     4    1
     9     3    30    1
    10     3    31    1
    11     4     5    1
    12     4    32    1
    13     4    33    1
    14     5     6    1
    15     5    20    1
    16     5     7    1
    17     7     8    1
    18     7     9    1
    19     7    16    1
    20     9    10    1
    21     9    11    1
    22    11    12    1
    23    11    34    1
    24    11    35    1
    25    12    13    1
    26    12    36    1
    27    12    37    1
    28    13    14    1
    29    13    15    1
    30    14    38    1
    31    14    39    1
    32    14    40    1
    33    15    41    1
    34    16    17    1
    35    16    42    1
    36    16    43    1
    37    17    18    1
    38    17    44    1
    39    17    45    1
    40    18    19    1
    41    18    25    1
    42    18    20    1
    43    20    21    1
    44    20    26    1
    45    21    22    1
    46    21    46    1
    47    21    47    1
    48    22    23    1
    49    23    24    2
    50    23    25    1
    51    25    48    1
    52    25    49    1
    53    26    50    1
    54    26    51    1
    55    26    52    1
