@<TRIPOS>MOLECULE
ZINC01530628
 38 37 0 0 0
SMALL
GASTEIGER

@<TRIPOS>ATOM
      1 C           0.4731    3.0836    0.3533 C.3     1  UNL1       -0.0410
      2 C           0.2921    1.8106   -0.4456 C.3     1  UNL1        0.0549
      3 O           1.0162    1.8438   -1.6631 O.3     1  UNL1       -0.3005
      4 P           2.7462    1.8438   -1.6631 P.3     1  UNL1        0.3914
      5 O           2.8058    0.6047   -0.7714 O.2     1  UNL1       -0.2458
      6 O           2.7023    1.2866   -3.2240 O.3     1  UNL1       -0.3005
      7 C           2.0020    1.9962   -4.2393 C.3     1  UNL1        0.0549
      8 C           2.6568    3.3146   -4.5933 C.3     1  UNL1       -0.0410
      9 S           4.8662    1.8438   -1.6631 S.3     1  UNL1       -0.0359
     10 C           5.4789    0.9777   -0.1810 C.3     1  UNL1        0.0449
     11 C           5.1990   -0.5303    0.0564 C.3     1  UNL1       -0.0211
     12 N           5.7145   -1.5526   -0.9800 N.4     1  UNL1        0.2375
     13 C           5.4905   -2.9448   -0.3743 C.3     1  UNL1       -0.0418
     14 C           4.9173   -1.5115   -2.2807 C.3     1  UNL1       -0.0418
     15 C           7.1927   -1.3610   -1.2672 C.3     1  UNL1       -0.0418
     16 H           1.3138    2.9816    1.0428 H       1  UNL1        0.0252
     17 H          -0.4241    3.2799    0.9560 H       1  UNL1        0.0252
     18 H           0.6632    3.9452   -0.2897 H       1  UNL1        0.0252
     19 H           0.5461    0.9231    0.1414 H       1  UNL1        0.0562
     20 H          -0.7619    1.7125   -0.7196 H       1  UNL1        0.0562
     21 H           1.9879    1.3540   -5.1263 H       1  UNL1        0.0562
     22 H           0.9579    2.1510   -3.9546 H       1  UNL1        0.0562
     23 H           3.6350    3.1489   -5.0553 H       1  UNL1        0.0252
     24 H           2.0329    3.8675   -5.3067 H       1  UNL1        0.0252
     25 H           2.8097    3.9366   -3.7088 H       1  UNL1        0.0252
     26 H           6.5626    1.1235   -0.1824 H       1  UNL1        0.0434
     27 H           5.0979    1.5245    0.6874 H       1  UNL1        0.0434
     28 H           5.7248   -0.7850    0.9896 H       1  UNL1        0.0823
     29 H           4.1575   -0.7695    0.2499 H       1  UNL1        0.0823
     30 H           4.4122   -3.1157   -0.2894 H       1  UNL1        0.0778
     31 H           5.9388   -3.6931   -1.0340 H       1  UNL1        0.0778
     32 H           5.9613   -2.9795    0.6127 H       1  UNL1        0.0778
     33 H           5.1552   -0.5973   -2.8307 H       1  UNL1        0.0778
     34 H           5.2213   -2.3678   -2.8904 H       1  UNL1        0.0778
     35 H           3.8517   -1.5741   -2.0481 H       1  UNL1        0.0778
     36 H           7.3100   -0.5370   -1.9764 H       1  UNL1        0.0778
     37 H           7.7073   -1.1431   -0.3297 H       1  UNL1        0.0778
     38 H           7.5855   -2.2838   -1.7066 H       1  UNL1        0.0778
@<TRIPOS>UNITY_ATOM_ATTR
12 1
charge 1
@<TRIPOS>BOND
     1     1     2    1
     2     1    16    1
     3     1    17    1
     4     1    18    1
     5     2     3    1
     6     2    19    1
     7     2    20    1
     8     3     4    1
     9     4     5    2
    10     4     6    1
    11     4     9    1
    12     6     7    1
    13     7     8    1
    14     7    21    1
    15     7    22    1
    16     8    23    1
    17     8    24    1
    18     8    25    1
    19     9    10    1
    20    10    11    1
    21    10    26    1
    22    10    27    1
    23    11    12    1
    24    11    28    1
    25    11    29    1
    26    12    13    1
    27    12    14    1
    28    12    15    1
    29    13    30    1
    30    13    31    1
    31    13    32    1
    32    14    33    1
    33    14    34    1
    34    14    35    1
    35    15    36    1
    36    15    37    1
    37    15    38    1
