@<TRIPOS>MOLECULE
ZINC00895330
 28 29 0 0 0
SMALL
GASTEIGER

@<TRIPOS>ATOM
      1 C           1.5277    1.2288    0.0344 C.ar    1  UNL1       -0.0182
      2 C           0.1904    1.6385    0.0228 C.ar    1  UNL1       -0.0343
      3 C          -0.7973    0.6452   -0.0111 C.ar    1  UNL1        0.0470
      4 C          -0.4954   -0.7162   -0.0487 C.ar    1  UNL1        0.0065
      5 C           0.8596   -1.1058   -0.0444 C.ar    1  UNL1       -0.0108
      6 C           1.8472   -0.1228    0.0062 C.ar    1  UNL1        0.1176
      7 O           3.1439   -0.5473    0.0314 O.3     1  UNL1       -0.5067
      8 C          -1.7375   -1.4329   -0.0670 C.ar    1  UNL1       -0.0164
      9 C          -2.7438   -0.4859   -0.0493 C.ar    1  UNL1        0.0061
     10 N          -2.1673    0.7570   -0.0330 N.ar    1  UNL1       -0.3604
     11 H          -2.6736    1.6334   -0.0364 H       1  UNL1        0.1653
     12 C          -1.9196   -2.9229   -0.0901 C.3     1  UNL1        0.0281
     13 CA         -2.0141   -3.5247    1.3129 C.3     1  UNL1        0.0826
     14 HA         -2.8406   -3.1107    1.8989 H       1  UNL1        0.0973
     15 C          -2.1580   -5.0520    1.1027 C.2     1  UNL1        0.4029
     16 O          -1.0233   -5.6201    1.1807 O.co2   1  UNL1       -0.2400
     17 OXT        -3.3215   -5.4979    1.0056 O.co2   1  UNL1       -0.2400
     18 N          -0.7454   -3.2330    2.0966 N.4     1  UNL1        0.2291
     19 H           2.3069    1.9856    0.0613 H       1  UNL1        0.0655
     20 H          -0.0669    2.6936    0.0357 H       1  UNL1        0.0639
     21 H           1.1469   -2.1516   -0.0947 H       1  UNL1        0.0661
     22 H           3.7284    0.2267   -0.0324 H       1  UNL1        0.2921
     23 H          -3.8208   -0.5907   -0.0660 H       1  UNL1        0.0810
     24 H          -2.8294   -3.1589   -0.6585 H       1  UNL1        0.0375
     25 H          -1.0924   -3.3766   -0.6536 H       1  UNL1        0.0375
     26 H1         -0.0223   -3.8019    1.6200 H       1  UNL1        0.2003
     27 H2         -0.4935   -2.2462    2.1554 H       1  UNL1        0.2003
     28 H3         -0.8269   -3.6790    3.0162 H       1  UNL1        0.2003
@<TRIPOS>UNITY_ATOM_ATTR
18 1
charge 1
@<TRIPOS>BOND
     1     1     6   ar
     2     1     2   ar
     3     1    19    1
     4     2     3   ar
     5     2    20    1
     6     3    10   ar
     7     3     4   ar
     8     4     5   ar
     9     4     8   ar
    10     5     6   ar
    11     5    21    1
    12     6     7    1
    13     7    22    1
    14     8     9   ar
    15     8    12    1
    16     9    10   ar
    17     9    23    1
    18    10    11    1
    19    12    13    1
    20    12    24    1
    21    12    25    1
    22    13    14    1
    23    13    15    1
    24    13    18    1
    25    15    16   ar
    26    15    17   ar
    27    18    26    1
    28    18    27    1
    29    18    28    1
