@<TRIPOS>MOLECULE
ZINC00000469
 33 33 0 0 0
SMALL
GASTEIGER

@<TRIPOS>ATOM
      1 C          -0.8903    3.5590   -5.1415 C.3     1  UNL1       -0.0219
      2 C          -1.3477    2.2582   -4.4955 C.3     1  UNL1       -0.0283
      3 C          -0.7598    1.0514   -5.2195 C.3     1  UNL1       -0.0219
      4 N          -0.8970    2.1939   -3.0678 N.4     1  UNL1        0.2308
      5 C          -1.4535    3.2284   -2.1161 C.3     1  UNL1       -0.0026
      6 C          -0.8276    2.9825   -0.7279 C.3     1  UNL1        0.1199
      7 H          -1.1038    1.9806   -0.3742 H       1  UNL1        0.0698
      8 C          -1.2711    4.0009    0.2928 C.ar    1  UNL1       -0.0072
      9 C          -2.4395    3.7585    1.0371 C.ar    1  UNL1       -0.0141
     10 C          -2.8810    4.6915    1.9740 C.ar    1  UNL1        0.1207
     11 C          -2.1735    5.8692    2.1855 C.ar    1  UNL1        0.0213
     12 C          -1.0246    6.1162    1.4498 C.ar    1  UNL1        0.1207
     13 C          -0.5732    5.2056    0.4980 C.ar    1  UNL1       -0.0141
     14 O          -0.3629    7.2834    1.6901 O.3     1  UNL1       -0.5066
     15 O          -4.0089    4.4927    2.7047 O.3     1  UNL1       -0.5066
     16 O           0.5949    2.9508   -0.9061 O.3     1  UNL1       -0.3819
     17 H           0.1920    3.6962   -5.0453 H       1  UNL1        0.0284
     18 H          -1.3864    4.4246   -4.6939 H       1  UNL1        0.0284
     19 H          -1.1384    3.5646   -6.2079 H       1  UNL1        0.0284
     20 H          -2.4409    2.1908   -4.4877 H       1  UNL1        0.0845
     21 H           0.3360    1.0699   -5.2030 H       1  UNL1        0.0284
     22 H          -1.0882    0.1146   -4.7570 H       1  UNL1        0.0284
     23 H          -1.0799    1.0355   -6.2665 H       1  UNL1        0.0284
     24 H          -1.1141    1.2611   -2.6934 H       1  UNL1        0.2017
     25 H          -1.1478    4.2056   -2.5004 H       1  UNL1        0.0843
     26 H          -2.5437    3.1401   -2.1151 H       1  UNL1        0.0843
     27 H          -3.0050    2.8398    0.8973 H       1  UNL1        0.0658
     28 H          -2.5194    6.5887    2.9234 H       1  UNL1        0.0691
     29 H           0.3248    5.4281   -0.0744 H       1  UNL1        0.0658
     30 H           0.4566    7.3199    1.1761 H       1  UNL1        0.2921
     31 H          -4.4053    3.6310    2.4963 H       1  UNL1        0.2921
     32 H           1.0030    3.1260   -0.0340 H       1  UNL1        0.2105
     33 H           0.1327    2.2681   -2.9960 H       1  UNL1        0.2017
@<TRIPOS>UNITY_ATOM_ATTR
4 1
charge 1
@<TRIPOS>BOND
     1     1     2    1
     2     1    17    1
     3     1    18    1
     4     1    19    1
     5     2     3    1
     6     2     4    1
     7     2    20    1
     8     3    21    1
     9     3    22    1
    10     3    23    1
    11     4     5    1
    12     4    24    1
    13     4    33    1
    14     5    25    1
    15     5    26    1
    16     6     8    1
    17     6    16    1
    18     8    13   ar
    19     8     9   ar
    20     9    10   ar
    21     9    27    1
    22    10    11   ar
    23    10    15    1
    24    11    12   ar
    25    11    28    1
    26    12    13   ar
    27    12    14    1
    28    13    29    1
    29    14    30    1
    30    15    31    1
    31    16    32    1
    32     6     7    1
    33     6     5    1
