@<TRIPOS>MOLECULE
ZINC00000323
 30 31 0 0 0
SMALL
GASTEIGER

@<TRIPOS>ATOM
      1 C           1.1037   -1.1644   -2.5573 C.3     1  UNL1       -0.0480
      2 C           0.5784   -0.4589   -1.3069 C.3     1  UNL1        0.0829
      3 H           0.9281    0.5809   -1.3621 H       1  UNL1        0.0461
      4 C          -0.9387   -0.4695   -1.2767 C.ar    1  UNL1       -0.0311
      5 C          -1.6604   -1.6678   -1.2529 C.ar    1  UNL1       -0.0570
      6 C          -3.0597   -1.6681   -1.2679 C.ar    1  UNL1       -0.0510
      7 C          -3.7941   -0.4684   -1.3082 C.ar    1  UNL1        0.0173
      8 C          -3.0475    0.7242   -1.3034 C.ar    1  UNL1        0.1313
      9 C          -1.6520    0.7302   -1.2834 C.ar    1  UNL1       -0.0219
     10 F          -3.6638    1.9176   -1.3529 F       1  UNL1       -0.2048
     11 C          -5.2760   -0.4777   -1.3732 C.ar    1  UNL1       -0.0151
     12 C          -5.9721   -1.4841   -2.0713 C.ar    1  UNL1       -0.0539
     13 C          -7.3676   -1.4802   -2.1664 C.ar    1  UNL1       -0.0612
     14 C          -8.1027   -0.4609   -1.5706 C.ar    1  UNL1       -0.0617
     15 C          -7.4447    0.5408   -0.8662 C.ar    1  UNL1       -0.0612
     16 C          -6.0512    0.5235   -0.7601 C.ar    1  UNL1       -0.0539
     17 C           1.1499   -1.0485    0.0015 C.2     1  UNL1        0.3630
     18 O           1.4345   -2.2826   -0.0182 O.co2   1  UNL1       -0.2457
     19 O           1.2922   -0.2156    0.9448 O.co2   1  UNL1       -0.2457
     20 H           0.7228   -0.6805   -3.4644 H       1  UNL1        0.0241
     21 H           0.8070   -2.2187   -2.6016 H       1  UNL1        0.0241
     22 H           2.1978   -1.1315   -2.5899 H       1  UNL1        0.0241
     23 H          -1.1253   -2.6186   -1.2181 H       1  UNL1        0.0621
     24 H          -3.5629   -2.6309   -1.2359 H       1  UNL1        0.0625
     25 H          -1.1299    1.6831   -1.2698 H       1  UNL1        0.0649
     26 H          -5.4285   -2.2830   -2.5712 H       1  UNL1        0.0624
     27 H          -7.8731   -2.2693   -2.7158 H       1  UNL1        0.0618
     28 H          -9.1851   -0.4455   -1.6576 H       1  UNL1        0.0618
     29 H          -8.0078    1.3440   -0.3995 H       1  UNL1        0.0618
     30 H          -5.5692    1.3158   -0.1897 H       1  UNL1        0.0624
@<TRIPOS>BOND
     1     1     2    1
     2     1    20    1
     3     1    21    1
     4     1    22    1
     5     2     3    1
     6     2     4    1
     7     2    17    1
     8     4     9   ar
     9     4     5   ar
    10     5     6   ar
    11     5    23    1
    12     6     7   ar
    13     6    24    1
    14     7     8   ar
    15     7    11    1
    16     8     9   ar
    17     8    10    1
    18     9    25    1
    19    11    16   ar
    20    11    12   ar
    21    12    13   ar
    22    12    26    1
    23    13    14   ar
    24    13    27    1
    25    14    15   ar
    26    14    28    1
    27    15    16   ar
    28    15    29    1
    29    16    30    1
    30    17    18   ar
    31    17    19   ar
