@<TRIPOS>MOLECULE
ZINC03872520
 21 21 0 0 0
SMALL
GASTEIGER

@<TRIPOS>ATOM
      1 C          -0.8100   -1.1279    1.3929 C.3     1  UNL1       -0.0598
      2 C           0.5884   -0.5492    1.2481 C.3     1  UNL1       -0.0132
      3 C           0.9596    0.3430    2.4044 C.ar    1  UNL1        0.0417
      4 C           0.6728    1.7051    2.3717 C.ar    1  UNL1       -0.0310
      5 C           1.0451    2.5034    3.4585 C.ar    1  UNL1        0.0060
      6 C           1.6768    1.9024    4.5491 C.ar    1  UNL1       -0.0341
      7 C           1.9080    0.5402    4.5035 C.ar    1  UNL1        0.0285
      8 N           1.5676   -0.2448    3.4603 N.ar    1  UNL1       -0.2599
      9 C           0.7602    3.9679    3.4497 C.2     1  UNL1        0.0769
     10 S           0.4698    4.9083    4.8027 S.2     1  UNL1       -0.0352
     11 N           0.7427    4.5961    2.2288 N.am    1  UNL1       -0.3518
     12 H          -0.8964   -1.7366    2.2990 H       1  UNL1        0.0233
     13 H          -1.0446   -1.7652    0.5337 H       1  UNL1        0.0233
     14 H          -1.5662   -0.3373    1.4444 H       1  UNL1        0.0233
     15 H           1.3150   -1.3678    1.1823 H       1  UNL1        0.0326
     16 H           0.6668    0.0101    0.3081 H       1  UNL1        0.0326
     17 H           0.1508    2.1222    1.5180 H       1  UNL1        0.0642
     18 H           1.9924    2.4666    5.4190 H       1  UNL1        0.0639
     19 H           2.3914    0.0271    5.3305 H       1  UNL1        0.0830
     20 H           1.0118    4.1568    1.3576 H       1  UNL1        0.1428
     21 H           0.5950    5.5986    2.2122 H       1  UNL1        0.1428
@<TRIPOS>BOND
     1     1     2    1
     2     1    12    1
     3     1    13    1
     4     1    14    1
     5     2     3    1
     6     2    15    1
     7     2    16    1
     8     3     8   ar
     9     3     4   ar
    10     4     5   ar
    11     4    17    1
    12     5     6   ar
    13     5     9    1
    14     6     7   ar
    15     6    18    1
    16     7     8   ar
    17     7    19    1
    18     9    10    2
    19     9    11    1
    20    11    20    1
    21    11    21    1
