@<TRIPOS>MOLECULE
ZINC00968303
 31 31 0 0 0
SMALL
GASTEIGER

@<TRIPOS>ATOM
      1 C           0.9555    0.2068    0.0323 C.3     1  UNL1       -0.0585
      2 C           0.4345    0.2539   -1.4061 C.3     1  UNL1       -0.0181
      3 C           1.0257   -0.8994   -2.2275 C.3     1  UNL1       -0.0585
      4 C          -1.0916    0.2993   -1.4024 C.ar    1  UNL1       -0.0031
      5 C          -1.8191   -0.9034   -1.3690 C.ar    1  UNL1       -0.0548
      6 C          -3.2113   -0.9125   -1.3472 C.ar    1  UNL1       -0.0610
      7 C          -3.9110    0.2873   -1.3375 C.ar    1  UNL1       -0.0548
      8 C          -3.2335    1.5171   -1.3451 C.ar    1  UNL1       -0.0031
      9 C          -1.8224    1.5058   -1.3768 C.ar    1  UNL1        0.1237
     10 O          -1.2081    2.7311   -1.3715 O.3     1  UNL1       -0.5062
     11 C          -4.0255    2.8158   -1.2957 C.3     1  UNL1       -0.0181
     12 C          -4.9669    2.9458   -2.4984 C.3     1  UNL1       -0.0585
     13 C          -4.7978    2.9392    0.0217 C.3     1  UNL1       -0.0585
     14 H           0.6212   -0.6992    0.5506 H       1  UNL1        0.0235
     15 H           0.6030    1.0684    0.6103 H       1  UNL1        0.0235
     16 H           2.0501    0.2188    0.0499 H       1  UNL1        0.0235
     17 H           0.8182    1.1610   -1.8851 H       1  UNL1        0.0345
     18 H           0.8096   -1.8799   -1.7912 H       1  UNL1        0.0235
     19 H           0.6375   -0.8879   -3.2523 H       1  UNL1        0.0235
     20 H           2.1160   -0.8081   -2.2820 H       1  UNL1        0.0235
     21 H          -1.3132   -1.8646   -1.3500 H       1  UNL1        0.0622
     22 H          -3.7491   -1.8563   -1.3301 H       1  UNL1        0.0618
     23 H          -4.9972    0.2554   -1.3109 H       1  UNL1        0.0622
     24 H          -0.2485    2.6280   -1.3094 H       1  UNL1        0.2922
     25 H          -3.3441    3.6730   -1.3432 H       1  UNL1        0.0345
     26 H          -5.7323    2.1625   -2.5119 H       1  UNL1        0.0235
     27 H          -5.4839    3.9116   -2.4808 H       1  UNL1        0.0235
     28 H          -4.4072    2.8817   -3.4383 H       1  UNL1        0.0235
     29 H          -4.1152    2.8772    0.8809 H       1  UNL1        0.0235
     30 H          -5.3169    3.9026    0.0766 H       1  UNL1        0.0235
     31 H          -5.5498    2.1510    0.1341 H       1  UNL1        0.0235
@<TRIPOS>BOND
     1     1     2    1
     2     1    14    1
     3     1    15    1
     4     1    16    1
     5     2     3    1
     6     2     4    1
     7     2    17    1
     8     3    18    1
     9     3    19    1
    10     3    20    1
    11     4     9   ar
    12     4     5   ar
    13     5     6   ar
    14     5    21    1
    15     6     7   ar
    16     6    22    1
    17     7     8   ar
    18     7    23    1
    19     8     9   ar
    20     8    11    1
    21     9    10    1
    22    10    24    1
    23    11    12    1
    24    11    13    1
    25    11    25    1
    26    12    26    1
    27    12    27    1
    28    12    28    1
    29    13    29    1
    30    13    30    1
    31    13    31    1
