@<TRIPOS>MOLECULE
ZINC03831041
 53 56 0 0 0
SMALL
GASTEIGER

@<TRIPOS>ATOM
      1 C          -4.3524    3.5698    4.4462 C.3     1  UNL1       -0.0428
      2 N          -4.3900    2.3198    3.5882 N.4     1  UNL1        0.2353
      3 C          -5.8165    2.1139    3.1169 C.3     1  UNL1       -0.0319
      4 C          -5.9341    0.7739    2.4246 C.3     1  UNL1       -0.0123
      5 C          -5.0169    0.7051    1.2224 C.3     1  UNL1       -0.0432
      6 C          -3.5744    1.0726    1.5596 C.3     1  UNL1       -0.0094
      7 C          -3.3637    2.3229    2.4377 C.3     1  UNL1       -0.0197
      8 H          -3.5628    3.2303    1.8542 H       1  UNL1        0.0851
      9 C          -1.9269    2.3491    3.0243 C.3     1  UNL1        0.0064
     10 C          -0.8019    2.3096    1.9693 C.3     1  UNL1        0.0224
     11 N           0.5274    2.3951    2.6195 N.pl3   1  UNL1       -0.2981
     12 C           1.1459    1.1992    3.0951 C.ar    1  UNL1        0.0479
     13 C           0.9375   -0.0565    2.4956 C.ar    1  UNL1       -0.0393
     14 C           1.6866   -1.1865    2.8590 C.ar    1  UNL1       -0.0599
     15 C           2.6670   -1.0966    3.8361 C.ar    1  UNL1       -0.0606
     16 C           2.8672    0.1144    4.4837 C.ar    1  UNL1       -0.0462
     17 C           2.1095    1.2420    4.1305 C.ar    1  UNL1        0.0341
     18 S           2.3844    2.7197    5.0867 S.3     1  UNL1       -0.0857
     19 C           2.0335    3.9336    3.8342 C.ar    1  UNL1        0.0342
     20 C           1.1305    3.6793    2.7764 C.ar    1  UNL1        0.0490
     21 C           0.9635    4.7139    1.8359 C.ar    1  UNL1       -0.0235
     22 C           1.6466    5.9428    1.9400 C.ar    1  UNL1        0.0404
     23 C           2.5283    6.1537    2.9976 C.ar    1  UNL1       -0.0448
     24 C           2.7121    5.1558    3.9460 C.ar    1  UNL1       -0.0451
     25 S           1.4877    7.2008    0.6446 S.O     1  UNL1        0.0507
     26 O           0.4007    6.7041   -0.2644 O.2     1  UNL1       -0.2524
     27 C           0.7765    8.5244    1.6499 C.3     1  UNL1        0.0163
     28 H          -4.5801    4.4314    3.8135 H       1  UNL1        0.0778
     29 H          -5.0998    3.4580    5.2355 H       1  UNL1        0.0778
     30 H          -3.3672    3.6565    4.9050 H       1  UNL1        0.0778
     31 H          -6.4610    2.1377    4.0006 H       1  UNL1        0.0814
     32 H          -6.0754    2.9468    2.4532 H       1  UNL1        0.0814
     33 H          -6.9737    0.6217    2.1005 H       1  UNL1        0.0317
     34 H          -5.7035   -0.0348    3.1275 H       1  UNL1        0.0317
     35 H          -5.3940    1.3702    0.4361 H       1  UNL1        0.0269
     36 H          -5.0417   -0.3104    0.8085 H       1  UNL1        0.0269
     37 H          -3.0474    1.2193    0.6071 H       1  UNL1        0.0320
     38 H          -3.1044    0.2068    2.0394 H       1  UNL1        0.0320
     39 H          -1.7862    3.2616    3.6138 H       1  UNL1        0.0335
     40 H          -1.8044    1.5077    3.7194 H       1  UNL1        0.0335
     41 H          -0.8901    1.4114    1.3551 H       1  UNL1        0.0470
     42 H          -0.9788    3.1223    1.2613 H       1  UNL1        0.0470
     43 H           0.2470   -0.1913    1.6717 H       1  UNL1        0.0636
     44 H           1.5314   -2.1312    2.3421 H       1  UNL1        0.0618
     45 H           3.2798   -1.9594    4.0900 H       1  UNL1        0.0618
     46 H           3.6343    0.1833    5.2543 H       1  UNL1        0.0629
     47 H           0.3625    4.5643    0.9435 H       1  UNL1        0.0648
     48 H           3.1035    7.0731    3.0791 H       1  UNL1        0.0630
     49 H           3.4199    5.3206    4.7574 H       1  UNL1        0.0630
     50 H          -0.1885    8.2018    2.0478 H       1  UNL1        0.0368
     51 H           1.4492    8.7990    2.4609 H       1  UNL1        0.0368
     52 H           0.6231    9.3947    1.0041 H       1  UNL1        0.0368
     53 H          -4.1567    1.5331    4.2057 H       1  UNL1        0.2033
@<TRIPOS>UNITY_ATOM_ATTR
2 1
charge 1
@<TRIPOS>BOND
     1     1     2    1
     2     1    28    1
     3     1    29    1
     4     1    30    1
     5     2     7    1
     6     2     3    1
     7     2    53    1
     8     3     4    1
     9     3    31    1
    10     3    32    1
    11     4     5    1
    12     4    33    1
    13     4    34    1
    14     5     6    1
    15     5    35    1
    16     5    36    1
    17     6     7    1
    18     6    37    1
    19     6    38    1
    20     7     8    1
    21     7     9    1
    22     9    10    1
    23     9    39    1
    24     9    40    1
    25    10    11    1
    26    10    41    1
    27    10    42    1
    28    11    20    1
    29    11    12    1
    30    12    17   ar
    31    12    13   ar
    32    13    14   ar
    33    13    43    1
    34    14    15   ar
    35    14    44    1
    36    15    16   ar
    37    15    45    1
    38    16    17   ar
    39    16    46    1
    40    17    18    1
    41    18    19    1
    42    19    24   ar
    43    19    20   ar
    44    20    21   ar
    45    21    22   ar
    46    21    47    1
    47    22    23   ar
    48    22    25    1
    49    23    24   ar
    50    23    48    1
    51    24    49    1
    52    25    26    2
    53    25    27    1
    54    27    50    1
    55    27    51    1
    56    27    52    1
