@<TRIPOS>MOLECULE
ZINC03779720
 52 54 0 0 0
SMALL
GASTEIGER

@<TRIPOS>ATOM
      1 C           2.0467   -0.7024    0.0317 C.3     1  UNL1       -0.0586
      2 C           3.2286    0.2408    0.3509 C.3     1  UNL1       -0.0196
      3 C           3.8390   -0.1411    1.6985 C.3     1  UNL1       -0.0586
      4 C           2.7230    1.6743    0.2714 C.ar    1  UNL1       -0.0172
      5 C           1.9585    2.2135    1.3086 C.ar    1  UNL1       -0.0530
      6 C           0.9972    3.2009    1.0550 C.ar    1  UNL1       -0.0433
      7 C           0.6764    3.5253   -0.2706 C.ar    1  UNL1       -0.0361
      8 C           1.6381    3.2272   -1.2454 C.ar    1  UNL1       -0.0301
      9 C           2.7133    2.3803   -0.9353 C.ar    1  UNL1        0.1233
     10 S           4.2300    2.5500   -1.9378 S.3     1  UNL1        0.1399
     11 O           4.3606    3.9918   -2.0946 O.2     1  UNL1       -0.1397
     12 O           5.2820    1.9332   -1.1265 O.2     1  UNL1       -0.1397
     13 O           3.8766    1.8237   -3.1470 O.3     1  UNL1       -0.0426
     14 C          -0.6738    4.1948   -0.5960 C.3     1  UNL1       -0.0029
     15 C          -1.3956    3.4186   -1.7274 C.3     1  UNL1       -0.0433
     16 C          -2.7428    4.0238   -2.0963 C.3     1  UNL1       -0.0512
     17 C          -3.6975    4.3103   -0.9373 C.3     1  UNL1       -0.0370
     18 C          -3.0970    4.5470    0.4736 C.3     1  UNL1        0.0728
     19 C          -1.6201    4.0644    0.6506 C.3     1  UNL1       -0.0157
     20 H          -1.6762    2.9816    0.8486 H       1  UNL1        0.0320
     21 C          -0.9297    4.6501    1.8906 C.3     1  UNL1       -0.0444
     22 C           0.3472    3.8876    2.2236 C.3     1  UNL1       -0.0271
     23 C          -3.3271    6.0160    0.8827 C.3     1  UNL1       -0.0490
     24 C          -3.9480    3.6252    1.4414 C.2     1  UNL1        0.3621
     25 O          -3.9729    2.3917    1.1577 O.co2   1  UNL1       -0.2457
     26 O          -4.5302    4.2101    2.4022 O.co2   1  UNL1       -0.2457
     27 C          -0.3766    5.6394   -1.0342 C.3     1  UNL1       -0.0552
     28 H           2.2232   -1.7168    0.4068 H       1  UNL1        0.0235
     29 H           1.8962   -0.7743   -1.0513 H       1  UNL1        0.0235
     30 H           1.1014   -0.3524    0.4639 H       1  UNL1        0.0235
     31 H           3.9920    0.0535   -0.4103 H       1  UNL1        0.0344
     32 H           4.6838    0.5101    1.9450 H       1  UNL1        0.0235
     33 H           3.1120   -0.0883    2.5148 H       1  UNL1        0.0235
     34 H           4.2073   -1.1739    1.6682 H       1  UNL1        0.0235
     35 H           2.0453    1.8248    2.3176 H       1  UNL1        0.0624
     36 H           1.5868    3.6541   -2.2443 H       1  UNL1        0.0640
     37 H          -1.5454    2.3721   -1.4273 H       1  UNL1        0.0274
     38 H          -0.7815    3.3796   -2.6358 H       1  UNL1        0.0274
     39 H          -2.5767    4.9516   -2.6553 H       1  UNL1        0.0266
     40 H          -3.2485    3.3510   -2.8029 H       1  UNL1        0.0266
     41 H          -4.2865    5.1916   -1.2313 H       1  UNL1        0.0276
     42 H          -4.4462    3.5086   -0.9253 H       1  UNL1        0.0276
     43 H          -1.5843    4.6111    2.7690 H       1  UNL1        0.0272
     44 H          -0.6911    5.7075    1.7319 H       1  UNL1        0.0272
     45 H           0.1320    3.1509    3.0078 H       1  UNL1        0.0313
     46 H           1.0716    4.5976    2.6422 H       1  UNL1        0.0313
     47 H          -2.7961    6.7127    0.2321 H       1  UNL1        0.0240
     48 H          -4.3923    6.2760    0.8311 H       1  UNL1        0.0240
     49 H          -3.0160    6.2219    1.9125 H       1  UNL1        0.0240
     50 H           0.1408    5.6550   -2.0015 H       1  UNL1        0.0238
     51 H           0.2737    6.1558   -0.3206 H       1  UNL1        0.0238
     52 H          -1.2808    6.2357   -1.1589 H       1  UNL1        0.0238
@<TRIPOS>BOND
     1     1     2    1
     2     1    28    1
     3     1    29    1
     4     1    30    1
     5     2     3    1
     6     2     4    1
     7     2    31    1
     8     3    32    1
     9     3    33    1
    10     3    34    1
    11     4     9   ar
    12     4     5   ar
    13     5     6   ar
    14     5    35    1
    15     6    22    1
    16     6     7   ar
    17     7     8   ar
    18     7    14    1
    19     8     9   ar
    20     8    36    1
    21     9    10    1
    22    10    11    2
    23    10    12    2
    24    10    13    1
    25    14    19    1
    26    14    15    1
    27    14    27    1
    28    15    16    1
    29    15    37    1
    30    15    38    1
    31    16    17    1
    32    16    39    1
    33    16    40    1
    34    17    18    1
    35    17    41    1
    36    17    42    1
    37    18    19    1
    38    18    23    1
    39    18    24    1
    40    19    20    1
    41    19    21    1
    42    21    22    1
    43    21    43    1
    44    21    44    1
    45    22    45    1
    46    22    46    1
    47    23    47    1
    48    23    48    1
    49    23    49    1
    50    24    25   ar
    51    24    26   ar
    52    27    50    1
    53    27    51    1
    54    27    52    1
