@<TRIPOS>MOLECULE
ZINC00598852
 51 53 0 0 0
SMALL
GASTEIGER

@<TRIPOS>ATOM
      1 C          -0.9681   -0.6937   -3.2262 C.3     1  UNL1       -0.0502
      2 C           0.2560   -1.1102   -2.4560 C.3     1  UNL1        0.0398
      3 C           0.0905   -1.4645   -0.9942 C.2     1  UNL1       -0.0408
      4 C           1.0709   -2.1785   -0.4026 C.2     1  UNL1       -0.0571
      5 C           2.3553   -2.3821   -0.9985 C.2     1  UNL1       -0.0246
      6 C           2.5938   -2.0364   -2.2732 C.2     1  UNL1        0.1041
      7 C           1.5016   -1.5925   -3.1694 C.2     1  UNL1        0.0904
      8 C           1.8751   -1.6508   -4.4974 C.2     1  UNL1        0.3232
      9 N           2.8906   -2.5392   -4.9009 N.2     1  UNL1        0.0214
     10 C           3.8117   -2.7611   -4.0182 C.cat   1  UNL1        0.4130
     11 N           3.8587   -2.0884   -2.8343 N.pl3   1  UNL1       -0.1979
     12 N           4.6968   -3.7890   -4.0077 N.pl3   1  UNL1       -0.2434
     13 N           1.3514   -0.8862   -5.5252 N.pl3   1  UNL1       -0.2461
     14 C          -1.0356   -0.9885   -0.0803 C.3     1  UNL1        0.0315
     15 N          -2.1863   -1.8703   -0.1508 N.pl3   1  UNL1       -0.3398
     16 C          -3.1814   -1.9366    0.8286 C.ar    1  UNL1        0.0346
     17 C          -4.1850   -2.8923    0.6524 C.ar    1  UNL1        0.0048
     18 C          -5.2984   -2.9861    1.5140 C.ar    1  UNL1        0.1669
     19 C          -5.4433   -2.0767    2.5681 C.ar    1  UNL1        0.2036
     20 C          -4.4394   -1.0896    2.7636 C.ar    1  UNL1        0.1669
     21 C          -3.3322   -1.0353    1.8909 C.ar    1  UNL1        0.0048
     22 O          -4.6772   -0.2148    3.7902 O.3     1  UNL1       -0.4913
     23 C          -3.7204    0.7896    4.0692 C.3     1  UNL1        0.0790
     24 O          -6.6266   -2.1974    3.2585 O.3     1  UNL1       -0.4885
     25 C          -6.6502   -1.8859    4.6461 C.3     1  UNL1        0.0791
     26 O          -6.2904   -3.9185    1.3323 O.3     1  UNL1       -0.4913
     27 C          -5.9339   -5.1032    0.6307 C.3     1  UNL1        0.0790
     28 H          -0.8168    0.2606   -3.7393 H       1  UNL1        0.0242
     29 H          -1.8400   -0.5609   -2.5758 H       1  UNL1        0.0242
     30 H          -1.2539   -1.4516   -3.9642 H       1  UNL1        0.0242
     31 H           0.9909   -2.5067    0.6313 H       1  UNL1        0.0619
     32 H           3.1713   -2.7301   -0.3760 H       1  UNL1        0.0650
     33 H           4.9131   -4.0357   -3.0452 H       1  UNL1        0.2420
     34 H           4.3330   -4.5959   -4.5033 H       1  UNL1        0.2420
     35 H           2.1929   -0.4435   -5.9219 H       1  UNL1        0.2884
     36 H           1.1631   -1.5376   -6.2875 H       1  UNL1        0.2884
     37 H          -0.6481   -1.0001    0.9490 H       1  UNL1        0.0508
     38 H          -1.3034    0.0426   -0.3014 H       1  UNL1        0.0508
     39 H          -1.9970   -2.7636   -0.6001 H       1  UNL1        0.1464
     40 H          -4.1037   -3.5492   -0.2046 H       1  UNL1        0.0674
     41 H          -2.5949   -0.2658    2.0412 H       1  UNL1        0.0674
     42 H          -2.7860    0.3512    4.4341 H       1  UNL1        0.0660
     43 H          -3.5466    1.4325    3.1987 H       1  UNL1        0.0660
     44 H          -4.1216    1.4260    4.8669 H       1  UNL1        0.0660
     45 H          -5.8007   -2.3230    5.1789 H       1  UNL1        0.0660
     46 H          -6.7242   -0.8074    4.8130 H       1  UNL1        0.0660
     47 H          -7.5628   -2.3244    5.0673 H       1  UNL1        0.0660
     48 H          -5.7901   -4.8866   -0.4333 H       1  UNL1        0.0660
     49 H          -5.0558   -5.5712    1.0704 H       1  UNL1        0.0660
     50 H          -6.7730   -5.8002    0.7031 H       1  UNL1        0.0660
     51 H           4.0423   -1.1187   -3.1158 H       1  UNL1        0.2520
@<TRIPOS>BOND
     1     1     2    1
     2     1    28    1
     3     1    29    1
     4     1    30    1
     5     2     7    1
     6     2     3    1
     7     3     4    2
     8     3    14    1
     9     4     5    1
    10     4    31    1
    11     5     6    2
    12     5    32    1
    13     6    11    1
    14     6     7    1
    15     7     8    2
    16     8     9    1
    17     8    13    1
    18     9    10    2
    19    10    11    1
    20    10    12    1
    21    11    51    1
    22    12    33    1
    23    12    34    1
    24    13    35    1
    25    13    36    1
    26    14    15    1
    27    14    37    1
    28    14    38    1
    29    15    16    1
    30    15    39    1
    31    16    21   ar
    32    16    17   ar
    33    17    18   ar
    34    17    40    1
    35    18    19   ar
    36    18    26    1
    37    19    20   ar
    38    19    24    1
    39    20    21   ar
    40    20    22    1
    41    21    41    1
    42    22    23    1
    43    23    42    1
    44    23    43    1
    45    23    44    1
    46    24    25    1
    47    25    45    1
    48    25    46    1
    49    25    47    1
    50    26    27    1
    51    27    48    1
    52    27    49    1
    53    27    50    1
