@<TRIPOS>MOLECULE
ZINC01482094
 33 33 0 0 0
SMALL
GASTEIGER

@<TRIPOS>ATOM
      1 C           0.9484   -2.2229    1.4535 C.3     1  UNL1       -0.0216
      2 C           0.4445   -1.3739    0.2905 C.3     1  UNL1       -0.0255
      3 H           0.6810   -0.3265    0.5082 H       1  UNL1        0.0848
      4 C          -1.0733   -1.5207    0.0695 C.3     1  UNL1       -0.0072
      5 C          -1.6446   -0.7482   -1.1374 C.3     1  UNL1       -0.0360
      6 C          -3.1275   -1.0890   -1.3545 C.3     1  UNL1       -0.0500
      7 C          -3.6709   -0.3863   -2.5990 C.3     1  UNL1       -0.0528
      8 C          -3.4696    1.1269   -2.5323 C.3     1  UNL1       -0.0530
      9 C          -2.0242    1.5024   -2.2246 C.3     1  UNL1       -0.0528
     10 C          -1.4896    0.7755   -0.9916 C.3     1  UNL1       -0.0500
     11 N           1.2311   -1.6956   -0.9510 N.4     1  UNL1        0.2268
     12 C           1.1973   -3.0954   -1.4682 C.3     1  UNL1       -0.0446
     13 H           0.4132   -1.9670    2.3735 H       1  UNL1        0.0284
     14 H           2.0148   -2.0465    1.6285 H       1  UNL1        0.0284
     15 H           0.8037   -3.2921    1.2744 H       1  UNL1        0.0284
     16 H          -1.3240   -2.5831   -0.0372 H       1  UNL1        0.0322
     17 H          -1.5888   -1.1868    0.9800 H       1  UNL1        0.0322
     18 H          -1.1126   -1.0660   -2.0412 H       1  UNL1        0.0303
     19 H          -3.2507   -2.1739   -1.4737 H       1  UNL1        0.0268
     20 H          -3.7163   -0.7941   -0.4780 H       1  UNL1        0.0268
     21 H          -4.7363   -0.6102   -2.7156 H       1  UNL1        0.0265
     22 H          -3.1621   -0.7807   -3.4876 H       1  UNL1        0.0265
     23 H          -4.1247    1.5430   -1.7586 H       1  UNL1        0.0265
     24 H          -3.7733    1.5781   -3.4802 H       1  UNL1        0.0265
     25 H          -1.9504    2.5849   -2.0753 H       1  UNL1        0.0265
     26 H          -1.3933    1.2568   -3.0887 H       1  UNL1        0.0265
     27 H          -2.0290    1.1220   -0.1014 H       1  UNL1        0.0268
     28 H          -0.4392    1.0510   -0.8562 H       1  UNL1        0.0268
     29 H           0.9319   -1.0647   -1.7071 H       1  UNL1        0.2013
     30 H           0.1712   -3.4662   -1.4575 H       1  UNL1        0.0777
     31 H           1.5760   -3.0721   -2.4930 H       1  UNL1        0.0777
     32 H           1.8510   -3.7079   -0.8415 H       1  UNL1        0.0777
     33 H           2.2144   -1.4447   -0.7888 H       1  UNL1        0.2013
@<TRIPOS>UNITY_ATOM_ATTR
11 1
charge 1
@<TRIPOS>BOND
     1     1    13    1
     2     1    14    1
     3     1    15    1
     4     2     4    1
     5     2    11    1
     6     4     5    1
     7     4    16    1
     8     4    17    1
     9     5    10    1
    10     5     6    1
    11     5    18    1
    12     6     7    1
    13     6    19    1
    14     6    20    1
    15     7     8    1
    16     7    21    1
    17     7    22    1
    18     8     9    1
    19     8    23    1
    20     8    24    1
    21     9    10    1
    22     9    25    1
    23     9    26    1
    24    10    27    1
    25    10    28    1
    26    11    12    1
    27    11    29    1
    28    11    33    1
    29    12    30    1
    30    12    31    1
    31    12    32    1
    32     2     3    1
    33     2     1    1
