@<TRIPOS>MOLECULE
ZINC01530753
 32 32 0 0 0
SMALL
GASTEIGER

@<TRIPOS>ATOM
      1 C           0.6764   -1.2849    0.2128 C.3     1  UNL1        0.0305
      2 C          -0.7993   -1.2188   -0.1840 C.3     1  UNL1        0.0305
      3 N          -1.4143    0.0323    0.2672 N.am    1  UNL1       -0.2985
      4 C          -0.6996    1.2503   -0.1455 C.3     1  UNL1        0.0305
      5 C           0.8107    1.1799    0.1438 C.3     1  UNL1        0.0305
      6 N           1.4048   -0.1046   -0.2603 N.am    1  UNL1       -0.2985
      7 C           2.6866   -0.1283   -0.7923 C.2     1  UNL1        0.2164
      8 O           3.3113    0.8973   -1.0538 O.2     1  UNL1       -0.2756
      9 C           3.2796   -1.5011   -1.0557 C.3     1  UNL1        0.0337
     10 C           4.6711   -1.4142   -1.6490 C.3     1  UNL1        0.0116
     11 BR          5.3842   -3.2179   -1.8684 Br      1  UNL1       -0.0913
     12 C          -2.7082    0.1377    0.7641 C.2     1  UNL1        0.2164
     13 O          -3.2354    1.2224    1.0032 O.2     1  UNL1       -0.2756
     14 C          -3.4419   -1.1680    1.0132 C.3     1  UNL1        0.0337
     15 C          -4.8330   -0.9402    1.5679 C.3     1  UNL1        0.0116
     16 BR         -5.7319   -2.6627    1.7614 Br      1  UNL1       -0.0913
     17 H           0.7748   -1.3017    1.3056 H       1  UNL1        0.0480
     18 H           1.1034   -2.2129   -0.1690 H       1  UNL1        0.0480
     19 H          -1.3108   -2.0961    0.2158 H       1  UNL1        0.0480
     20 H          -0.9007   -1.2462   -1.2758 H       1  UNL1        0.0480
     21 H          -0.8613    1.3523   -1.2257 H       1  UNL1        0.0480
     22 H          -1.1266    2.1371    0.3339 H       1  UNL1        0.0480
     23 H           0.9822    1.2747    1.2235 H       1  UNL1        0.0480
     24 H           1.3204    2.0183   -0.3428 H       1  UNL1        0.0480
     25 H           3.3200   -2.0470   -0.1062 H       1  UNL1        0.0366
     26 H           2.6213   -2.0390   -1.7483 H       1  UNL1        0.0366
     27 H           4.6695   -0.9558   -2.6418 H       1  UNL1        0.0387
     28 H           5.3693   -0.8789   -1.0000 H       1  UNL1        0.0387
     29 H          -3.5098   -1.7105    0.0631 H       1  UNL1        0.0366
     30 H          -2.8600   -1.7664    1.7243 H       1  UNL1        0.0366
     31 H          -4.8125   -0.4859    2.5623 H       1  UNL1        0.0387
     32 H          -5.4557   -0.3365    0.9027 H       1  UNL1        0.0387
@<TRIPOS>BOND
     1     1     6    1
     2     1     2    1
     3     1    17    1
     4     1    18    1
     5     2     3    1
     6     2    19    1
     7     2    20    1
     8     3     4    1
     9     3    12   am
    10     4     5    1
    11     4    21    1
    12     4    22    1
    13     5     6    1
    14     5    23    1
    15     5    24    1
    16     6     7   am
    17     7     8    2
    18     7     9    1
    19     9    10    1
    20     9    25    1
    21     9    26    1
    22    10    11    1
    23    10    27    1
    24    10    28    1
    25    12    13    2
    26    12    14    1
    27    14    15    1
    28    14    29    1
    29    14    30    1
    30    15    16    1
    31    15    31    1
    32    15    32    1
