@<TRIPOS>MOLECULE
ZINC00601301
 41 43 0 0 0
SMALL
GASTEIGER

@<TRIPOS>ATOM
      1 C          -8.0695   -0.6193    1.7114 C.ar    1  UNL1       -0.0617
      2 C          -7.7465    0.4839    2.5003 C.ar    1  UNL1       -0.0615
      3 C          -6.6152    1.2520    2.2114 C.ar    1  UNL1       -0.0585
      4 C          -5.7981    0.9269    1.1215 C.ar    1  UNL1       -0.0443
      5 C          -6.1480   -0.1777    0.3230 C.ar    1  UNL1       -0.0585
      6 C          -7.2680   -0.9528    0.6246 C.ar    1  UNL1       -0.0615
      7 C          -4.5174    1.7081    0.8509 C.3     1  UNL1        0.0056
      8 C          -3.3032    0.7731    0.9305 C.3     1  UNL1        0.0953
      9 H          -3.5023   -0.0413    0.2213 H       1  UNL1        0.0685
     10 N          -3.1050    0.2757    2.2815 N.pl3   1  UNL1       -0.3256
     11 C          -2.3563   -0.9163    2.2473 C.ar    1  UNL1        0.0556
     12 C          -2.6781   -1.9440    3.1350 C.ar    1  UNL1       -0.0254
     13 C          -2.0279   -3.1910    3.0847 C.ar    1  UNL1        0.0829
     14 C          -0.9846   -3.3565    2.1482 C.ar    1  UNL1        0.1186
     15 C          -0.6111   -2.3114    1.2849 C.ar    1  UNL1       -0.0066
     16 C          -1.2881   -1.0959    1.3626 C.ar    1  UNL1        0.1279
     17 S          -0.8986    0.2110    0.2268 S.O2    1  UNL1        0.0618
     18 O           0.3978    0.7414    0.5701 O.2     1  UNL1       -0.1529
     19 O          -1.2154   -0.2831   -1.0979 O.2     1  UNL1       -0.1529
     20 N          -2.0443    1.4043    0.6047 N.3     1  UNL1       -0.1696
     21 S          -0.1074   -4.8984    2.0204 S.O2    1  UNL1        0.0566
     22 O          -1.0649   -5.9733    2.0001 O.2     1  UNL1       -0.1532
     23 O           0.9311   -4.7653    1.0317 O.2     1  UNL1       -0.1532
     24 N           0.6755   -4.9520    3.4946 N.3     1  UNL1       -0.2035
     25 C          -2.5319   -4.2896    3.9962 C.3     1  UNL1        0.4193
     26 F          -3.4383   -3.8284    4.9098 F       1  UNL1       -0.1658
     27 F          -3.1848   -5.2757    3.3308 F       1  UNL1       -0.1658
     28 F          -1.5636   -4.8861    4.7407 F       1  UNL1       -0.1658
     29 H          -8.9488   -1.2162    1.9402 H       1  UNL1        0.0618
     30 H          -8.3789    0.7439    3.3457 H       1  UNL1        0.0618
     31 H          -6.3763    2.0981    2.8521 H       1  UNL1        0.0620
     32 H          -5.5442   -0.4637   -0.5368 H       1  UNL1        0.0620
     33 H          -7.5137   -1.8162    0.0103 H       1  UNL1        0.0618
     34 H          -4.5876    2.1533   -0.1490 H       1  UNL1        0.0345
     35 H          -4.4164    2.5385    1.5610 H       1  UNL1        0.0345
     36 H          -3.9905    0.1477    2.7733 H       1  UNL1        0.1477
     37 H          -3.4914   -1.7914    3.8469 H       1  UNL1        0.0643
     38 H           0.1760   -2.4448    0.5432 H       1  UNL1        0.0657
     39 H          -1.6864    1.9777    1.3690 H       1  UNL1        0.1501
     40 H           0.2677   -5.6691    4.0996 H       1  UNL1        0.1442
     41 H           1.6834   -5.0344    3.3647 H       1  UNL1        0.1442
@<TRIPOS>BOND
     1     1     6   ar
     2     1     2   ar
     3     1    29    1
     4     2     3   ar
     5     2    30    1
     6     3     4   ar
     7     3    31    1
     8     4     5   ar
     9     4     7    1
    10     5     6   ar
    11     5    32    1
    12     6    33    1
    13     7    34    1
    14     7    35    1
    15     8    20    1
    16     8    10    1
    17    10    11    1
    18    10    36    1
    19    11    16   ar
    20    11    12   ar
    21    12    13   ar
    22    12    37    1
    23    13    14   ar
    24    13    25    1
    25    14    15   ar
    26    14    21    1
    27    15    16   ar
    28    15    38    1
    29    16    17    1
    30    17    18    2
    31    17    19    2
    32    17    20    1
    33    20    39    1
    34    21    22    2
    35    21    23    2
    36    21    24    1
    37    24    40    1
    38    24    41    1
    39    25    26    1
    40    25    27    1
    41    25    28    1
    42     8     9    1
    43     8     7    1
