@<TRIPOS>MOLECULE
ZINC01530863
 41 42 0 0 0
SMALL
GASTEIGER

@<TRIPOS>ATOM
      1 C           0.3310    2.6932    0.2566 C.3     1  UNL1       -0.0467
      2 C           0.6033    1.2741    0.7710 C.3     1  UNL1        0.0181
      3 H           1.4143    0.8500    0.1664 H       1  UNL1        0.0495
      4 C          -0.6794    0.4154    0.6588 C.3     1  UNL1       -0.0300
      5 C          -1.1695    0.2107   -0.7794 C.3     1  UNL1       -0.0110
      6 C          -2.3360   -0.7687   -0.8805 C.3     1  UNL1       -0.0353
      7 N          -3.5280   -0.2623   -0.1598 N.4     1  UNL1        0.2185
      8 N           0.9903    1.3406    2.1796 N.pl3   1  UNL1       -0.3395
      9 C           1.9283    0.4204    2.7303 C.ar    1  UNL1        0.0571
     10 C           2.0400   -0.8993    2.2559 C.ar    1  UNL1        0.0030
     11 C           2.8562   -1.8321    2.8904 C.ar    1  UNL1        0.1225
     12 C           3.5748   -1.4482    4.0185 C.ar    1  UNL1       -0.0107
     13 C           3.4866   -0.1410    4.5132 C.ar    1  UNL1        0.0056
     14 C           2.6623    0.8140    3.8757 C.ar    1  UNL1        0.0919
     15 N           2.5861    2.0888    4.3313 N.ar    1  UNL1       -0.2531
     16 C           3.3136    2.4226    5.4247 C.ar    1  UNL1        0.0283
     17 C           4.1217    1.5428    6.1186 C.ar    1  UNL1       -0.0430
     18 C           4.2059    0.2382    5.6492 C.ar    1  UNL1       -0.0510
     19 O           3.0300   -3.1351    2.5168 O.3     1  UNL1       -0.4950
     20 C           2.2514   -3.6106    1.4275 C.3     1  UNL1        0.0788
     21 H           0.2974    2.7061   -0.8381 H       1  UNL1        0.0247
     22 H           1.1086    3.3966    0.5712 H       1  UNL1        0.0247
     23 H          -0.6292    3.0737    0.6244 H       1  UNL1        0.0247
     24 H          -0.5223   -0.5694    1.1116 H       1  UNL1        0.0285
     25 H          -1.4668    0.8870    1.2595 H       1  UNL1        0.0285
     26 H          -1.4620    1.1694   -1.2214 H       1  UNL1        0.0317
     27 H          -0.3422   -0.1825   -1.3832 H       1  UNL1        0.0317
     28 H          -2.6397   -0.9105   -1.9224 H       1  UNL1        0.0813
     29 H          -2.0875   -1.7409   -0.4449 H       1  UNL1        0.0813
     30 H          -3.9596    0.5340   -0.6475 H       1  UNL1        0.1994
     31 H          -4.2463   -0.9947   -0.0804 H       1  UNL1        0.1994
     32 H           1.2788    2.2708    2.5139 H       1  UNL1        0.1464
     33 H           1.4830   -1.1958    1.3814 H       1  UNL1        0.0673
     34 H           4.2081   -2.1821    4.5119 H       1  UNL1        0.0661
     35 H           3.2282    3.4600    5.7407 H       1  UNL1        0.0830
     36 H           4.6732    1.8626    6.9933 H       1  UNL1        0.0633
     37 H           4.8363   -0.4745    6.1775 H       1  UNL1        0.0625
     38 H           1.1817   -3.5602    1.6582 H       1  UNL1        0.0660
     39 H           2.4810   -3.0639    0.5070 H       1  UNL1        0.0660
     40 H           2.5087   -4.6610    1.2633 H       1  UNL1        0.0660
     41 H          -3.3150    0.0411    0.7999 H       1  UNL1        0.1994
@<TRIPOS>UNITY_ATOM_ATTR
7 1
charge 1
@<TRIPOS>BOND
     1     1    21    1
     2     1    22    1
     3     1    23    1
     4     2     4    1
     5     2     8    1
     6     4     5    1
     7     4    24    1
     8     4    25    1
     9     5     6    1
    10     5    26    1
    11     5    27    1
    12     6     7    1
    13     6    28    1
    14     6    29    1
    15     7    30    1
    16     7    31    1
    17     7    41    1
    18     8     9    1
    19     8    32    1
    20     9    14   ar
    21     9    10   ar
    22    10    11   ar
    23    10    33    1
    24    11    12   ar
    25    11    19    1
    26    12    13   ar
    27    12    34    1
    28    13    18   ar
    29    13    14   ar
    30    14    15   ar
    31    15    16   ar
    32    16    17   ar
    33    16    35    1
    34    17    18   ar
    35    17    36    1
    36    18    37    1
    37    19    20    1
    38    20    38    1
    39    20    39    1
    40    20    40    1
    41     2     3    1
    42     2     1    1
