@<TRIPOS>MOLECULE
ZINC01543916
 48 49 0 0 0
SMALL
GASTEIGER

@<TRIPOS>ATOM
      1 C          -0.5385   -4.6603    5.9314 C.3     1  UNL1       -0.0570
      2 C           0.0898   -3.7052    6.9514 C.3     1  UNL1        0.0068
      3 C           1.3261   -3.0440    6.3353 C.3     1  UNL1       -0.0570
      4 C          -0.8952   -2.6769    7.5441 C.3     1  UNL1        0.0766
      5 H          -0.3922   -1.9907    8.2341 H       1  UNL1        0.0971
      6 C          -1.6997   -1.8575    6.5297 C.2     1  UNL1        0.3562
      7 O          -2.9010   -2.0655    6.3762 O.2     1  UNL1       -0.2444
      8 O          -0.9732   -0.8828    5.9432 O.3     1  UNL1       -0.4580
      9 C          -1.7036    0.0381    5.0991 C.3     1  UNL1        0.1210
     10 C          -1.3112    1.4896    5.4372 C.3     1  UNL1        0.1178
     11 H          -1.8760    2.1675    4.7869 H       1  UNL1        0.0654
     12 C          -1.6750    1.8290    6.8939 C.3     1  UNL1        0.0737
     13 O          -3.0665    1.6656    7.1397 O.3     1  UNL1       -0.3923
     14 O           0.0948    1.7303    5.2811 O.3     1  UNL1       -0.3504
     15 C           0.5929    1.6044    3.9448 C.3     1  UNL1        0.1273
     16 N           0.0904    2.6609    3.0974 N.ar    1  UNL1       -0.2907
     17 C           0.4230    3.9854    3.2319 C.ar    1  UNL1        0.1002
     18 N           0.0065    4.7030    2.2121 N.ar    1  UNL1       -0.2286
     19 C          -0.6537    3.8052    1.4152 C.ar    1  UNL1        0.1720
     20 C          -0.6779    2.5435    1.9719 C.ar    1  UNL1        0.1709
     21 N          -1.3131    1.4382    1.5022 N.ar    1  UNL1       -0.1963
     22 C          -1.9197    1.6382    0.3583 C.ar    1  UNL1        0.1950
     23 N          -1.9042    2.8390   -0.3231 N.ar    1  UNL1       -0.2934
     24 H          -2.3336    2.9234   -1.2302 H       1  UNL1        0.1716
     25 C          -1.2961    3.9957    0.1356 C.ar    1  UNL1        0.2803
     26 O          -1.3289    5.0363   -0.5061 O.2     1  UNL1       -0.2654
     27 N          -2.6404    0.6563   -0.2372 N.pl3   1  UNL1       -0.3289
     28 N          -1.8883   -3.4304    8.4203 N.4     1  UNL1        0.2289
     29 H          -0.7673   -4.1501    4.9903 H       1  UNL1        0.0234
     30 H          -1.4576   -5.1188    6.3057 H       1  UNL1        0.0234
     31 H           0.1568   -5.4773    5.7055 H       1  UNL1        0.0234
     32 H           0.4552   -4.3233    7.7838 H       1  UNL1        0.0356
     33 H           1.0710   -2.4101    5.4811 H       1  UNL1        0.0234
     34 H           1.8519   -2.4325    7.0756 H       1  UNL1        0.0234
     35 H           2.0289   -3.8062    5.9786 H       1  UNL1        0.0234
     36 H          -1.4440   -0.2094    4.0671 H       1  UNL1        0.0724
     37 H          -2.7880   -0.0787    5.1942 H       1  UNL1        0.0724
     38 H          -1.1368    1.1794    7.5923 H       1  UNL1        0.0584
     39 H          -1.3868    2.8556    7.1464 H       1  UNL1        0.0584
     40 H          -3.5172    2.4543    6.7816 H       1  UNL1        0.2095
     41 H           1.6815    1.7228    3.9881 H       1  UNL1        0.0801
     42 H           0.3889    0.6235    3.5111 H       1  UNL1        0.0801
     43 H           0.9792    4.3597    4.0821 H       1  UNL1        0.1030
     44 H          -2.8933   -0.1034    0.3865 H       1  UNL1        0.1451
     45 H          -3.4048    0.9407   -0.8392 H       1  UNL1        0.1451
     46 H          -2.4593   -4.0673    7.8461 H       1  UNL1        0.2003
     47 H          -1.4531   -3.9543    9.1868 H       1  UNL1        0.2003
     48 H          -2.5718   -2.7651    8.8125 H       1  UNL1        0.2003
@<TRIPOS>UNITY_ATOM_ATTR
28 1
charge 1
@<TRIPOS>BOND
     1     1     2    1
     2     1    29    1
     3     1    30    1
     4     1    31    1
     5     2     3    1
     6     2     4    1
     7     2    32    1
     8     3    33    1
     9     3    34    1
    10     3    35    1
    11     4     5    1
    12     4     6    1
    13     4    28    1
    14     6     7    2
    15     6     8    1
    16     8     9    1
    17     9    10    1
    18     9    36    1
    19     9    37    1
    20    10    11    1
    21    10    12    1
    22    10    14    1
    23    12    13    1
    24    12    38    1
    25    12    39    1
    26    13    40    1
    27    14    15    1
    28    15    16    1
    29    15    41    1
    30    15    42    1
    31    16    20   ar
    32    16    17   ar
    33    17    18   ar
    34    17    43    1
    35    18    19   ar
    36    19    25   ar
    37    19    20   ar
    38    20    21   ar
    39    21    22   ar
    40    22    23   ar
    41    22    27    1
    42    23    24    1
    43    23    25   ar
    44    25    26    2
    45    27    44    1
    46    27    45    1
    47    28    46    1
    48    28    47    1
    49    28    48    1
