@<TRIPOS>MOLECULE
ZINC03786192
 41 43 0 0 0
SMALL
GASTEIGER

@<TRIPOS>ATOM
      1 C           9.7704   11.0582    5.1953 C.3     1  UNL1       -0.0388
      2 C           8.6142   10.4883    5.9480 C.2     1  UNL1       -0.0384
      3 C           8.5844   10.1774    7.2639 C.2     1  UNL1       -0.0253
      4 C           7.2459    9.6451    7.5667 C.ar    1  UNL1       -0.0106
      5 C           6.7253    9.2152    8.7785 C.ar    1  UNL1       -0.0184
      6 C           5.4168    8.7442    8.7960 C.ar    1  UNL1        0.1240
      7 C           4.6471    8.6710    7.6295 C.ar    1  UNL1       -0.0258
      8 C           5.1745    9.1007    6.4102 C.ar    1  UNL1       -0.0507
      9 C           6.4649    9.6098    6.3944 C.ar    1  UNL1       -0.0100
     10 C           7.3111   10.1757    5.3354 C.2     1  UNL1       -0.0136
     11 C           7.0002   10.4308    4.0538 C.2     1  UNL1       -0.0466
     12 C           5.7140   10.2590    3.3751 C.ar    1  UNL1       -0.0244
     13 C           5.4659    9.1227    2.6000 C.ar    1  UNL1       -0.0535
     14 C           4.3242    9.0582    1.7923 C.ar    1  UNL1       -0.0454
     15 C           3.4268   10.1323    1.7521 C.ar    1  UNL1        0.0386
     16 C           3.6341   11.2303    2.5932 C.ar    1  UNL1       -0.0454
     17 C           4.7718   11.2923    3.4036 C.ar    1  UNL1       -0.0535
     18 S           2.1294   10.1615    0.4923 S.O     1  UNL1        0.0507
     19 O           1.6806   11.5905    0.3915 O.2     1  UNL1       -0.2524
     20 C           0.8521    9.2634    1.3939 C.3     1  UNL1        0.0163
     21 F           4.8695    8.3528    9.9556 F       1  UNL1       -0.2055
     22 C           9.6504   10.3583    8.2974 C.3     1  UNL1        0.0751
     23 C          10.4989    9.0956    8.4517 C.2     1  UNL1        0.3603
     24 O          11.5221    9.0315    7.7157 O.co2   1  UNL1       -0.2460
     25 O          10.1105    8.2841    9.3447 O.co2   1  UNL1       -0.2460
     26 H          10.0039   10.4478    4.3180 H       1  UNL1        0.0278
     27 H          10.6793   11.1077    5.7989 H       1  UNL1        0.0278
     28 H           9.5431   12.0774    4.8613 H       1  UNL1        0.0278
     29 H           7.3177    9.2300    9.6866 H       1  UNL1        0.0652
     30 H           3.6382    8.2764    7.6838 H       1  UNL1        0.0646
     31 H           4.5785    9.0295    5.5102 H       1  UNL1        0.0625
     32 H           7.7554   10.8644    3.4015 H       1  UNL1        0.0630
     33 H           6.1859    8.3066    2.5852 H       1  UNL1        0.0624
     34 H           4.1821    8.1904    1.1536 H       1  UNL1        0.0629
     35 H           2.9455   12.0725    2.5797 H       1  UNL1        0.0629
     36 H           4.9471   12.1754    4.0148 H       1  UNL1        0.0624
     37 H           0.6145    9.7752    2.3287 H       1  UNL1        0.0368
     38 H          -0.0430    9.2327    0.7665 H       1  UNL1        0.0368
     39 H           1.1819    8.2405    1.5900 H       1  UNL1        0.0368
     40 H          10.3073   11.1980    8.0363 H       1  UNL1        0.0428
     41 H           9.2136   10.6317    9.2649 H       1  UNL1        0.0428
@<TRIPOS>BOND
     1     1     2    1
     2     1    26    1
     3     1    27    1
     4     1    28    1
     5     2    10    1
     6     2     3    2
     7     3     4    1
     8     3    22    1
     9     4     9   ar
    10     4     5   ar
    11     5     6   ar
    12     5    29    1
    13     6     7   ar
    14     6    21    1
    15     7     8   ar
    16     7    30    1
    17     8     9   ar
    18     8    31    1
    19     9    10    1
    20    10    11    2
    21    11    12    1
    22    11    32    1
    23    12    17   ar
    24    12    13   ar
    25    13    14   ar
    26    13    33    1
    27    14    15   ar
    28    14    34    1
    29    15    16   ar
    30    16    17   ar
    31    16    35    1
    32    17    36    1
    33    18    20    1
    34    20    37    1
    35    20    38    1
    36    20    39    1
    37    22    23    1
    38    22    40    1
    39    22    41    1
    40    23    24   ar
    41    23    25   ar
    42    18    19    2
    43    18    15    1
