@<TRIPOS>MOLECULE
ZINC02005550
 35 35 0 0 0
SMALL
GASTEIGER

@<TRIPOS>ATOM
      1 C          -2.0927    2.9038    0.7057 C.3     1  UNL1       -0.0653
      2 C          -1.1153    3.0761   -0.4459 C.3     1  UNL1       -0.0556
      3 C          -0.6833    1.7349   -1.0581 C.3     1  UNL1       -0.0493
      4 C           0.4100    1.9118   -2.1533 C.3     1  UNL1       -0.0212
      5 H           1.1773    2.5646   -1.7148 H       1  UNL1        0.0313
      6 C          -0.1690    2.6873   -3.3526 C.3     1  UNL1       -0.0610
      7 C           1.1294    0.5605   -2.5319 C.3     1  UNL1        0.1293
      8 C           0.2134   -0.4166   -3.2778 C.2     1  UNL1        0.2360
      9 O          -0.6841   -0.0803   -4.0448 O.2     1  UNL1       -0.2742
     10 N           0.5031   -1.7440   -3.1514 N.am    1  UNL1       -0.2390
     11 C           0.9686   -2.2885   -2.0007 C.2     1  UNL1        0.3122
     12 O           0.7878   -3.4706   -1.7291 O.2     1  UNL1       -0.2520
     13 N           1.5810   -1.4433   -1.1339 N.am    1  UNL1       -0.2390
     14 C           1.6740   -0.0860   -1.2506 C.2     1  UNL1        0.2360
     15 O           2.2200    0.5486   -0.3485 O.2     1  UNL1       -0.2742
     16 C           2.3470    0.7811   -3.4945 C.3     1  UNL1       -0.0123
     17 C           3.4711    1.6399   -2.9711 C.2     1  UNL1       -0.0897
     18 C           3.8588    2.8088   -3.4962 C.2     1  UNL1       -0.1026
     19 H          -3.0242    2.4436    0.3629 H       1  UNL1        0.0230
     20 H          -2.3364    3.8811    1.1362 H       1  UNL1        0.0230
     21 H          -1.6674    2.2821    1.4994 H       1  UNL1        0.0230
     22 H          -1.5898    3.7084   -1.2020 H       1  UNL1        0.0263
     23 H          -0.2313    3.6118   -0.0796 H       1  UNL1        0.0263
     24 H          -0.3076    1.1088   -0.2411 H       1  UNL1        0.0268
     25 H          -1.5547    1.2134   -1.4719 H       1  UNL1        0.0268
     26 H           0.5529    2.7958   -4.1637 H       1  UNL1        0.0233
     27 H          -1.0727    2.2177   -3.7519 H       1  UNL1        0.0233
     28 H          -0.4547    3.7023   -3.0594 H       1  UNL1        0.0233
     29 H          -0.0802   -2.3656   -3.6952 H       1  UNL1        0.1591
     30 H           1.8959   -1.8431   -0.2601 H       1  UNL1        0.1591
     31 H           2.7920   -0.1886   -3.7541 H       1  UNL1        0.0322
     32 H           1.9902    1.1836   -4.4507 H       1  UNL1        0.0322
     33 H           4.0244    1.2619   -2.1114 H       1  UNL1        0.0567
     34 H           4.6905    3.3580   -3.0616 H       1  UNL1        0.0532
     35 H           3.3680    3.2496   -4.3582 H       1  UNL1        0.0532
@<TRIPOS>BOND
     1     1     2    1
     2     1    19    1
     3     1    20    1
     4     1    21    1
     5     2     3    1
     6     2    22    1
     7     2    23    1
     8     3    24    1
     9     3    25    1
    10     4     6    1
    11     4     7    1
    12     6    26    1
    13     6    27    1
    14     6    28    1
    15     7    14    1
    16     7     8    1
    17     7    16    1
    18     8     9    2
    19     8    10   am
    20    10    11   am
    21    10    29    1
    22    11    12    2
    23    11    13   am
    24    13    14   am
    25    13    30    1
    26    14    15    2
    27    16    17    1
    28    16    31    1
    29    16    32    1
    30    17    18    2
    31    17    33    1
    32    18    34    1
    33    18    35    1
    34     4     5    1
    35     4     3    1
