@<TRIPOS>MOLECULE
ZINC01530726
 28 29 0 0 0
SMALL
GASTEIGER

@<TRIPOS>ATOM
      1 C           0.1069   -5.5688   -2.5021 C.ar    1  UNL1       -0.0614
      2 C           0.3510   -4.9007   -3.6949 C.ar    1  UNL1       -0.0604
      3 C           0.3485   -3.5086   -3.7180 C.ar    1  UNL1       -0.0431
      4 C           0.0973   -2.7819   -2.5480 C.ar    1  UNL1        0.0448
      5 C          -0.1697   -3.4391   -1.3296 C.ar    1  UNL1       -0.0191
      6 C          -0.1557   -4.8486   -1.3346 C.ar    1  UNL1       -0.0565
      7 C          -0.5403   -2.6675   -0.0493 C.3     1  UNL1        0.0405
      8 H           0.0722   -1.7527   -0.0567 H       1  UNL1        0.0424
      9 C          -0.0723   -3.3652    1.2433 C.ar    1  UNL1       -0.0373
     10 C           1.2865   -3.2697    1.6059 C.ar    1  UNL1       -0.0565
     11 C           1.7772   -3.9104    2.7490 C.ar    1  UNL1       -0.0431
     12 C           0.9167   -4.6609    3.5434 C.ar    1  UNL1        0.0410
     13 C          -0.4266   -4.7728    3.2057 C.ar    1  UNL1       -0.0431
     14 C          -0.9169   -4.1293    2.0656 C.ar    1  UNL1       -0.0565
     15 CL          1.5145   -5.4554    4.9471 Cl      1  UNL1       -0.0835
     16 C          -2.0111   -2.1461   -0.1256 C.3     1  UNL1        0.1186
     17 CL         -3.2572   -3.4184   -0.3163 Cl      1  UNL1       -0.1036
     18 CL         -2.4327   -1.0926    1.2578 Cl      1  UNL1       -0.1036
     19 CL          0.1252   -1.0574   -2.6829 Cl      1  UNL1       -0.0832
     20 H           0.1098   -6.6567   -2.4753 H       1  UNL1        0.0618
     21 H           0.5405   -5.4625   -4.6060 H       1  UNL1        0.0618
     22 H           0.5382   -2.9930   -4.6566 H       1  UNL1        0.0632
     23 H          -0.3593   -5.4155   -0.4281 H       1  UNL1        0.0621
     24 H           1.9828   -2.6998    0.9922 H       1  UNL1        0.0621
     25 H           2.8282   -3.8227    3.0091 H       1  UNL1        0.0632
     26 H          -1.1023   -5.3610    3.8214 H       1  UNL1        0.0632
     27 H          -1.9723   -4.2567    1.8465 H       1  UNL1        0.0621
     28 H          -2.1347   -1.5166   -1.0096 H       1  UNL1        0.0643
@<TRIPOS>BOND
     1     1     6   ar
     2     1     2   ar
     3     1    20    1
     4     2     3   ar
     5     2    21    1
     6     3     4   ar
     7     3    22    1
     8     4     5   ar
     9     4    19    1
    10     5     6   ar
    11     6    23    1
    12     7     9    1
    13     7    16    1
    14     9    14   ar
    15     9    10   ar
    16    10    11   ar
    17    10    24    1
    18    11    12   ar
    19    11    25    1
    20    12    13   ar
    21    12    15    1
    22    13    14   ar
    23    13    26    1
    24    14    27    1
    25    16    17    1
    26    16    18    1
    27    16    28    1
    28     7     8    1
    29     7     5    1
