@<TRIPOS>MOLECULE
ZINC00968274
 54 56 0 0 0
SMALL
GASTEIGER

@<TRIPOS>ATOM
      1 C          -4.5789    2.2046    3.4098 C.ar    1  UNL1       -0.0617
      2 C          -4.8856    0.9013    3.0412 C.ar    1  UNL1       -0.0614
      3 C          -4.2132    0.2949    1.9713 C.ar    1  UNL1       -0.0558
      4 C          -3.2507    0.9908    1.2119 C.ar    1  UNL1       -0.0157
      5 C          -2.9115    2.2898    1.6527 C.ar    1  UNL1       -0.0558
      6 C          -3.5719    2.8878    2.7357 C.ar    1  UNL1       -0.0614
      7 C          -2.7834    0.4742   -0.1695 C.3     1  UNL1        0.0985
      8 C          -1.3357   -0.1111   -0.1485 C.3     1  UNL1        0.0208
      9 C          -0.1650    0.7985    0.1861 C.3     1  UNL1       -0.0289
     10 N           1.1951    0.0655    0.1537 N.4     1  UNL1        0.2353
     11 C           1.4206   -0.9149    1.2864 C.3     1  UNL1       -0.0319
     12 C           2.9110   -1.2498    1.3473 C.3     1  UNL1       -0.0123
     13 C           3.4158   -1.8276    0.0280 C.3     1  UNL1       -0.0434
     14 C           3.0535   -0.9281   -1.1539 C.3     1  UNL1       -0.0123
     15 C           1.5719   -0.5516   -1.1751 C.3     1  UNL1       -0.0319
     16 C          -3.0998    1.5830   -1.2645 C.3     1  UNL1       -0.0078
     17 C          -2.6163    1.3050   -2.6967 C.3     1  UNL1       -0.0473
     18 C          -3.4364    0.2600   -3.4375 C.3     1  UNL1       -0.0527
     19 C          -4.9289    0.5695   -3.4580 C.3     1  UNL1       -0.0530
     20 C          -5.5031    0.9996   -2.1162 C.3     1  UNL1       -0.0527
     21 C          -4.6053    1.9800   -1.3581 C.3     1  UNL1       -0.0473
     22 O          -3.5279   -0.7048   -0.5227 O.3     1  UNL1       -0.3835
     23 H          -5.1321    2.6921    4.2090 H       1  UNL1        0.0618
     24 H          -5.6802    0.3679    3.5619 H       1  UNL1        0.0618
     25 H          -4.5198   -0.7180    1.7176 H       1  UNL1        0.0621
     26 H          -2.1889    2.9019    1.1225 H       1  UNL1        0.0621
     27 H          -3.3421    3.9123    3.0165 H       1  UNL1        0.0618
     28 H          -1.3279   -0.9567    0.5536 H       1  UNL1        0.0348
     29 H          -1.1556   -0.5712   -1.1281 H       1  UNL1        0.0348
     30 H          -0.0754    1.6212   -0.5295 H       1  UNL1        0.0815
     31 H          -0.2452    1.2169    1.1934 H       1  UNL1        0.0815
     32 H           0.8170   -1.8076    1.0890 H       1  UNL1        0.0814
     33 H           1.0941   -0.4401    2.2153 H       1  UNL1        0.0814
     34 H           3.1033   -1.9638    2.1566 H       1  UNL1        0.0317
     35 H           3.4833   -0.3436    1.5850 H       1  UNL1        0.0317
     36 H           4.5045   -1.9609    0.0733 H       1  UNL1        0.0269
     37 H           2.9844   -2.8247   -0.1227 H       1  UNL1        0.0269
     38 H           3.6646   -0.0182   -1.1086 H       1  UNL1        0.0317
     39 H           3.3219   -1.4385   -2.0880 H       1  UNL1        0.0317
     40 H           1.3744    0.1870   -1.9564 H       1  UNL1        0.0814
     41 H           0.9460   -1.4373   -1.3290 H       1  UNL1        0.0814
     42 H          -2.5604    2.4896   -0.9636 H       1  UNL1        0.0332
     43 H          -2.6928    2.2468   -3.2607 H       1  UNL1        0.0269
     44 H          -1.5542    1.0444   -2.7097 H       1  UNL1        0.0269
     45 H          -3.2612   -0.7301   -3.0001 H       1  UNL1        0.0265
     46 H          -3.0785    0.1979   -4.4736 H       1  UNL1        0.0265
     47 H          -5.4757   -0.3102   -3.8180 H       1  UNL1        0.0265
     48 H          -5.1158    1.3677   -4.1861 H       1  UNL1        0.0265
     49 H          -5.7210    0.1173   -1.5114 H       1  UNL1        0.0265
     50 H          -6.4820    1.4674   -2.2775 H       1  UNL1        0.0265
     51 H          -5.0372    2.1662   -0.3705 H       1  UNL1        0.0269
     52 H          -4.6607    2.9483   -1.8769 H       1  UNL1        0.0269
     53 H          -4.4613   -0.5588   -0.3035 H       1  UNL1        0.2106
     54 H           1.8770    0.8225    0.3105 H       1  UNL1        0.2033
@<TRIPOS>UNITY_ATOM_ATTR
10 1
charge 1
@<TRIPOS>BOND
     1     1     6   ar
     2     1     2   ar
     3     1    23    1
     4     2     3   ar
     5     2    24    1
     6     3     4   ar
     7     3    25    1
     8     4     5   ar
     9     5     6   ar
    10     5    26    1
    11     6    27    1
    12     7    16    1
    13     7    22    1
    14     8     9    1
    15     8    28    1
    16     8    29    1
    17     9    10    1
    18     9    30    1
    19     9    31    1
    20    10    15    1
    21    10    11    1
    22    10    54    1
    23    11    12    1
    24    11    32    1
    25    11    33    1
    26    12    13    1
    27    12    34    1
    28    12    35    1
    29    13    14    1
    30    13    36    1
    31    13    37    1
    32    14    15    1
    33    14    38    1
    34    14    39    1
    35    15    40    1
    36    15    41    1
    37    16    21    1
    38    16    17    1
    39    16    42    1
    40    17    18    1
    41    17    43    1
    42    17    44    1
    43    18    19    1
    44    18    45    1
    45    18    46    1
    46    19    20    1
    47    19    47    1
    48    19    48    1
    49    20    21    1
    50    20    49    1
    51    20    50    1
    52    21    51    1
    53    21    52    1
    54    22    53    1
    55     7     8    1
    56     7     4    1
