@<TRIPOS>MOLECULE
ZINC01532526
 20 19 0 0 0
SMALL
GASTEIGER

@<TRIPOS>ATOM
      1 CB          1.0135    0.0381   -0.0386 C.3     1  GLN1        0.0091
      2 CG          0.6262    1.0811   -1.0914 C.3     1  GLN1        0.0294
      3 CD         -0.8715    1.2687   -1.1334 C.2     1  GLN1        0.2107
      4 OE1        -1.5275    1.5738   -0.1437 O.2     1  GLN1       -0.2760
      5 NE2        -1.4510    1.0308   -2.3400 N.am    1  GLN1       -0.3293
      6 CA          0.3906   -1.3411   -0.2800 C.3     1  GLN1        0.0790
      7 HA         -0.7030   -1.3214   -0.2489 H       1  GLN1        0.0970
      8 C           0.9173   -1.9195   -1.6209 C.2     1  GLN1        0.4026
      9 O           1.9126   -2.6785   -1.4170 O.co2   1  GLN1       -0.2400
     10 OXT         0.2614   -1.6204   -2.6490 O.co2   1  GLN1       -0.2400
     11 N           0.8187   -2.2442    0.8613 N.4     1  GLN1        0.2289
     12 HB1         0.7112    0.4009    0.9524 H       1  GLN1        0.0330
     13 HB2         2.1085   -0.0402   -0.0212 H       1  GLN1        0.0330
     14 HG1         1.0739    2.0484   -0.8366 H       1  GLN1        0.0360
     15 HG2         1.0155    0.8102   -2.0781 H       1  GLN1        0.0360
     16 HE21       -0.9722    0.4457   -3.0252 H       1  GLN1        0.1449
     17 HE22       -2.4622    1.0208   -2.3734 H       1  GLN1        0.1449
     18 H1          1.8044   -2.4796    0.6235 H       1  GLN1        0.2002
     19 H2          0.7198   -1.8587    1.7975 H       1  GLN1        0.2002
     20 H3          0.3378   -3.1436    0.7544 H       1  GLN1        0.2002
@<TRIPOS>UNITY_ATOM_ATTR
11 1
charge 1
@<TRIPOS>BOND
     1     1     2    1
     2     1     6    1
     3     1    12    1
     4     1    13    1
     5     2     3    1
     6     2    14    1
     7     2    15    1
     8     3     4    2
     9     3     5   am
    10     5    16    1
    11     5    17    1
    12     6     7    1
    13     6     8    1
    14     6    11    1
    15     8     9   ar
    16     8    10   ar
    17    11    18    1
    18    11    19    1
    19    11    20    1
