@<TRIPOS>MOLECULE
ZINC03842753
 31 32 0 0 0
SMALL
GASTEIGER

@<TRIPOS>ATOM
      1 C          -0.6256    1.0003   -0.5011 C.ar    1  UNL1        0.0288
      2 C           0.7110    1.0325   -0.5047 C.ar    1  UNL1        0.1352
      3 C           1.4249   -0.1395    0.0194 C.ar    1  UNL1        0.2657
      4 O           2.6421   -0.2494   -0.0117 O.2     1  UNL1       -0.2671
      5 N           0.6394   -1.1279    0.5446 N.ar    1  UNL1       -0.2744
      6 H           1.1144   -1.9443    0.8950 H       1  UNL1        0.1734
      7 C          -0.7310   -1.1973    0.4968 C.ar    1  UNL1        0.3313
      8 O          -1.3181   -2.1893    0.9136 O.2     1  UNL1       -0.2464
      9 N          -1.3571   -0.0888   -0.0608 N.ar    1  UNL1       -0.2734
     10 C1*        -2.8134   -0.1202   -0.1988 C.3     1  UNL1        0.1422
     11 H1*        -3.1437   -1.1505   -0.3777 H       1  UNL1        0.0840
     12 C2*        -3.5552    0.4709    0.9932 C.3     1  UNL1        0.0214
     13 C3*        -4.8314    0.9784    0.3609 C.3     1  UNL1        0.0876
     14 H3*        -5.2974    1.7853    0.9349 H       1  UNL1        0.0621
     15 C4*        -4.3953    1.3937   -1.0426 C.3     1  UNL1        0.1100
     16 H4*        -5.1350    1.1310   -1.8056 H       1  UNL1        0.0646
     17 O4*        -3.1959    0.6513   -1.3568 O.3     1  UNL1       -0.3483
     18 C5*        -4.0601    2.8851   -1.1274 C.3     1  UNL1        0.0729
     19 O5*        -3.6256    3.2260   -2.4421 O.3     1  UNL1       -0.3924
     20 O3*        -5.7620   -0.1008    0.2997 O.3     1  UNL1       -0.3890
     21 C           1.4791    2.1751   -1.0593 C.3     1  UNL1        0.4237
     22 F           2.8214    2.0289   -1.1069 F       1  UNL1       -0.1656
     23 F           1.0773    2.4485   -2.3310 F       1  UNL1       -0.1656
     24 F           1.2371    3.3083   -0.3435 F       1  UNL1       -0.1656
     25 H          -1.1909    1.8436   -0.8896 H       1  UNL1        0.0819
     26 H2*1       -2.9944    1.3075    1.4250 H       1  UNL1        0.0335
     27 H2*2       -3.7162   -0.2757    1.7771 H       1  UNL1        0.0335
     28 H5*1       -4.9399    3.4925   -0.8969 H       1  UNL1        0.0584
     29 H5*2       -3.2547    3.1576   -0.4394 H       1  UNL1        0.0584
     30 H5*        -2.9381    2.5786   -2.6887 H       1  UNL1        0.2095
     31 H3*        -6.5890    0.2353   -0.0899 H       1  UNL1        0.2099
@<TRIPOS>BOND
     1     1     9   ar
     2     1     2   ar
     3     1    25    1
     4     2     3   ar
     5     2    21    1
     6     3     4    2
     7     3     5   ar
     8     5     6    1
     9     5     7   ar
    10     7     8    2
    11     7     9   ar
    12     9    10    1
    13    10    11    1
    14    10    17    1
    15    10    12    1
    16    12    13    1
    17    12    26    1
    18    12    27    1
    19    13    14    1
    20    13    15    1
    21    13    20    1
    22    15    16    1
    23    15    17    1
    24    15    18    1
    25    18    19    1
    26    18    28    1
    27    18    29    1
    28    19    30    1
    29    20    31    1
    30    21    22    1
    31    21    23    1
    32    21    24    1
