@<TRIPOS>MOLECULE
ZINC00001971
 40 43 0 0 0
SMALL
GASTEIGER

@<TRIPOS>ATOM
      1 C           0.8230   -0.3108    0.1845 C.ar    1  UNL1       -0.0617
      2 C           0.3242   -1.5615    0.5536 C.ar    1  UNL1       -0.0611
      3 C          -1.0277   -1.8608    0.3524 C.ar    1  UNL1       -0.0526
      4 C          -1.9075   -0.9136   -0.1766 C.ar    1  UNL1        0.0006
      5 C          -1.3928    0.3283   -0.5745 C.ar    1  UNL1       -0.0526
      6 C          -0.0310    0.6276   -0.3934 C.ar    1  UNL1       -0.0611
      7 C          -3.4228   -1.0460   -0.1485 C.2     1  UNL1        0.0750
      8 N          -4.1364   -0.2689   -0.8938 N.2     1  UNL1       -0.2734
      9 C          -5.5650   -0.1685   -0.5511 C.3     1  UNL1        0.1170
     10 C          -5.8345    0.5175    0.8031 C.2     1  UNL1        0.2412
     11 O          -6.8143    1.2876    0.8811 O.2     1  UNL1       -0.2732
     12 N          -5.0739    0.2068    1.9527 N.am    1  UNL1       -0.2690
     13 C          -4.1778   -0.9044    2.0576 C.ar    1  UNL1        0.0456
     14 C          -4.0574   -1.7798    0.9916 C.ar    1  UNL1        0.0233
     15 C          -3.8416   -3.1334    1.2060 C.ar    1  UNL1       -0.0324
     16 C          -3.2842   -3.5015    2.4234 C.ar    1  UNL1        0.0417
     17 C          -2.9306   -2.5189    3.3506 C.ar    1  UNL1       -0.0416
     18 C          -3.4307   -1.2230    3.1938 C.ar    1  UNL1       -0.0383
     19 CL         -2.9256   -5.1514    2.7341 Cl      1  UNL1       -0.0835
     20 C          -5.5007    0.8478    3.1992 C.3     1  UNL1        0.0227
     21 C          -4.8908    2.2112    3.3015 C.3     1  UNL1       -0.0248
     22 C          -5.7568    3.4224    3.0863 C.3     1  UNL1       -0.0485
     23 C          -5.2206    3.1186    4.4579 C.3     1  UNL1       -0.0485
     24 H           1.8681   -0.0658    0.3568 H       1  UNL1        0.0618
     25 H           0.9835   -2.2872    1.0177 H       1  UNL1        0.0618
     26 H          -1.3585   -2.8467    0.6528 H       1  UNL1        0.0624
     27 H          -2.0424    1.0946   -0.9827 H       1  UNL1        0.0624
     28 H           0.3518    1.6045   -0.6822 H       1  UNL1        0.0618
     29 H          -6.0169    0.4714   -1.3200 H       1  UNL1        0.0605
     30 H          -6.0725   -1.1357   -0.6127 H       1  UNL1        0.0605
     31 H          -4.0594   -3.8592    0.4265 H       1  UNL1        0.0639
     32 H          -2.3086   -2.7648    4.2048 H       1  UNL1        0.0633
     33 H          -3.2038   -0.4755    3.9519 H       1  UNL1        0.0637
     34 H          -6.5961    0.9013    3.2242 H       1  UNL1        0.0471
     35 H          -5.2376    0.2523    4.0796 H       1  UNL1        0.0471
     36 H          -3.8690    2.2306    2.9389 H       1  UNL1        0.0316
     37 H          -5.3286    4.2455    2.5272 H       1  UNL1        0.0269
     38 H          -6.8183    3.2772    2.9143 H       1  UNL1        0.0269
     39 H          -5.9098    2.7736    5.2113 H       1  UNL1        0.0269
     40 H          -4.4273    3.7503    4.8329 H       1  UNL1        0.0269
@<TRIPOS>BOND
     1     1     6   ar
     2     1     2   ar
     3     1    24    1
     4     2     3   ar
     5     2    25    1
     6     3     4   ar
     7     3    26    1
     8     4     5   ar
     9     4     7    1
    10     5     6   ar
    11     5    27    1
    12     6    28    1
    13     7    14    1
    14     7     8    2
    15     8     9    1
    16     9    10    1
    17     9    29    1
    18     9    30    1
    19    10    11    2
    20    10    12   am
    21    12    13    1
    22    12    20    1
    23    13    18   ar
    24    13    14   ar
    25    14    15   ar
    26    15    16   ar
    27    15    31    1
    28    16    17   ar
    29    16    19    1
    30    17    18   ar
    31    17    32    1
    32    18    33    1
    33    20    21    1
    34    20    34    1
    35    20    35    1
    36    21    23    1
    37    21    22    1
    38    21    36    1
    39    22    23    1
    40    22    37    1
    41    22    38    1
    42    23    39    1
    43    23    40    1
