@<TRIPOS>MOLECULE
ZINC00001300
 32 33 0 0 0
SMALL
GASTEIGER

@<TRIPOS>ATOM
      1 C           0.3129    2.1863   -1.4048 C.3     1  UNL1        0.0084
      2 N           0.5551    0.7521   -1.3715 N.am    1  UNL1       -0.2723
      3 C          -0.3090   -0.0568   -2.1362 C.ar    1  UNL1        0.0362
      4 C          -0.1236   -0.1872   -3.5150 C.ar    1  UNL1       -0.0368
      5 C          -1.0121   -0.9663   -4.2599 C.ar    1  UNL1       -0.0175
      6 C          -2.0757   -1.6105   -3.6226 C.ar    1  UNL1        0.1322
      7 C          -2.2851   -1.4530   -2.2541 C.ar    1  UNL1       -0.0175
      8 C          -1.3934   -0.6766   -1.5085 C.ar    1  UNL1       -0.0368
      9 O          -2.9382   -2.3428   -4.4672 O.3     1  UNL1       -0.4202
     10 C          -3.6112   -3.4978   -4.0536 C.2     1  UNL1        0.3801
     11 O          -3.5466   -3.9940   -2.9348 O.2     1  UNL1       -0.2410
     12 C          -4.3815   -4.0329   -5.1530 C.ar    1  UNL1        0.2116
     13 C          -5.2064   -5.1423   -5.2244 C.ar    1  UNL1       -0.0093
     14 C          -5.6958   -5.2081   -6.5520 C.ar    1  UNL1       -0.0231
     15 C          -5.1432   -4.1388   -7.2142 C.ar    1  UNL1        0.0929
     16 O          -4.3499   -3.4198   -6.3800 O.2     1  UNL1       -0.4563
     17 C           1.7513    0.2986   -0.8023 C.2     1  UNL1        0.2523
     18 O           2.5420    1.1038   -0.2942 O.2     1  UNL1       -0.2723
     19 C           2.0422   -1.2076   -0.8446 C.3     1  UNL1        0.1835
     20 CL          3.1531   -1.5297   -2.1952 Cl      1  UNL1       -0.0945
     21 CL          2.7763   -1.7202    0.6970 Cl      1  UNL1       -0.0945
     22 H          -0.6725    2.4171   -1.8213 H       1  UNL1        0.0433
     23 H           1.0920    2.6704   -2.0023 H       1  UNL1        0.0433
     24 H           0.3650    2.5748   -0.3824 H       1  UNL1        0.0433
     25 H           0.6997    0.3151   -4.0172 H       1  UNL1        0.0637
     26 H          -0.8797   -1.0654   -5.3347 H       1  UNL1        0.0655
     27 H          -3.1324   -1.9105   -1.7529 H       1  UNL1        0.0655
     28 H          -1.5598   -0.5485   -0.4414 H       1  UNL1        0.0637
     29 H          -5.4204   -5.8213   -4.4093 H       1  UNL1        0.0657
     30 H          -6.3650   -5.9445   -6.9754 H       1  UNL1        0.0649
     31 H          -5.2098   -3.7699   -8.2290 H       1  UNL1        0.1029
     32 H           1.1473   -1.8147   -0.9753 H       1  UNL1        0.0732
@<TRIPOS>BOND
     1     1     2    1
     2     1    22    1
     3     1    23    1
     4     1    24    1
     5     2     3    1
     6     2    17   am
     7     3     8   ar
     8     3     4   ar
     9     4     5   ar
    10     4    25    1
    11     5     6   ar
    12     5    26    1
    13     6     7   ar
    14     6     9    1
    15     7     8   ar
    16     7    27    1
    17     8    28    1
    18     9    10    1
    19    10    11    2
    20    10    12    1
    21    12    16   ar
    22    12    13   ar
    23    13    14   ar
    24    13    29    1
    25    14    15   ar
    26    14    30    1
    27    15    16   ar
    28    15    31    1
    29    17    18    2
    30    17    19    1
    31    19    20    1
    32    19    21    1
    33    19    32    1
