@<TRIPOS>MOLECULE
ZINC00490791
 57 60 0 0 0
SMALL
GASTEIGER

@<TRIPOS>ATOM
      1 C           2.8431    1.9274   -1.1170 C.3     1  UNL1       -0.0552
      2 C           2.1236    0.6572   -0.7005 C.3     1  UNL1        0.0421
      3 C           2.7118   -0.5097   -1.4375 C.2     1  UNL1        0.3071
      4 O           3.6959   -1.1426   -1.0425 O.2     1  UNL1       -0.2509
      5 O           2.0596   -0.7146   -2.6151 O.3     1  UNL1       -0.4608
      6 C           2.5798   -1.7130   -3.5088 C.3     1  UNL1        0.1087
      7 H           3.6183   -1.4486   -3.7487 H       1  UNL1        0.0739
      8 C           2.5633   -3.1525   -2.9456 C.3     1  UNL1       -0.0149
      9 C           2.0081   -4.0555   -4.0553 C.3     1  UNL1       -0.0460
     10 C           2.1154   -3.2061   -5.3177 C.3     1  UNL1       -0.0290
     11 H           3.1721   -3.2353   -5.6288 H       1  UNL1        0.0310
     12 C           1.7635   -1.7863   -4.8306 C.3     1  UNL1        0.0081
     13 C           2.2509   -0.8188   -5.9193 C.3     1  UNL1       -0.0437
     14 C           1.5319   -1.0785   -7.2541 C.3     1  UNL1       -0.0485
     15 C           1.4940   -2.5750   -7.6877 C.3     1  UNL1       -0.0288
     16 H           2.5149   -2.7767   -8.0521 H       1  UNL1        0.0312
     17 C           1.2596   -3.5916   -6.5232 C.3     1  UNL1       -0.0337
     18 H           0.2100   -3.5717   -6.2144 H       1  UNL1        0.0307
     19 C           1.5271   -5.0208   -7.0081 C.3     1  UNL1       -0.0459
     20 C           0.6522   -5.3693   -8.2104 C.3     1  UNL1       -0.0305
     21 C           0.6966   -4.3272   -9.3072 C.2     1  UNL1       -0.0601
     22 C           0.8744   -4.7168  -10.5855 C.2     1  UNL1       -0.0194
     23 C           0.7849   -3.7561  -11.7071 C.2     1  UNL1        0.1561
     24 O           1.0085   -4.1418  -12.8523 O.2     1  UNL1       -0.2927
     25 C           0.3169   -2.3584  -11.4019 C.3     1  UNL1        0.0107
     26 C           0.8736   -1.9045  -10.0618 C.3     1  UNL1       -0.0367
     27 C           0.5173   -2.8626   -8.8893 C.3     1  UNL1       -0.0072
     28 C          -0.9681   -2.6392   -8.5099 C.3     1  UNL1       -0.0556
     29 C           0.2404   -1.5638   -4.6125 C.3     1  UNL1       -0.0559
     30 H           3.9280    1.8061   -1.0270 H       1  UNL1        0.0235
     31 H           2.5385    2.7790   -0.5005 H       1  UNL1        0.0235
     32 H           2.6255    2.1627   -2.1643 H       1  UNL1        0.0235
     33 H           2.2345    0.4853    0.3771 H       1  UNL1        0.0375
     34 H           1.0463    0.7289   -0.8954 H       1  UNL1        0.0375
     35 H           2.0030   -3.2723   -2.0121 H       1  UNL1        0.0301
     36 H           3.5992   -3.4450   -2.7299 H       1  UNL1        0.0301
     37 H           0.9693   -4.3262   -3.8404 H       1  UNL1        0.0269
     38 H           2.5819   -4.9853   -4.1352 H       1  UNL1        0.0269
     39 H           3.3315   -0.9388   -6.0760 H       1  UNL1        0.0272
     40 H           2.0997    0.2222   -5.6100 H       1  UNL1        0.0272
     41 H           2.0381   -0.4865   -8.0271 H       1  UNL1        0.0268
     42 H           0.5217   -0.6637   -7.1966 H       1  UNL1        0.0268
     43 H           1.3105   -5.7354   -6.2050 H       1  UNL1        0.0271
     44 H           2.5860   -5.1432   -7.2668 H       1  UNL1        0.0271
     45 H          -0.3878   -5.4758   -7.8798 H       1  UNL1        0.0310
     46 H           0.9536   -6.3550   -8.5866 H       1  UNL1        0.0310
     47 H           1.0263   -5.7503  -10.8689 H       1  UNL1        0.0652
     48 H           0.6817   -1.6872  -12.1895 H       1  UNL1        0.0345
     49 H          -0.7760   -2.3425  -11.4200 H       1  UNL1        0.0345
     50 H           1.9658   -1.8301  -10.1548 H       1  UNL1        0.0278
     51 H           0.5088   -0.8908   -9.8536 H       1  UNL1        0.0278
     52 H          -1.2962   -3.2732   -7.6813 H       1  UNL1        0.0238
     53 H          -1.1628   -1.6016   -8.2208 H       1  UNL1        0.0238
     54 H          -1.6349   -2.8663   -9.3496 H       1  UNL1        0.0238
     55 H          -0.1963   -2.3070   -3.9407 H       1  UNL1        0.0236
     56 H           0.0391   -0.5641   -4.2178 H       1  UNL1        0.0236
     57 H          -0.3404   -1.6293   -5.5394 H       1  UNL1        0.0236
@<TRIPOS>BOND
     1     1     2    1
     2     1    30    1
     3     1    31    1
     4     1    32    1
     5     2     3    1
     6     2    33    1
     7     2    34    1
     8     3     4    2
     9     3     5    1
    10     5     6    1
    11     6     7    1
    12     6    12    1
    13     6     8    1
    14     8     9    1
    15     8    35    1
    16     8    36    1
    17     9    10    1
    18     9    37    1
    19     9    38    1
    20    10    11    1
    21    10    17    1
    22    10    12    1
    23    12    13    1
    24    12    29    1
    25    13    14    1
    26    13    39    1
    27    13    40    1
    28    14    15    1
    29    14    41    1
    30    14    42    1
    31    15    16    1
    32    15    27    1
    33    15    17    1
    34    17    18    1
    35    17    19    1
    36    19    20    1
    37    19    43    1
    38    19    44    1
    39    20    21    1
    40    20    45    1
    41    20    46    1
    42    21    27    1
    43    21    22    2
    44    22    23    1
    45    22    47    1
    46    23    24    2
    47    23    25    1
    48    25    26    1
    49    25    48    1
    50    25    49    1
    51    26    27    1
    52    26    50    1
    53    26    51    1
    54    27    28    1
    55    28    52    1
    56    28    53    1
    57    28    54    1
    58    29    55    1
    59    29    56    1
    60    29    57    1
