@<TRIPOS>MOLECULE
ZINC00002105
 28 29 0 0 0
SMALL
GASTEIGER

@<TRIPOS>ATOM
      1 C          -0.7267   -1.8683   -3.9724 C.ar    1  UNL1       -0.0570
      2 C          -0.1813   -0.5888   -3.9551 C.ar    1  UNL1       -0.0435
      3 C          -0.1338    0.0867   -2.7445 C.ar    1  UNL1        0.0297
      4 N          -0.5717   -0.4296   -1.5737 N.ar    1  UNL1       -0.2390
      5 C          -1.0911   -1.6672   -1.6285 C.ar    1  UNL1        0.1377
      6 C          -1.2017   -2.4213   -2.7850 C.ar    1  UNL1       -0.0204
      7 N          -1.4123   -2.1694   -0.3541 N.pl3   1  UNL1       -0.1995
      8 S          -3.0342   -2.3958    0.0205 S.O2    1  UNL1        0.0735
      9 O          -3.6894   -3.1001   -1.0603 O.2     1  UNL1       -0.1499
     10 O          -3.0681   -2.9171    1.3726 O.2     1  UNL1       -0.1499
     11 C          -3.6996   -0.7441    0.0929 C.ar    1  UNL1        0.1087
     12 C          -4.3821   -0.2205   -1.0058 C.ar    1  UNL1       -0.0333
     13 C          -4.9403    1.0595   -0.9249 C.ar    1  UNL1       -0.0392
     14 C          -4.7905    1.8366    0.2281 C.ar    1  UNL1        0.0247
     15 C          -4.2021    1.2559    1.3556 C.ar    1  UNL1       -0.0392
     16 C          -3.6438   -0.0255    1.2912 C.ar    1  UNL1       -0.0333
     17 N          -5.4245    3.0812    0.3259 N.pl3   1  UNL1       -0.3580
     18 H          -0.7640   -2.4378   -4.8972 H       1  UNL1        0.0619
     19 H           0.2077   -0.1335   -4.8600 H       1  UNL1        0.0633
     20 H           0.2844    1.0879   -2.6826 H       1  UNL1        0.0830
     21 H          -1.6012   -3.4292   -2.7645 H       1  UNL1        0.0652
     22 H          -0.9424   -1.6204    0.3609 H       1  UNL1        0.1752
     23 H          -4.5031   -0.8021   -1.9162 H       1  UNL1        0.0638
     24 H          -5.4967    1.4468   -1.7748 H       1  UNL1        0.0636
     25 H          -4.1795    1.7972    2.2986 H       1  UNL1        0.0636
     26 H          -3.1960   -0.4572    2.1836 H       1  UNL1        0.0638
     27 H          -5.0042    3.6970    1.0159 H       1  UNL1        0.1423
     28 H          -5.5484    3.5460   -0.5685 H       1  UNL1        0.1423
@<TRIPOS>BOND
     1     1     6   ar
     2     1     2   ar
     3     1    18    1
     4     2     3   ar
     5     2    19    1
     6     3     4   ar
     7     3    20    1
     8     4     5   ar
     9     5     6   ar
    10     5     7    1
    11     6    21    1
    12     7     8    1
    13     7    22    1
    14     8     9    2
    15     8    10    2
    16     8    11    1
    17    11    16   ar
    18    11    12   ar
    19    12    13   ar
    20    12    23    1
    21    13    14   ar
    22    13    24    1
    23    14    15   ar
    24    14    17    1
    25    15    16   ar
    26    15    25    1
    27    16    26    1
    28    17    27    1
    29    17    28    1
