@<TRIPOS>MOLECULE
ZINC01530769
 55 56 0 0 0
SMALL
GASTEIGER

@<TRIPOS>ATOM
      1 C           3.9030   -4.9250    6.0364 C.3     1  UNL1       -0.0552
      2 C           4.6455   -5.5641    4.8722 C.3     1  UNL1        0.0421
      3 C           4.9362   -4.6664    3.6832 C.2     1  UNL1        0.3077
      4 O           5.4150   -5.0878    2.6407 O.2     1  UNL1       -0.2508
      5 O           4.6372   -3.3688    3.9257 O.3     1  UNL1       -0.4525
      6 C           4.8702   -2.3027    2.9327 C.3     1  UNL1        0.1496
      7 C           4.0545   -2.6004    1.6134 C.3     1  UNL1        0.0172
      8 C           2.5601   -2.7997    1.7305 C.ar    1  UNL1       -0.0432
      9 C           2.0212   -4.0750    1.9384 C.ar    1  UNL1       -0.0584
     10 C           0.6406   -4.2515    2.0356 C.ar    1  UNL1       -0.0615
     11 C          -0.2150   -3.1584    1.9137 C.ar    1  UNL1       -0.0617
     12 C           0.3062   -1.8929    1.6593 C.ar    1  UNL1       -0.0615
     13 C           1.6853   -1.7160    1.5572 C.ar    1  UNL1       -0.0584
     14 C           6.3812   -2.1352    2.6314 C.ar    1  UNL1       -0.0035
     15 C           7.3634   -2.4223    3.5966 C.ar    1  UNL1       -0.0548
     16 C           8.7264   -2.2668    3.3187 C.ar    1  UNL1       -0.0614
     17 C           9.1434   -1.8290    2.0649 C.ar    1  UNL1       -0.0617
     18 C           8.1998   -1.5377    1.0925 C.ar    1  UNL1       -0.0614
     19 C           6.8387   -1.6795    1.3759 C.ar    1  UNL1       -0.0548
     20 C           4.3248   -1.0109    3.6858 C.3     1  UNL1        0.0407
     21 H           3.2446   -1.1570    3.7749 H       1  UNL1        0.0392
     22 C           4.5523    0.3112    2.9417 C.3     1  UNL1       -0.0535
     23 C           4.8636   -0.9228    5.1361 C.3     1  UNL1       -0.0257
     24 N           4.1680    0.1241    5.9975 N.4     1  UNL1        0.2312
     25 C           2.6859   -0.0949    6.1587 C.3     1  UNL1       -0.0433
     26 C           4.8321    0.2077    7.3533 C.3     1  UNL1       -0.0433
     27 H           4.4972   -4.1316    6.5007 H       1  UNL1        0.0235
     28 H           3.6944   -5.6752    6.8074 H       1  UNL1        0.0235
     29 H           2.9486   -4.4947    5.7169 H       1  UNL1        0.0235
     30 H           5.6036   -5.9499    5.2363 H       1  UNL1        0.0375
     31 H           4.0474   -6.4050    4.5044 H       1  UNL1        0.0375
     32 H           4.1888   -1.7878    0.8905 H       1  UNL1        0.0355
     33 H           4.4688   -3.4812    1.1057 H       1  UNL1        0.0355
     34 H           2.6667   -4.9501    1.9832 H       1  UNL1        0.0620
     35 H           0.2297   -5.2479    2.1804 H       1  UNL1        0.0618
     36 H          -1.2906   -3.3004    1.9827 H       1  UNL1        0.0618
     37 H          -0.3643   -1.0496    1.5133 H       1  UNL1        0.0618
     38 H           2.0675   -0.7291    1.3076 H       1  UNL1        0.0620
     39 H           7.0929   -2.8020    4.5790 H       1  UNL1        0.0622
     40 H           9.4716   -2.5079    4.0724 H       1  UNL1        0.0618
     41 H          10.2047   -1.7331    1.8389 H       1  UNL1        0.0618
     42 H           8.5178   -1.2155    0.1021 H       1  UNL1        0.0618
     43 H           6.1590   -1.4364    0.5635 H       1  UNL1        0.0622
     44 H           3.9545    1.1133    3.3878 H       1  UNL1        0.0236
     45 H           5.6006    0.6238    2.9893 H       1  UNL1        0.0236
     46 H           4.2616    0.2502    1.8905 H       1  UNL1        0.0236
     47 H           4.7511   -1.8629    5.6821 H       1  UNL1        0.0818
     48 H           5.9211   -0.6413    5.1336 H       1  UNL1        0.0818
     49 H           2.5219   -1.1000    6.5563 H       1  UNL1        0.0777
     50 H           2.3044    0.6641    6.8471 H       1  UNL1        0.0777
     51 H           2.2048    0.0354    5.1880 H       1  UNL1        0.0777
     52 H           5.8937    0.4181    7.2019 H       1  UNL1        0.0777
     53 H           4.3659    1.0232    7.9115 H       1  UNL1        0.0777
     54 H           4.6927   -0.7480    7.8683 H       1  UNL1        0.0777
     55 H           4.3008    1.0406    5.5531 H       1  UNL1        0.2028
@<TRIPOS>UNITY_ATOM_ATTR
24 1
charge 1
@<TRIPOS>BOND
     1     1     2    1
     2     1    27    1
     3     1    28    1
     4     1    29    1
     5     2     3    1
     6     2    30    1
     7     2    31    1
     8     3     4    2
     9     3     5    1
    10     6    14    1
    11     7     8    1
    12     7    32    1
    13     7    33    1
    14     8    13   ar
    15     8     9   ar
    16     9    10   ar
    17     9    34    1
    18    10    11   ar
    19    10    35    1
    20    11    12   ar
    21    11    36    1
    22    12    13   ar
    23    12    37    1
    24    13    38    1
    25    14    19   ar
    26    14    15   ar
    27    15    16   ar
    28    15    39    1
    29    16    17   ar
    30    16    40    1
    31    17    18   ar
    32    17    41    1
    33    18    19   ar
    34    18    42    1
    35    19    43    1
    36    20    22    1
    37    20    23    1
    38    22    44    1
    39    22    45    1
    40    22    46    1
    41    23    24    1
    42    23    47    1
    43    23    48    1
    44    24    25    1
    45    24    26    1
    46    24    55    1
    47    25    49    1
    48    25    50    1
    49    25    51    1
    50    26    52    1
    51    26    53    1
    52    26    54    1
    53     6     7    1
    54     6     5    1
    55    20    21    1
    56    20     6    1
