@<TRIPOS>MOLECULE
ZINC01530806
 21 21 0 0 0
SMALL
GASTEIGER

@<TRIPOS>ATOM
      1 C          -0.6598   -2.4990   -3.3322 C.3     1  UNL1       -0.0643
      2 C          -0.1288   -1.0708   -3.3319 C.3     1  UNL1       -0.0417
      3 C           1.0701   -0.8210   -2.3837 C.3     1  UNL1        0.0525
      4 C           1.5985    0.6117   -2.5917 C.3     1  UNL1        0.0380
      5 C           2.6800    0.4338   -3.6225 C.2     1  UNL1        0.2202
      6 O           3.2484    1.3332   -4.2215 O.2     1  UNL1       -0.2754
      7 N           2.9849   -0.8843   -3.7083 N.am    1  UNL1       -0.2559
      8 C           2.2657   -1.6394   -2.8388 C.2     1  UNL1        0.2256
      9 O           2.5317   -2.7850   -2.5208 O.2     1  UNL1       -0.2748
     10 C           0.7132   -1.0911   -0.9217 C.3     1  UNL1       -0.0508
     11 H          -1.4974   -2.5819   -4.0328 H       1  UNL1        0.0230
     12 H          -1.0216   -2.7954   -2.3443 H       1  UNL1        0.0230
     13 H           0.1065   -3.2105   -3.6524 H       1  UNL1        0.0230
     14 H           0.1470   -0.8155   -4.3639 H       1  UNL1        0.0273
     15 H          -0.9513   -0.3970   -3.0587 H       1  UNL1        0.0273
     16 H           0.8317    1.3041   -2.9506 H       1  UNL1        0.0368
     17 H           2.0662    1.0190   -1.6893 H       1  UNL1        0.0368
     18 H           3.7996   -1.2237   -4.1938 H       1  UNL1        0.1575
     19 H           0.6335   -2.1634   -0.7146 H       1  UNL1        0.0240
     20 H           1.4784   -0.6964   -0.2440 H       1  UNL1        0.0240
     21 H          -0.2400   -0.6214   -0.6549 H       1  UNL1        0.0240
@<TRIPOS>BOND
     1     1     2    1
     2     1    11    1
     3     1    12    1
     4     1    13    1
     5     2    14    1
     6     2    15    1
     7     3     8    1
     8     3     4    1
     9     4     5    1
    10     4    16    1
    11     4    17    1
    12     5     6    2
    13     5     7   am
    14     7     8   am
    15     7    18    1
    16     8     9    2
    17    10    19    1
    18    10    20    1
    19    10    21    1
    20     3    10    1
    21     3     2    1
