@<TRIPOS>MOLECULE
ZINC00001773
 49 54 0 0 0
SMALL
GASTEIGER

@<TRIPOS>ATOM
      1 C           0.6814   -1.7521    0.6013 C.ar    1  UNL1       -0.0544
      2 C           1.8699   -2.0738    1.2767 C.ar    1  UNL1       -0.0162
      3 C           2.9299   -1.1646    1.3170 C.ar    1  UNL1        0.1588
      4 C           2.7763    0.0725    0.7259 C.ar    1  UNL1        0.1669
      5 C           1.5484    0.4216    0.2225 C.ar    1  UNL1        0.0146
      6 C           0.5150   -0.4850    0.0549 C.ar    1  UNL1       -0.0343
      7 C          -0.6573   -0.0723   -0.7731 C.3     1  UNL1        0.0187
      8 C          -0.8138    1.4631   -0.7755 C.3     1  UNL1        0.0136
      9 H          -1.6171    1.7542   -1.4638 H       1  UNL1        0.0883
     10 C           0.5142    2.2161   -1.1812 C.3     1  UNL1        0.1225
     11 C           1.5218    1.8928   -0.0594 C.3     1  UNL1        0.0820
     12 C           1.1010    2.6384    1.2227 C.3     1  UNL1        0.0040
     13 C          -0.2581    2.1767    1.7223 C.3     1  UNL1       -0.0305
     14 N          -1.2816    2.0073    0.6212 N.4     1  UNL1        0.2399
     15 C          -2.4796    1.3030    1.2097 C.3     1  UNL1       -0.0286
     16 C          -3.7011    1.3637    0.3650 C.3     1  UNL1       -0.0007
     17 C          -5.0172    1.7510    0.9847 C.3     1  UNL1       -0.0450
     18 C          -4.3297    2.6953    0.0368 C.3     1  UNL1       -0.0450
     19 C           3.0271    2.0727   -0.2787 C.3     1  UNL1        0.1704
     20 H           3.3523    3.0636    0.0617 H       1  UNL1        0.0824
     21 O           3.6930    1.0789    0.5571 O.3     1  UNL1       -0.4764
     22 C           3.3892    1.9887   -1.7616 C.2     1  UNL1        0.1745
     23 O           4.4167    2.4967   -2.2113 O.2     1  UNL1       -0.2934
     24 C           2.4219    1.2562   -2.6655 C.3     1  UNL1        0.0124
     25 C           1.0391    1.9017   -2.6058 C.3     1  UNL1       -0.0109
     26 O           0.1818    3.6235   -1.1399 O.3     1  UNL1       -0.3819
     27 O           4.1004   -1.4666    1.9459 O.3     1  UNL1       -0.5033
     28 H          -0.1000   -2.5070    0.5183 H       1  UNL1        0.0622
     29 H           1.9630   -3.0527    1.7408 H       1  UNL1        0.0655
     30 H          -0.4743   -0.4155   -1.7991 H       1  UNL1        0.0369
     31 H          -1.5721   -0.5803   -0.4507 H       1  UNL1        0.0369
     32 H           1.0947    3.7204    1.0548 H       1  UNL1        0.0328
     33 H           1.8262    2.4854    2.0341 H       1  UNL1        0.0328
     34 H          -0.1706    1.2265    2.2546 H       1  UNL1        0.0815
     35 H          -0.6609    2.9210    2.4196 H       1  UNL1        0.0815
     36 H          -2.6700    1.7755    2.1809 H       1  UNL1        0.0817
     37 H          -2.1955    0.2671    1.4184 H       1  UNL1        0.0817
     38 H          -3.7293    0.5836   -0.3871 H       1  UNL1        0.0352
     39 H          -5.0526    2.0190    2.0375 H       1  UNL1        0.0270
     40 H          -5.9140    1.2441    0.6420 H       1  UNL1        0.0270
     41 H          -4.7610    2.8224   -0.9498 H       1  UNL1        0.0270
     42 H          -3.9130    3.6023    0.4576 H       1  UNL1        0.0270
     43 H           2.3967    0.2006   -2.3865 H       1  UNL1        0.0344
     44 H           2.8016    1.3023   -3.6937 H       1  UNL1        0.0344
     45 H           1.0986    2.8310   -3.1860 H       1  UNL1        0.0299
     46 H           0.3287    1.2721   -3.1519 H       1  UNL1        0.0299
     47 H          -0.1766    3.9134   -2.0004 H       1  UNL1        0.2105
     48 H           4.0492   -2.3638    2.3150 H       1  UNL1        0.2923
     49 H          -1.5714    2.9702    0.4038 H       1  UNL1        0.2037
@<TRIPOS>UNITY_ATOM_ATTR
14 1
charge 1
@<TRIPOS>BOND
     1     1     6   ar
     2     1     2   ar
     3     1    28    1
     4     2     3   ar
     5     2    29    1
     6     3     4   ar
     7     3    27    1
     8     4    21    1
     9     4     5   ar
    10     5     6   ar
    11     6     7    1
    12     7     8    1
    13     7    30    1
    14     7    31    1
    15     8     9    1
    16     8    14    1
    17     8    10    1
    18    10    25    1
    19    10    11    1
    20    10    26    1
    21    11     5    1
    22    11    12    1
    23    11    19    1
    24    12    13    1
    25    12    32    1
    26    12    33    1
    27    13    14    1
    28    13    34    1
    29    13    35    1
    30    14    15    1
    31    14    49    1
    32    15    16    1
    33    15    36    1
    34    15    37    1
    35    16    18    1
    36    16    17    1
    37    16    38    1
    38    17    18    1
    39    17    39    1
    40    17    40    1
    41    18    41    1
    42    18    42    1
    43    19    20    1
    44    19    21    1
    45    19    22    1
    46    22    23    2
    47    22    24    1
    48    24    25    1
    49    24    43    1
    50    24    44    1
    51    25    45    1
    52    25    46    1
    53    26    47    1
    54    27    48    1
