@<TRIPOS>MOLECULE
ZINC00120286
 30 32 0 0 0
SMALL
GASTEIGER

@<TRIPOS>ATOM
      1 C           1.3969   -0.2086   -0.0014 C.ar    1  UNL1       -0.0617
      2 C           0.8852    0.9770   -0.5179 C.ar    1  UNL1       -0.0611
      3 C          -0.4972    1.1756   -0.5757 C.ar    1  UNL1       -0.0525
      4 C          -1.4051    0.1966   -0.1242 C.ar    1  UNL1        0.0037
      5 C          -0.8576   -1.0056    0.3589 C.ar    1  UNL1       -0.0525
      6 C           0.5264   -1.2013    0.4359 C.ar    1  UNL1       -0.0611
      7 C          -2.8639    0.4347   -0.1956 C.ar    1  UNL1        0.1113
      8 C          -3.8206   -0.0598    0.7072 C.ar    1  UNL1        0.1448
      9 N          -5.1445    0.1698    0.5435 N.ar    1  UNL1       -0.2091
     10 C          -5.5511    0.8904   -0.5071 C.ar    1  UNL1        0.1868
     11 C          -4.5985    1.4216   -1.3812 C.ar    1  UNL1        0.1482
     12 N          -3.2607    1.2111   -1.2358 N.ar    1  UNL1       -0.2367
     13 C          -5.1424    2.1469   -2.4332 C.ar    1  UNL1        0.1491
     14 N          -6.4581    2.3143   -2.6281 N.ar    1  UNL1       -0.1978
     15 C          -7.2649    1.7298   -1.7473 C.ar    1  UNL1        0.2163
     16 N          -6.8601    1.0529   -0.6794 N.ar    1  UNL1       -0.1932
     17 N          -8.6212    1.8506   -1.9549 N.pl3   1  UNL1       -0.3274
     18 N          -4.3005    2.8237   -3.3348 N.pl3   1  UNL1       -0.3413
     19 N          -3.5110   -0.8577    1.8095 N.pl3   1  UNL1       -0.3414
     20 H           2.4710   -0.3638    0.0496 H       1  UNL1        0.0618
     21 H           1.5588    1.7502   -0.8785 H       1  UNL1        0.0618
     22 H          -0.8710    2.1139   -0.9847 H       1  UNL1        0.0624
     23 H          -1.5009   -1.8249    0.6729 H       1  UNL1        0.0624
     24 H           0.9188   -2.1360    0.8296 H       1  UNL1        0.0618
     25 H          -8.8298    2.6542   -2.5296 H       1  UNL1        0.1452
     26 H          -9.1292    1.7456   -1.0870 H       1  UNL1        0.1452
     27 H          -3.4958    2.2541   -3.5814 H       1  UNL1        0.1438
     28 H          -4.8443    3.1588   -4.1217 H       1  UNL1        0.1438
     29 H          -4.3666   -1.0131    2.3372 H       1  UNL1        0.1438
     30 H          -2.7679   -0.4623    2.3757 H       1  UNL1        0.1438
@<TRIPOS>BOND
     1     1     6   ar
     2     1     2   ar
     3     1    20    1
     4     2     3   ar
     5     2    21    1
     6     3     4   ar
     7     3    22    1
     8     4     5   ar
     9     4     7    1
    10     5     6   ar
    11     5    23    1
    12     6    24    1
    13     7    12   ar
    14     7     8   ar
    15     8     9   ar
    16     8    19    1
    17     9    10   ar
    18    10    16   ar
    19    10    11   ar
    20    11    12   ar
    21    11    13   ar
    22    13    14   ar
    23    13    18    1
    24    14    15   ar
    25    15    16   ar
    26    15    17    1
    27    17    25    1
    28    17    26    1
    29    18    27    1
    30    18    28    1
    31    19    29    1
    32    19    30    1
