@<TRIPOS>MOLECULE
ZINC00000353
 28 28 0 0 0
SMALL
GASTEIGER

@<TRIPOS>ATOM
      1 C           1.1264    0.1053   -0.8755 C.3     1  UNL1        0.0790
      2 O           0.4472    1.3457   -0.9401 O.3     1  UNL1       -0.4915
      3 C           0.9642    2.4351   -0.2950 C.ar    1  UNL1        0.1615
      4 C           0.0776    3.5274   -0.3497 C.ar    1  UNL1       -0.0163
      5 C           0.3887    4.7504    0.2436 C.ar    1  UNL1       -0.0581
      6 C           1.6169    4.9139    0.8599 C.ar    1  UNL1       -0.0581
      7 C           2.5125    3.8439    0.9147 C.ar    1  UNL1       -0.0163
      8 C           2.1884    2.5781    0.3776 C.ar    1  UNL1        0.1620
      9 O           3.0411    1.5068    0.4995 O.3     1  UNL1       -0.4857
     10 C           3.9375    1.5682    1.6169 C.3     1  UNL1        0.1177
     11 C           4.4554    0.1854    2.0152 C.3     1  UNL1        0.1120
     12 H           3.6178   -0.4559    2.3151 H       1  UNL1        0.0650
     13 C           5.2445   -0.4999    0.9016 C.3     1  UNL1        0.0733
     14 O           5.7443   -1.7520    1.3846 O.3     1  UNL1       -0.3923
     15 O           5.3113    0.3317    3.1612 O.3     1  UNL1       -0.3861
     16 H           0.4434   -0.6541   -1.2716 H       1  UNL1        0.0660
     17 H           1.3563   -0.1840    0.1528 H       1  UNL1        0.0660
     18 H           2.0163    0.1127   -1.5120 H       1  UNL1        0.0660
     19 H          -0.8782    3.4109   -0.8531 H       1  UNL1        0.0655
     20 H          -0.3239    5.5695    0.2072 H       1  UNL1        0.0619
     21 H           1.8813    5.8720    1.3041 H       1  UNL1        0.0619
     22 H           3.4719    4.0306    1.3886 H       1  UNL1        0.0655
     23 H           4.7884    2.2156    1.3689 H       1  UNL1        0.0723
     24 H           3.4340    1.9878    2.4988 H       1  UNL1        0.0723
     25 H           4.6170   -0.6979    0.0291 H       1  UNL1        0.0584
     26 H           6.1037    0.1045    0.5883 H       1  UNL1        0.0584
     27 H           6.6388   -1.5840    1.7307 H       1  UNL1        0.2095
     28 H           5.5173   -0.5760    3.4509 H       1  UNL1        0.2100
@<TRIPOS>BOND
     1     1     2    1
     2     1    16    1
     3     1    17    1
     4     1    18    1
     5     2     3    1
     6     3     8   ar
     7     3     4   ar
     8     4     5   ar
     9     4    19    1
    10     5     6   ar
    11     5    20    1
    12     6     7   ar
    13     6    21    1
    14     7     8   ar
    15     7    22    1
    16     8     9    1
    17     9    10    1
    18    10    11    1
    19    10    23    1
    20    10    24    1
    21    11    12    1
    22    11    13    1
    23    11    15    1
    24    13    14    1
    25    13    25    1
    26    13    26    1
    27    14    27    1
    28    15    28    1
