@<TRIPOS>MOLECULE
ZINC00004893
 37 40 0 0 0
SMALL
GASTEIGER

@<TRIPOS>ATOM
      1 C           1.8037   -4.1927   -0.0856 C.3     1  UNL1       -0.0431
      2 C           1.8830   -1.6897   -0.1403 C.3     1  UNL1       -0.0243
      3 C           0.9235   -0.6395    0.3845 C.3     1  UNL1        0.0394
      4 H           1.1406   -0.4406    1.4471 H       1  UNL1        0.0410
      5 C           0.9462    0.6619   -0.3689 C.ar    1  UNL1        0.0038
      6 C           1.7450    1.6978    0.1335 C.ar    1  UNL1       -0.0546
      7 C           1.7309    2.9543   -0.4735 C.ar    1  UNL1       -0.0613
      8 C           0.9696    3.1701   -1.6130 C.ar    1  UNL1       -0.0583
      9 C           0.1431    2.1636   -2.1196 C.ar    1  UNL1       -0.0190
     10 C           0.0957    0.9359   -1.4654 C.ar    1  UNL1        0.1321
     11 O          -0.9715    0.0982   -1.8135 O.3     1  UNL1       -0.4555
     12 C          -1.9345    0.1108   -0.7908 C.ar    1  UNL1        0.1322
     13 C          -2.9748    1.0240   -0.9211 C.ar    1  UNL1       -0.0177
     14 C          -3.4791    1.5932    0.2372 C.ar    1  UNL1       -0.0399
     15 C          -2.9455    1.2076    1.4748 C.ar    1  UNL1        0.0415
     16 C          -2.0281    0.1393    1.5938 C.ar    1  UNL1       -0.0362
     17 C          -1.5544   -0.4819    0.4382 C.ar    1  UNL1        0.0051
     18 C          -0.3861   -1.4238    0.2964 C.3     1  UNL1        0.0395
     19 H          -0.5042   -1.8168   -0.7285 H       1  UNL1        0.0410
     20 C          -0.0551   -2.7457    1.0012 C.3     1  UNL1       -0.0243
     21 CL         -3.3046    2.1903    2.8493 Cl      1  UNL1       -0.0835
     22 H           1.3036   -4.2116   -1.0587 H       1  UNL1        0.0777
     23 H           2.8922   -4.2140   -0.2210 H       1  UNL1        0.0777
     24 H           1.4982   -5.0497    0.5273 H       1  UNL1        0.0777
     25 H           2.9417   -1.5016    0.0606 H       1  UNL1        0.0820
     26 H           1.7297   -1.8918   -1.2073 H       1  UNL1        0.0820
     27 H           2.3260    1.5743    1.0500 H       1  UNL1        0.0622
     28 H           2.2998    3.7737   -0.0377 H       1  UNL1        0.0618
     29 H           0.9588    4.1541   -2.0806 H       1  UNL1        0.0619
     30 H          -0.5119    2.3665   -2.9600 H       1  UNL1        0.0654
     31 H          -3.2591    1.3992   -1.8983 H       1  UNL1        0.0655
     32 H          -4.1892    2.4122    0.1588 H       1  UNL1        0.0633
     33 H          -1.6108   -0.0710    2.5741 H       1  UNL1        0.0636
     34 H          -0.1180   -2.7178    2.0932 H       1  UNL1        0.0820
     35 H          -0.6152   -3.5911    0.5991 H       1  UNL1        0.0820
     36 N           1.4500   -2.9378    0.6404 N.4     1  UNL1        0.2340
     37 H           1.9755   -2.9482    1.5265 H       1  UNL1        0.2031
@<TRIPOS>UNITY_ATOM_ATTR
36 1
charge 1
@<TRIPOS>BOND
     1     1    22    1
     2     1    23    1
     3     1    24    1
     4     1    36    1
     5     2     3    1
     6     2    25    1
     7     2    26    1
     8     2    36    1
     9     3     4    1
    10     3    18    1
    11     3     5    1
    12     5    10   ar
    13     5     6   ar
    14     6     7   ar
    15     6    27    1
    16     7     8   ar
    17     7    28    1
    18     8     9   ar
    19     8    29    1
    20     9    10   ar
    21     9    30    1
    22    10    11    1
    23    11    12    1
    24    12    17   ar
    25    12    13   ar
    26    13    14   ar
    27    13    31    1
    28    14    15   ar
    29    14    32    1
    30    15    16   ar
    31    15    21    1
    32    16    17   ar
    33    16    33    1
    34    17    18    1
    35    18    19    1
    36    18    20    1
    37    20    34    1
    38    20    35    1
    39    20    36    1
    40    36    37    1
