@<TRIPOS>MOLECULE
ZINC00113415
 42 42 0 0 0
SMALL
GASTEIGER

@<TRIPOS>ATOM
      1 C           3.4395    2.0421   -1.8650 C.3     1  UNL1       -0.0219
      2 C           2.3725    2.3590   -2.9078 C.3     1  UNL1       -0.0283
      3 C           2.5101    1.3778   -4.0759 C.3     1  UNL1       -0.0219
      4 N           0.9758    2.2248   -2.3457 N.4     1  UNL1        0.2307
      5 C           0.5460    3.0811   -1.1559 C.3     1  UNL1       -0.0035
      6 C          -0.9487    2.7901   -0.8367 C.3     1  UNL1        0.1285
      7 H          -1.0279    1.7687   -0.4443 H       1  UNL1        0.0681
      8 C          -1.5657    3.7833    0.1790 C.3     1  UNL1        0.1204
      9 O          -0.9018    3.6751    1.4362 O.3     1  UNL1       -0.4892
     10 C          -1.0804    4.7189    2.3129 C.ar    1  UNL1        0.1206
     11 C          -2.1539    5.6107    2.3372 C.ar    1  UNL1       -0.0197
     12 C          -2.1799    6.6646    3.2712 C.ar    1  UNL1       -0.0547
     13 C          -1.1464    6.8242    4.2071 C.ar    1  UNL1       -0.0384
     14 C          -0.0958    5.8999    4.2008 C.ar    1  UNL1       -0.0547
     15 C          -0.0677    4.8614    3.2640 C.ar    1  UNL1       -0.0197
     16 C          -1.1650    7.9449    5.2250 C.3     1  UNL1        0.0489
     17 C          -1.9192    7.5971    6.4978 C.2     1  UNL1        0.2148
     18 O          -3.1110    7.3038    6.5256 O.2     1  UNL1       -0.2757
     19 N          -1.1907    7.6351    7.6559 N.am    1  UNL1       -0.3291
     20 O          -1.6717    2.8172   -2.0813 O.3     1  UNL1       -0.3831
     21 H           3.2165    1.1207   -1.3174 H       1  UNL1        0.0284
     22 H           3.5529    2.8593   -1.1472 H       1  UNL1        0.0284
     23 H           4.4175    1.9056   -2.3467 H       1  UNL1        0.0284
     24 H           2.4800    3.3866   -3.2716 H       1  UNL1        0.0845
     25 H           2.4036    0.3397   -3.7390 H       1  UNL1        0.0284
     26 H           1.7608    1.5643   -4.8506 H       1  UNL1        0.0284
     27 H           3.4985    1.4677   -4.5438 H       1  UNL1        0.0284
     28 H           0.2946    2.4636   -3.0885 H       1  UNL1        0.2017
     29 H           1.1949    2.8369   -0.3133 H       1  UNL1        0.0841
     30 H           0.6826    4.1190   -1.4734 H       1  UNL1        0.0841
     31 H          -1.4897    4.8004   -0.2209 H       1  UNL1        0.0725
     32 H          -2.6322    3.5487    0.3072 H       1  UNL1        0.0725
     33 H          -3.0013    5.5121    1.6653 H       1  UNL1        0.0654
     34 H          -3.0207    7.3587    3.2716 H       1  UNL1        0.0622
     35 H           0.7137    5.9824    4.9242 H       1  UNL1        0.0622
     36 H           0.7636    4.1604    3.2783 H       1  UNL1        0.0654
     37 H          -0.1356    8.2303    5.4704 H       1  UNL1        0.0407
     38 H          -1.6251    8.8437    4.7962 H       1  UNL1        0.0407
     39 H          -0.2731    8.0397    7.7155 H       1  UNL1        0.1449
     40 H          -1.6981    7.4649    8.5200 H       1  UNL1        0.1449
     41 H          -2.6181    2.7054   -1.8778 H       1  UNL1        0.2102
     42 H           0.7788    1.2384   -2.1369 H       1  UNL1        0.2017
@<TRIPOS>UNITY_ATOM_ATTR
4 1
charge 1
@<TRIPOS>BOND
     1     1     2    1
     2     1    21    1
     3     1    22    1
     4     1    23    1
     5     2     3    1
     6     2     4    1
     7     2    24    1
     8     3    25    1
     9     3    26    1
    10     3    27    1
    11     4     5    1
    12     4    28    1
    13     4    42    1
    14     5     6    1
    15     5    29    1
    16     5    30    1
    17     6     7    1
    18     6     8    1
    19     6    20    1
    20     8     9    1
    21     8    31    1
    22     8    32    1
    23     9    10    1
    24    10    15   ar
    25    10    11   ar
    26    11    12   ar
    27    11    33    1
    28    12    13   ar
    29    12    34    1
    30    13    14   ar
    31    13    16    1
    32    14    15   ar
    33    14    35    1
    34    15    36    1
    35    16    17    1
    36    16    37    1
    37    16    38    1
    38    17    18    2
    39    17    19   am
    40    19    39    1
    41    19    40    1
    42    20    41    1
