@<TRIPOS>MOLECULE
ZINC02032615
 46 48 0 0 0
SMALL
GASTEIGER

@<TRIPOS>ATOM
      1 C           0.7877   -1.0861   -0.4828 C.3     1  UNL1       -0.0585
      2 C          -0.3073   -0.0531   -0.3171 C.3     1  UNL1       -0.0143
      3 C          -1.7689   -0.4852   -0.4848 C.3     1  UNL1       -0.0011
      4 H          -2.4263    0.2640   -0.9300 H       1  UNL1        0.0357
      5 C          -1.2237   -0.1883    0.8881 C.3     1  UNL1        0.0689
      6 H          -0.9504   -1.0006    1.5563 H       1  UNL1        0.0425
      7 C          -1.7799    0.9605    1.6363 C.2     1  UNL1        0.3116
      8 O          -2.5011    1.8197    1.1214 O.2     1  UNL1       -0.2505
      9 O          -1.3972    0.8997    2.9301 O.3     1  UNL1       -0.4596
     10 C          -1.8947    1.9470    3.7621 C.3     1  UNL1        0.1176
     11 C          -1.0710    3.1950    3.5973 C.ar    1  UNL1       -0.0068
     12 C          -1.6328    4.3931    3.1458 C.ar    1  UNL1       -0.0551
     13 C          -0.8367    5.5289    2.9949 C.ar    1  UNL1       -0.0579
     14 C           0.5347    5.4621    3.2549 C.ar    1  UNL1       -0.0193
     15 C           1.1088    4.2672    3.6826 C.ar    1  UNL1        0.1288
     16 C           0.2913    3.1559    3.9070 C.ar    1  UNL1       -0.0129
     17 O           2.4698    4.2822    3.9023 O.3     1  UNL1       -0.4560
     18 C           3.1953    3.1288    3.6982 C.ar    1  UNL1        0.1284
     19 C           4.3617    2.9783    4.4512 C.ar    1  UNL1       -0.0193
     20 C           5.1326    1.8236    4.3138 C.ar    1  UNL1       -0.0583
     21 C           4.7374    0.8212    3.4294 C.ar    1  UNL1       -0.0615
     22 C           3.5861    0.9784    2.6591 C.ar    1  UNL1       -0.0583
     23 C           2.8376    2.1462    2.7687 C.ar    1  UNL1       -0.0193
     24 C          -2.0871   -1.8461   -0.9561 C.2     1  UNL1       -0.0499
     25 C          -2.7938   -2.8579   -0.4246 C.2     1  UNL1        0.1029
     26 CL         -2.9869   -4.3213   -1.3415 Cl      1  UNL1       -0.0708
     27 CL         -3.5352   -2.8284    1.1279 Cl      1  UNL1       -0.0708
     28 C           0.1046    1.3232   -0.7931 C.3     1  UNL1       -0.0585
     29 H           0.6150   -1.9754    0.1325 H       1  UNL1        0.0235
     30 H           0.8533   -1.4005   -1.5295 H       1  UNL1        0.0235
     31 H           1.7605   -0.6771   -0.1883 H       1  UNL1        0.0235
     32 H          -2.9616    2.1155    3.5653 H       1  UNL1        0.0749
     33 H          -1.8122    1.6069    4.7987 H       1  UNL1        0.0749
     34 H          -2.6959    4.4530    2.9192 H       1  UNL1        0.0621
     35 H          -1.2819    6.4666    2.6731 H       1  UNL1        0.0619
     36 H           1.1546    6.3438    3.1246 H       1  UNL1        0.0654
     37 H           0.7070    2.2296    4.3004 H       1  UNL1        0.0658
     38 H           4.6629    3.7536    5.1504 H       1  UNL1        0.0654
     39 H           6.0405    1.7015    4.9007 H       1  UNL1        0.0619
     40 H           5.3254   -0.0892    3.3376 H       1  UNL1        0.0618
     41 H           3.2713    0.1978    1.9731 H       1  UNL1        0.0619
     42 H           1.9544    2.2680    2.1511 H       1  UNL1        0.0654
     43 H          -1.7096   -2.0256   -1.9637 H       1  UNL1        0.0598
     44 H           0.0556    1.3750   -1.8857 H       1  UNL1        0.0235
     45 H          -0.5215    2.1247   -0.3931 H       1  UNL1        0.0235
     46 H           1.1347    1.5437   -0.4913 H       1  UNL1        0.0235
@<TRIPOS>BOND
     1     1     2    1
     2     1    29    1
     3     1    30    1
     4     1    31    1
     5     2     5    1
     6     2     3    1
     7     2    28    1
     8     3     4    1
     9     3     5    1
    10     3    24    1
    11     5     6    1
    12     5     7    1
    13     7     8    2
    14     7     9    1
    15     9    10    1
    16    10    11    1
    17    10    32    1
    18    10    33    1
    19    11    16   ar
    20    11    12   ar
    21    12    13   ar
    22    12    34    1
    23    13    14   ar
    24    13    35    1
    25    14    15   ar
    26    14    36    1
    27    15    16   ar
    28    15    17    1
    29    16    37    1
    30    17    18    1
    31    18    23   ar
    32    18    19   ar
    33    19    20   ar
    34    19    38    1
    35    20    21   ar
    36    20    39    1
    37    21    22   ar
    38    21    40    1
    39    22    23   ar
    40    22    41    1
    41    23    42    1
    42    24    25    2
    43    24    43    1
    44    25    26    1
    45    25    27    1
    46    28    44    1
    47    28    45    1
    48    28    46    1
