@<TRIPOS>MOLECULE
ZINC02015035
 26 26 0 0 0
SMALL
GASTEIGER

@<TRIPOS>ATOM
      1 C1         -3.5835    0.8699   -3.8366 C.ar    1  <1>        -0.0522
      2 C2         -4.0600    1.5821   -4.9400 C.ar    1  <1>        -0.0162
      3 C3         -4.6630    0.8944   -5.9831 C.ar    1  <1>         0.1582
      4 C4         -4.7766   -0.4907   -5.9473 C.ar    1  <1>         0.1586
      5 C5         -4.2970   -1.2068   -4.8573 C.ar    1  <1>        -0.0107
      6 C6         -3.7096   -0.5323   -3.7704 C.ar    1  <1>        -0.0095
      7 C7         -3.2320   -1.2790   -2.5368 C.3     1  <1>         0.1332
      8 H1         -2.6255   -0.5759   -1.9515 H       1  <1>         0.0707
      9 C8         -4.3409   -1.7822   -1.5883 C.3     1  <1>         0.1090
     10 H2         -3.8959   -2.2404   -0.6969 H       1  <1>         0.1000
     11 C9         -5.2113   -2.8674   -2.2602 C.2     1  <1>         0.4055
     12 O1         -6.4460   -2.6201   -2.1065 O.co2   1  <1>        -0.2399
     13 O2         -4.5965   -3.7873   -2.8520 O.co2   1  <1>        -0.2399
     14 N1         -5.2099   -0.6432   -1.0779 N.4     1  <1>         0.2310
     15 O3         -2.3135   -2.3068   -2.9038 O.3     1  <1>        -0.3810
     16 O4         -5.3701   -1.1093   -7.0136 O.3     1  <1>        -0.5033
     17 O5         -5.1479    1.5916   -7.0509 O.3     1  <1>        -0.5033
     18 H3         -3.0939    1.4224   -3.0366 H       1  <1>         0.0622
     19 H4         -3.9521    2.6618   -4.9955 H       1  <1>         0.0655
     20 H5         -4.3741   -2.2918   -4.8536 H       1  <1>         0.0659
     21 H6         -5.9905   -1.1192   -0.5924 H       1  <1>         0.2004
     22 H7         -4.7516    0.0521   -0.4925 H       1  <1>         0.2004
     23 H8         -2.8472   -3.1193   -3.0852 H       1  <1>         0.2105
     24 H9         -5.3831   -2.0676   -6.8324 H       1  <1>         0.2923
     25 H10        -5.5144    0.9031   -7.6428 H       1  <1>         0.2923
     26 H11        -5.6900   -0.2310   -1.8904 H       1  <1>         0.2004
@<TRIPOS>UNITY_ATOM_ATTR
14 1
charge 1
@<TRIPOS>BOND
     1     1     6   ar
     2     1     2   ar
     3     1    18    1
     4     2     3   ar
     5     2    19    1
     6     3     4   ar
     7     3    17    1
     8     4     5   ar
     9     4    16    1
    10     5     6   ar
    11     5    20    1
    12     6     7    1
    13     7     8    1
    14     7    15    1
    15     9    11    1
    16     9    14    1
    17    11    12   ar
    18    11    13   ar
    19    14    21    1
    20    14    22    1
    21    14    26    1
    22    15    23    1
    23    16    24    1
    24    17    25    1
    25     9    10    1
    26     9     7    1
