@<TRIPOS>MOLECULE
ZINC00049153
 35 36 0 0 0
SMALL
GASTEIGER

@<TRIPOS>ATOM
      1 C           0.9656   -0.1702    0.0217 C.3     1  UNL1       -0.0235
      2 C           0.3319   -1.5132    0.0424 C.2     1  UNL1        0.0262
      3 C          -1.0304   -1.7720    0.0263 C.2     1  UNL1        0.0123
      4 S          -1.3080   -3.4679    0.0324 S.3     1  UNL1       -0.0820
      5 C           0.3632   -3.8010    0.0485 C.2     1  UNL1        0.0432
      6 N           1.0862   -2.6902    0.0540 N.2     1  UNL1       -0.3398
      7 C           2.5576   -2.7866    0.0283 C.3     1  UNL1        0.0532
      8 C           3.1055   -2.8862    1.4150 C.ar    1  UNL1        0.0298
      9 C           3.4606   -1.7723    2.1446 C.ar    1  UNL1        0.0378
     10 N           3.8533   -1.8108    3.4256 N.ar    1  UNL1       -0.2401
     11 C           3.8987   -3.0207    4.0064 C.ar    1  UNL1        0.1280
     12 N           3.5971   -4.1668    3.3736 N.ar    1  UNL1       -0.2177
     13 C           3.2248   -4.0853    2.0924 C.ar    1  UNL1        0.1245
     14 N           2.9864   -5.3117    1.4660 N.pl3   1  UNL1       -0.3428
     15 C           4.2868   -3.0959    5.4502 C.3     1  UNL1       -0.0046
     16 C          -2.2018   -0.8214   -0.0247 C.3     1  UNL1        0.0035
     17 C          -2.6309   -0.3219    1.3547 C.3     1  UNL1        0.0487
     18 O          -3.0388   -1.4005    2.1848 O.3     1  UNL1       -0.3947
     19 H           0.6611    0.4024    0.9041 H       1  UNL1        0.0292
     20 H           0.6396    0.3802   -0.8673 H       1  UNL1        0.0292
     21 H           2.0535   -0.1821    0.0032 H       1  UNL1        0.0292
     22 H           0.7621   -4.8081    0.0436 H       1  UNL1        0.0887
     23 H           2.8459   -3.6589   -0.5723 H       1  UNL1        0.0543
     24 H           2.9897   -1.9368   -0.5098 H       1  UNL1        0.0543
     25 H           3.4420   -0.7700    1.7274 H       1  UNL1        0.0834
     26 H           3.0809   -6.0060    2.2170 H       1  UNL1        0.1437
     27 H           3.7270   -5.5204    0.7964 H       1  UNL1        0.1437
     28 H           3.4320   -3.4327    6.0450 H       1  UNL1        0.0308
     29 H           5.1119   -3.8012    5.5823 H       1  UNL1        0.0308
     30 H           4.6051   -2.1173    5.8226 H       1  UNL1        0.0308
     31 H          -1.9389    0.0393   -0.6509 H       1  UNL1        0.0341
     32 H          -3.0531   -1.3151   -0.5087 H       1  UNL1        0.0341
     33 H          -1.8091    0.1975    1.8596 H       1  UNL1        0.0560
     34 H          -3.4663    0.3817    1.2652 H       1  UNL1        0.0560
     35 H          -3.9199   -1.6929    1.8903 H       1  UNL1        0.2094
@<TRIPOS>BOND
     1     1     2    1
     2     1    19    1
     3     1    20    1
     4     1    21    1
     5     2     6    1
     6     2     3    2
     7     3     4    1
     8     3    16    1
     9     4     5    1
    10     5     6    2
    11     5    22    1
    12     6     7    1
    13     7     8    1
    14     7    23    1
    15     7    24    1
    16     8    13   ar
    17     8     9   ar
    18     9    10   ar
    19     9    25    1
    20    10    11   ar
    21    11    12   ar
    22    11    15    1
    23    12    13   ar
    24    13    14    1
    25    14    26    1
    26    14    27    1
    27    15    28    1
    28    15    29    1
    29    15    30    1
    30    16    17    1
    31    16    31    1
    32    16    32    1
    33    17    18    1
    34    17    33    1
    35    17    34    1
    36    18    35    1
