@<TRIPOS>MOLECULE
ZINC01536934
 42 43 0 0 0
SMALL
GASTEIGER

@<TRIPOS>ATOM
      1 C          -0.7364   -1.2238    0.0206 C.ar    1  UNL1       -0.0606
      2 C          -1.1061    0.0389    0.4887 C.ar    1  UNL1       -0.0524
      3 C          -0.4452    1.1915    0.0349 C.ar    1  UNL1        0.0047
      4 C           0.6409    1.0466   -0.8380 C.ar    1  UNL1       -0.0408
      5 C           1.0663   -0.2243   -1.2604 C.ar    1  UNL1        0.0554
      6 C           0.3440   -1.3545   -0.8499 C.ar    1  UNL1       -0.0501
      7 C           2.2763   -0.3845   -2.1458 C.3     1  UNL1        0.4174
      8 F           2.9518    0.7731   -2.3797 F       1  UNL1       -0.1659
      9 F           3.1897   -1.2530   -1.6260 F       1  UNL1       -0.1659
     10 F           1.9511   -0.8818   -3.3722 F       1  UNL1       -0.1659
     11 C          -0.9369    2.5588    0.4331 C.2     1  UNL1        0.1183
     12 N          -0.1864    3.5905    0.7034 N.2     1  UNL1       -0.0839
     13 O           1.1894    3.3294    0.6735 O.2     1  UNL1       -0.3933
     14 C           1.8923    4.5649    0.8711 C.3     1  UNL1        0.1179
     15 C           3.3847    4.3047    0.7021 C.3     1  UNL1       -0.0156
     16 C           4.2555    5.5514    0.8740 C.3     1  UNL1       -0.0397
     17 C           4.1470    6.1778    2.2616 C.3     1  UNL1        0.0493
     18 C           5.0959    7.3701    2.3966 C.2     1  UNL1        0.3560
     19 O           4.9147    8.3017    1.5633 O.co2   1  UNL1       -0.2464
     20 C          -2.4185    2.7927    0.5392 C.ar    1  UNL1        0.0222
     21 C          -2.9078    3.7781    1.4015 C.ar    1  UNL1       -0.0496
     22 C          -4.2825    3.9694    1.5275 C.ar    1  UNL1       -0.0430
     23 C          -5.1279    3.1641    0.7833 C.ar    1  UNL1        0.0276
     24 N          -4.6974    2.2194   -0.0807 N.ar    1  UNL1       -0.2626
     25 C          -3.3528    2.0724   -0.1975 C.ar    1  UNL1        0.0368
     26 H          -1.2900   -2.1048    0.3376 H       1  UNL1        0.0618
     27 H          -1.9306    0.1064    1.1955 H       1  UNL1        0.0624
     28 H           1.1714    1.9274   -1.1966 H       1  UNL1        0.0630
     29 H           0.6321   -2.3444   -1.2021 H       1  UNL1        0.0623
     30 H           1.5457    5.2990    0.1371 H       1  UNL1        0.0723
     31 H           1.6630    4.9316    1.8760 H       1  UNL1        0.0723
     32 H           3.7016    3.5248    1.4054 H       1  UNL1        0.0299
     33 H           3.5602    3.8855   -0.2986 H       1  UNL1        0.0299
     34 H           5.3010    5.2739    0.6875 H       1  UNL1        0.0271
     35 H           3.9935    6.2868    0.1033 H       1  UNL1        0.0271
     36 H           3.1327    6.5469    2.4477 H       1  UNL1        0.0379
     37 H           4.3730    5.4307    3.0314 H       1  UNL1        0.0379
     38 H          -2.2237    4.3964    1.9795 H       1  UNL1        0.0625
     39 H          -4.6794    4.7270    2.1935 H       1  UNL1        0.0633
     40 H          -6.2066    3.2630    0.8622 H       1  UNL1        0.0829
     41 H          -3.0577    1.3266   -0.9295 H       1  UNL1        0.0836
     42 O           5.9260    7.2852    3.3446 O.co2   1  UNL1       -0.2464
@<TRIPOS>BOND
     1     1     6   ar
     2     1     2   ar
     3     1    26    1
     4     2     3   ar
     5     2    27    1
     6     3     4   ar
     7     3    11    1
     8     4     5   ar
     9     4    28    1
    10     5     6   ar
    11     5     7    1
    12     6    29    1
    13     7     8    1
    14     7     9    1
    15     7    10    1
    16    11    12    2
    17    11    20    1
    18    12    13    1
    19    13    14    1
    20    14    15    1
    21    14    30    1
    22    14    31    1
    23    15    16    1
    24    15    32    1
    25    15    33    1
    26    16    17    1
    27    16    34    1
    28    16    35    1
    29    17    18    1
    30    17    36    1
    31    17    37    1
    32    18    19   ar
    33    18    42   ar
    34    20    25   ar
    35    20    21   ar
    36    21    22   ar
    37    21    38    1
    38    22    23   ar
    39    22    39    1
    40    23    24   ar
    41    23    40    1
    42    24    25   ar
    43    25    41    1
