@<TRIPOS>MOLECULE
ZINC00897256
 50 51 0 0 0
SMALL
GASTEIGER

@<TRIPOS>ATOM
      1 C          -1.2216   -0.0308   -1.5614 C.3     1  UNL1       -0.0213
      2 C           0.2759   -0.2092   -1.3443 C.3     1  UNL1       -0.0214
      3 H           0.4988   -0.1110   -0.2839 H       1  UNL1        0.0851
      4 C           0.8186   -1.6098   -1.7170 C.3     1  UNL1        0.0152
      5 C           0.5518   -2.2154   -3.0761 C.ar    1  UNL1       -0.0418
      6 C          -0.5143   -3.1118   -3.2363 C.ar    1  UNL1       -0.0549
      7 C          -0.6377   -3.8778   -4.3991 C.ar    1  UNL1       -0.0197
      8 C           0.2781   -3.7490   -5.4413 C.ar    1  UNL1        0.1201
      9 C           1.3043   -2.8141   -5.3238 C.ar    1  UNL1       -0.0197
     10 C           1.4452   -2.0544   -4.1463 C.ar    1  UNL1       -0.0549
     11 O           0.1145   -4.6512   -6.4526 O.3     1  UNL1       -0.4951
     12 C           0.6599   -4.3269   -7.7242 C.3     1  UNL1        0.0788
     13 N           1.0634    0.8836   -2.0347 N.4     1  UNL1        0.2313
     14 C           0.9267    2.3226   -1.5270 C.3     1  UNL1       -0.0025
     15 C           1.3977    2.5454   -0.0594 C.3     1  UNL1        0.1197
     16 H           2.4404    2.2211    0.0336 H       1  UNL1        0.0698
     17 C           1.2795    3.9963    0.3686 C.ar    1  UNL1       -0.0121
     18 C           2.3762    4.8571    0.2427 C.ar    1  UNL1       -0.0524
     19 C           2.2607    6.1957    0.6145 C.ar    1  UNL1       -0.0180
     20 C           1.0574    6.7073    1.1072 C.ar    1  UNL1        0.1380
     21 C          -0.0523    5.8713    1.2779 C.ar    1  UNL1        0.0755
     22 C           0.0813    4.5180    0.9032 C.ar    1  UNL1       -0.0311
     23 N          -1.3032    6.2305    1.8342 N.am    1  UNL1       -0.2852
     24 C          -1.8094    7.4881    2.0521 C.2     1  UNL1        0.2042
     25 O          -1.3092    8.5528    1.7257 O.2     1  UNL1       -0.2792
     26 O           1.1135    8.0311    1.4268 O.3     1  UNL1       -0.5049
     27 O           0.6426    1.7397    0.8446 O.3     1  UNL1       -0.3819
     28 H          -1.7686   -0.5106   -0.7419 H       1  UNL1        0.0284
     29 H          -1.5669   -0.4780   -2.4967 H       1  UNL1        0.0284
     30 H          -1.5287    1.0182   -1.5697 H       1  UNL1        0.0284
     31 H           1.9045   -1.6247   -1.5521 H       1  UNL1        0.0368
     32 H           0.4249   -2.3149   -0.9706 H       1  UNL1        0.0368
     33 H          -1.2269   -3.2899   -2.4334 H       1  UNL1        0.0621
     34 H          -1.4323   -4.6184   -4.4788 H       1  UNL1        0.0654
     35 H           2.0627   -2.7141   -6.0950 H       1  UNL1        0.0654
     36 H           2.3144   -1.4108   -4.0589 H       1  UNL1        0.0621
     37 H           0.1325   -3.4686   -8.1505 H       1  UNL1        0.0660
     38 H           1.7389   -4.1522   -7.6898 H       1  UNL1        0.0660
     39 H           0.4943   -5.1856   -8.3836 H       1  UNL1        0.0660
     40 H           2.0593    0.6345   -2.0016 H       1  UNL1        0.2017
     41 H           1.5409    2.9217   -2.2094 H       1  UNL1        0.0843
     42 H          -0.1172    2.6125   -1.6684 H       1  UNL1        0.0843
     43 H           3.3360    4.5095   -0.1316 H       1  UNL1        0.0622
     44 H           3.1198    6.8623    0.5305 H       1  UNL1        0.0655
     45 H          -0.7717    3.8517    1.0268 H       1  UNL1        0.0641
     46 H          -1.9333    5.4743    2.0704 H       1  UNL1        0.1546
     47 H          -2.7921    7.4429    2.5516 H       1  UNL1        0.1255
     48 H           0.2039    8.3916    1.5024 H       1  UNL1        0.2922
     49 H           0.9116    1.9951    1.7498 H       1  UNL1        0.2105
     50 H           0.8054    0.8683   -3.0315 H       1  UNL1        0.2017
@<TRIPOS>UNITY_ATOM_ATTR
13 1
charge 1
@<TRIPOS>BOND
     1     1     2    1
     2     1    28    1
     3     1    29    1
     4     1    30    1
     5     2     3    1
     6     2     4    1
     7     2    13    1
     8     4     5    1
     9     4    31    1
    10     4    32    1
    11     5    10   ar
    12     5     6   ar
    13     6     7   ar
    14     6    33    1
    15     7     8   ar
    16     7    34    1
    17     8     9   ar
    18     8    11    1
    19     9    10   ar
    20     9    35    1
    21    10    36    1
    22    11    12    1
    23    12    37    1
    24    12    38    1
    25    12    39    1
    26    13    14    1
    27    13    40    1
    28    13    50    1
    29    14    15    1
    30    14    41    1
    31    14    42    1
    32    15    16    1
    33    15    17    1
    34    15    27    1
    35    17    22   ar
    36    17    18   ar
    37    18    19   ar
    38    18    43    1
    39    19    20   ar
    40    19    44    1
    41    20    21   ar
    42    20    26    1
    43    21    22   ar
    44    21    23    1
    45    22    45    1
    46    23    24   am
    47    23    46    1
    48    24    25    2
    49    24    47    1
    50    26    48    1
    51    27    49    1
