@<TRIPOS>MOLECULE
ZINC00643055
 40 42 0 0 0
SMALL
GASTEIGER

@<TRIPOS>ATOM
      1 C           3.2177   -0.6975   -2.3400 C.ar    1  UNL1       -0.0550
      2 C           3.4313   -1.5038   -3.4629 C.ar    1  UNL1       -0.0431
      3 C           4.5420   -2.3505   -3.5023 C.ar    1  UNL1        0.0410
      4 C           5.4760   -2.3237   -2.4717 C.ar    1  UNL1       -0.0431
      5 C           5.2619   -1.5062   -1.3575 C.ar    1  UNL1       -0.0550
      6 C           4.0953   -0.7404   -1.2381 C.ar    1  UNL1       -0.0218
      7 C           3.7818    0.0250    0.0336 C.3     1  UNL1        0.0735
      8 O           4.2285   -0.7049    1.1914 O.3     1  UNL1       -0.3658
      9 C           3.9554   -0.1001    2.4738 C.3     1  UNL1        0.1014
     10 H           4.3414    0.9260    2.4645 H       1  UNL1        0.0663
     11 C           2.4095   -0.1013    2.7121 C.3     1  UNL1        0.0480
     12 N           1.7849   -1.4550    2.7556 N.pl3   1  UNL1       -0.2949
     13 C           0.7288   -1.8273    3.5810 C.2     1  UNL1        0.0135
     14 C           0.3275   -3.0673    3.1744 C.2     1  UNL1        0.0167
     15 N           1.2115   -3.4611    2.2105 N.2     1  UNL1       -0.3542
     16 C           2.1352   -2.5071    1.9874 C.2     1  UNL1        0.0640
     17 C           4.6090   -0.8434    3.6642 C.ar    1  UNL1        0.0010
     18 C           4.1889   -0.4957    4.9721 C.ar    1  UNL1       -0.0533
     19 C           4.4281   -1.3297    6.0662 C.ar    1  UNL1       -0.0430
     20 C           5.1324   -2.5088    5.8831 C.ar    1  UNL1        0.0424
     21 C           5.7092   -2.7848    4.6497 C.ar    1  UNL1       -0.0247
     22 C           5.5042   -1.9206    3.5638 C.ar    1  UNL1        0.0480
     23 CL          6.4808   -2.2096    2.1750 Cl      1  UNL1       -0.0831
     24 CL          5.3069   -3.6108    7.1884 Cl      1  UNL1       -0.0835
     25 CL          4.7352   -3.4556   -4.8054 Cl      1  UNL1       -0.0835
     26 H           2.3448   -0.0468   -2.3365 H       1  UNL1        0.0621
     27 H           2.7336   -1.4881   -4.2957 H       1  UNL1        0.0632
     28 H           6.3651   -2.9482   -2.5187 H       1  UNL1        0.0632
     29 H           6.0109   -1.4912   -0.5706 H       1  UNL1        0.0621
     30 H           4.2265    1.0235    0.0063 H       1  UNL1        0.0610
     31 H           2.6912    0.1124    0.0815 H       1  UNL1        0.0610
     32 H           2.1509    0.4058    3.6479 H       1  UNL1        0.0497
     33 H           1.8812    0.4494    1.9297 H       1  UNL1        0.0497
     34 H           0.3778   -1.1464    4.3378 H       1  UNL1        0.0798
     35 H          -0.4689   -3.7372    3.4602 H       1  UNL1        0.0820
     36 H           2.9665   -2.6058    1.3126 H       1  UNL1        0.0982
     37 H           3.6256    0.4166    5.1628 H       1  UNL1        0.0622
     38 H           4.0407   -1.0645    7.0481 H       1  UNL1        0.0632
     39 H           6.3278   -3.6728    4.5345 H       1  UNL1        0.0647
     40 H           1.2202   -4.3621    1.7356 H       1  UNL1        0.1660
@<TRIPOS>BOND
     1     1     6   ar
     2     1     2   ar
     3     1    26    1
     4     2     3   ar
     5     2    27    1
     6     3     4   ar
     7     3    25    1
     8     4     5   ar
     9     4    28    1
    10     5     6   ar
    11     5    29    1
    12     6     7    1
    13     7     8    1
    14     7    30    1
    15     7    31    1
    16     8     9    1
    17     9    10    1
    18     9    11    1
    19     9    17    1
    20    11    12    1
    21    11    32    1
    22    11    33    1
    23    12    16    1
    24    12    13    1
    25    13    14    2
    26    13    34    1
    27    14    15    1
    28    14    35    1
    29    15    16    2
    30    15    40    1
    31    16    36    1
    32    17    22   ar
    33    17    18   ar
    34    18    19   ar
    35    18    37    1
    36    19    20   ar
    37    19    38    1
    38    20    21   ar
    39    20    24    1
    40    21    22   ar
    41    21    39    1
    42    22    23    1
