@<TRIPOS>MOLECULE
ZINC03806413
 47 48 0 0 0
SMALL
GASTEIGER

@<TRIPOS>ATOM
      1 C           2.0585    0.6074    1.3101 C.3     1  UNL1       -0.0653
      2 C           0.9945    1.6118    1.7244 C.3     1  UNL1       -0.0558
      3 C          -0.3199    1.3639    0.9860 C.3     1  UNL1       -0.0502
      4 C          -1.4415    2.3090    1.4150 C.3     1  UNL1       -0.0185
      5 C          -1.1885    3.7917    1.1438 C.3     1  UNL1        0.0941
      6 O          -0.8927    4.1239   -0.2204 O.3     1  UNL1       -0.4501
      7 C          -1.9747    4.1469   -1.0482 C.2     1  UNL1        0.4057
      8 O          -3.0301    3.5852   -0.8057 O.2     1  UNL1       -0.2261
      9 N          -1.7208    5.0266   -2.0642 N.am    1  UNL1       -0.2331
     10 C          -2.6143    5.3740   -3.0489 C.ar    1  UNL1        0.1699
     11 C          -2.3468    6.6907   -3.6460 C.ar    1  UNL1        0.1797
     12 C          -3.1817    7.0757   -4.6052 C.ar    1  UNL1        0.0506
     13 N          -4.1916    6.2327   -5.0303 N.ar    1  UNL1       -0.2672
     14 C          -4.4229    4.9915   -4.4173 C.ar    1  UNL1        0.3524
     15 O          -5.3201    4.2456   -4.8036 O.2     1  UNL1       -0.2444
     16 N          -3.5816    4.6050   -3.3992 N.ar    1  UNL1       -0.1747
     17 C          -5.0559    6.5850   -6.1513 C.3     1  UNL1        0.1680
     18 H          -5.3211    5.6706   -6.6962 H       1  UNL1        0.0867
     19 C          -6.3212    7.3633   -5.7621 C.3     1  UNL1        0.1285
     20 H          -6.0971    8.1203   -5.0016 H       1  UNL1        0.0665
     21 C          -6.6612    8.0262   -7.0865 C.3     1  UNL1        0.1111
     22 H          -7.3302    8.8852   -6.9821 H       1  UNL1        0.0646
     23 C          -5.2851    8.3508   -7.6679 C.3     1  UNL1        0.0869
     24 H          -5.2649    8.1890   -8.7509 H       1  UNL1        0.0621
     25 O          -4.3398    7.4352   -7.0772 O.3     1  UNL1       -0.3482
     26 C          -4.8227    9.7656   -7.3565 C.3     1  UNL1       -0.0361
     27 O          -7.3331    7.0560   -7.9105 O.3     1  UNL1       -0.3865
     28 O          -7.4065    6.5694   -5.2984 O.3     1  UNL1       -0.3847
     29 F          -1.3396    7.4388   -3.1647 F       1  UNL1       -0.2003
     30 H           1.7406   -0.4167    1.5299 H       1  UNL1        0.0230
     31 H           2.9900    0.7982    1.8519 H       1  UNL1        0.0230
     32 H           2.2674    0.6805    0.2381 H       1  UNL1        0.0230
     33 H           0.8331    1.5400    2.8064 H       1  UNL1        0.0263
     34 H           1.3655    2.6204    1.5152 H       1  UNL1        0.0263
     35 H          -0.1646    1.4357   -0.0964 H       1  UNL1        0.0266
     36 H          -0.6511    0.3368    1.1884 H       1  UNL1        0.0266
     37 H          -2.3548    1.9883    0.9026 H       1  UNL1        0.0298
     38 H          -1.6340    2.1840    2.4876 H       1  UNL1        0.0298
     39 H          -2.0508    4.3858    1.4724 H       1  UNL1        0.0698
     40 H          -0.3405    4.1450    1.7386 H       1  UNL1        0.0698
     41 H          -0.8979    5.5918   -1.9186 H       1  UNL1        0.1597
     42 H          -3.0778    8.0409   -5.0862 H       1  UNL1        0.0842
     43 H          -3.8878    9.9766   -7.8877 H       1  UNL1        0.0255
     44 H          -5.5668   10.5047   -7.6678 H       1  UNL1        0.0255
     45 H          -4.6119    9.8966   -6.2901 H       1  UNL1        0.0255
     46 H          -7.5635    7.4919   -8.7509 H       1  UNL1        0.2100
     47 H          -7.7121    6.0549   -6.0750 H       1  UNL1        0.2101
@<TRIPOS>BOND
     1     1     2    1
     2     1    30    1
     3     1    31    1
     4     1    32    1
     5     2     3    1
     6     2    33    1
     7     2    34    1
     8     3     4    1
     9     3    35    1
    10     3    36    1
    11     4     5    1
    12     4    37    1
    13     4    38    1
    14     5     6    1
    15     5    39    1
    16     5    40    1
    17     6     7    1
    18     7     8    2
    19     7     9   am
    20     9    10    1
    21     9    41    1
    22    10    16   ar
    23    10    11   ar
    24    11    12   ar
    25    11    29    1
    26    12    13   ar
    27    12    42    1
    28    13    14   ar
    29    13    17    1
    30    14    15    2
    31    14    16   ar
    32    17    18    1
    33    17    25    1
    34    17    19    1
    35    19    21    1
    36    21    22    1
    37    21    23    1
    38    21    27    1
    39    23    25    1
    40    26    43    1
    41    26    44    1
    42    26    45    1
    43    27    46    1
    44    28    47    1
    45    19    28    1
    46    19    20    1
    47    23    26    1
    48    23    24    1
