@<TRIPOS>MOLECULE
ZINC01187543
 13 13 0 0 0
SMALL
GASTEIGER

@<TRIPOS>ATOM
      1 C           0.1784   -2.2091   -0.0292 C.3     1  UNL1        0.0137
      2 N           0.5849   -0.8246    0.0014 N.ar    1  UNL1       -0.3295
      3 C           1.8958   -0.3887    0.0006 C.ar    1  UNL1        0.0225
      4 C           1.9085    0.9508   -0.0009 C.ar    1  UNL1        0.0201
      5 N           0.6145    1.4034   -0.0018 N.ar    1  UNL1       -0.3403
      6 C          -0.2618    0.3051   -0.0036 C.ar    1  UNL1        0.1577
      7 S          -1.9105    0.4048   -0.0146 S.2     1  UNL1       -0.0129
      8 H          -0.4852   -2.4080    0.8174 H       1  UNL1        0.0456
      9 H          -0.3694   -2.3961   -0.9576 H       1  UNL1        0.0456
     10 H           1.0483   -2.8695    0.0238 H       1  UNL1        0.0456
     11 H           2.7319   -1.0714   -0.0015 H       1  UNL1        0.0824
     12 H           2.7514    1.6245   -0.0044 H       1  UNL1        0.0822
     13 H           0.3146    2.3680   -0.0102 H       1  UNL1        0.1673
@<TRIPOS>BOND
     1     1     8    1
     2     1     9    1
     3     1    10    1
     4     1     2    1
     5     2     6   ar
     6     2     3   ar
     7     3    11    1
     8     3     4   ar
     9     4    12    1
    10     4     5   ar
    11     5     6   ar
    12     5    13    1
    13     6     7    2
