@<TRIPOS>MOLECULE
ZINC02007678
 58 59 0 0 0
SMALL
GASTEIGER

@<TRIPOS>ATOM
      1 C           0.4670    0.7076   -0.1052 C.3     1  UNL1       -0.0619
      2 C           0.2882   -0.0128    1.2286 C.3     1  UNL1       -0.0173
      3 C           0.7639    0.8029    2.4557 C.3     1  UNL1        0.1165
      4 H           0.2553    1.7698    2.3725 H       1  UNL1        0.0746
      5 C           0.3850    0.1297    3.8632 C.3     1  UNL1        0.0626
      6 C           1.0163   -1.3389    3.9742 C.3     1  UNL1        0.0071
      7 C           2.5246   -1.6678    3.8953 C.3     1  UNL1       -0.0230
      8 H           2.9324   -1.3543    2.9294 H       1  UNL1        0.0849
      9 C           3.4200   -1.1224    4.9990 C.3     1  UNL1       -0.0216
     10 C           2.3250   -3.9831    5.1475 C.3     1  UNL1       -0.0431
     11 C           2.1874   -3.9248    2.6632 C.3     1  UNL1       -0.0431
     12 C           0.7886    1.0392    5.0752 C.ar    1  UNL1       -0.0332
     13 C           0.9764    0.5158    6.3684 C.ar    1  UNL1       -0.0576
     14 C           1.2542    1.3439    7.4648 C.ar    1  UNL1       -0.0615
     15 C           1.2969    2.7234    7.3189 C.ar    1  UNL1       -0.0617
     16 C           1.0687    3.2780    6.0696 C.ar    1  UNL1       -0.0615
     17 C           0.8252    2.4474    4.9704 C.ar    1  UNL1       -0.0576
     18 C          -1.1976   -0.0118    3.9140 C.ar    1  UNL1       -0.0332
     19 C          -2.0154    1.1333    3.9297 C.ar    1  UNL1       -0.0576
     20 C          -3.4139    1.0430    4.0027 C.ar    1  UNL1       -0.0615
     21 C          -4.0287   -0.1987    4.0302 C.ar    1  UNL1       -0.0617
     22 C          -3.2558   -1.3463    3.9824 C.ar    1  UNL1       -0.0615
     23 C          -1.8615   -1.2599    3.9271 C.ar    1  UNL1       -0.0576
     24 O           2.2074    0.9755    2.3587 O.3     1  UNL1       -0.4603
     25 C           2.6588    2.2532    2.1487 C.2     1  UNL1        0.3042
     26 O           1.9529    3.2430    2.0238 O.2     1  UNL1       -0.2512
     27 C           4.1558    2.2921    2.0794 C.3     1  UNL1        0.0332
     28 H          -0.0846    1.6520   -0.1244 H       1  UNL1        0.0231
     29 H           0.0768    0.0800   -0.9142 H       1  UNL1        0.0231
     30 H           1.5190    0.9102   -0.3182 H       1  UNL1        0.0231
     31 H          -0.7778   -0.2435    1.3218 H       1  UNL1        0.0298
     32 H           0.8344   -0.9595    1.1665 H       1  UNL1        0.0298
     33 H           0.6295   -1.7951    4.8901 H       1  UNL1        0.0333
     34 H           0.5731   -1.9146    3.1544 H       1  UNL1        0.0333
     35 H           3.0933   -1.4466    5.9944 H       1  UNL1        0.0284
     36 H           4.4522   -1.4731    4.8697 H       1  UNL1        0.0284
     37 H           3.4540   -0.0299    4.9814 H       1  UNL1        0.0284
     38 H           1.3291   -3.6724    5.4627 H       1  UNL1        0.0777
     39 H           2.3212   -5.0555    4.9253 H       1  UNL1        0.0777
     40 H           3.0712   -3.7825    5.9196 H       1  UNL1        0.0777
     41 H           2.3872   -3.2960    1.7953 H       1  UNL1        0.0777
     42 H           2.7181   -4.8783    2.5627 H       1  UNL1        0.0777
     43 H           1.1170   -4.1014    2.7971 H       1  UNL1        0.0777
     44 H           0.8818   -0.5443    6.5729 H       1  UNL1        0.0621
     45 H           1.4019    0.9092    8.4511 H       1  UNL1        0.0618
     46 H           1.4742    3.3679    8.1761 H       1  UNL1        0.0618
     47 H           1.0437    4.3597    5.9464 H       1  UNL1        0.0618
     48 H           0.5963    2.9635    4.0415 H       1  UNL1        0.0621
     49 H          -1.5968    2.1350    3.9031 H       1  UNL1        0.0621
     50 H          -4.0138    1.9496    4.0391 H       1  UNL1        0.0618
     51 H          -5.1054   -0.2774    4.0804 H       1  UNL1        0.0618
     52 H          -3.7415   -2.3249    3.9924 H       1  UNL1        0.0618
     53 H          -1.3391   -2.2060    3.8945 H       1  UNL1        0.0621
     54 H           4.5902    1.8499    2.9798 H       1  UNL1        0.0342
     55 H           4.4997    1.7717    1.1834 H       1  UNL1        0.0342
     56 H           4.4837    3.3352    2.0237 H       1  UNL1        0.0342
     57 N           2.7260   -3.2354    3.8931 N.4     1  UNL1        0.2329
     58 H           3.7447   -3.3650    3.8247 H       1  UNL1        0.2030
@<TRIPOS>UNITY_ATOM_ATTR
57 1
charge 1
@<TRIPOS>BOND
     1     1     2    1
     2     1    28    1
     3     1    29    1
     4     1    30    1
     5     2     3    1
     6     2    31    1
     7     2    32    1
     8     3     4    1
     9     3     5    1
    10     3    24    1
    11     5     6    1
    12     5    12    1
    13     5    18    1
    14     6     7    1
    15     6    33    1
    16     6    34    1
    17     7     8    1
    18     7     9    1
    19     7    57    1
    20     9    35    1
    21     9    36    1
    22     9    37    1
    23    10    38    1
    24    10    39    1
    25    10    40    1
    26    10    57    1
    27    11    41    1
    28    11    42    1
    29    11    43    1
    30    11    57    1
    31    12    17   ar
    32    12    13   ar
    33    13    14   ar
    34    13    44    1
    35    14    15   ar
    36    14    45    1
    37    15    16   ar
    38    15    46    1
    39    16    17   ar
    40    16    47    1
    41    17    48    1
    42    18    23   ar
    43    18    19   ar
    44    19    20   ar
    45    19    49    1
    46    20    21   ar
    47    20    50    1
    48    21    22   ar
    49    21    51    1
    50    22    23   ar
    51    22    52    1
    52    23    53    1
    53    24    25    1
    54    25    26    2
    55    25    27    1
    56    27    54    1
    57    27    55    1
    58    27    56    1
    59    57    58    1
