@<TRIPOS>MOLECULE
ZINC01530935
 47 49 0 0 0
SMALL
GASTEIGER

@<TRIPOS>ATOM
      1 C           5.5459    3.2158   -1.4807 C.3     1  UNL1       -0.0348
      2 C           6.5108    2.2216   -0.8854 C.2     1  UNL1        0.0085
      3 C           7.8771    2.7301   -0.6041 C.2     1  UNL1        0.1228
      4 C           8.8592    1.8601   -0.2904 C.2     1  UNL1       -0.0199
      5 C           8.5795    0.4476   -0.2653 C.3     1  UNL1        0.0643
      6 N           7.2882    0.0222   -0.4148 N.pl3   1  UNL1       -0.3376
      7 C           6.2390    0.8911   -0.7184 C.2     1  UNL1        0.0236
      8 C           4.8636    0.3134   -1.0039 C.3     1  UNL1        0.0690
      9 S           4.3441   -1.2114   -0.1558 S.O     1  UNL1        0.0951
     10 O           2.9673   -1.5532   -0.6596 O.2     1  UNL1       -0.2488
     11 C           4.0946   -0.6186    1.4579 C.ar    1  UNL1        0.1981
     12 N           2.8620   -0.5492    2.0607 N.ar    1  UNL1       -0.3310
     13 H           1.9904   -0.7697    1.6021 H       1  UNL1        0.1679
     14 C           3.0448   -0.2273    3.3815 C.ar    1  UNL1        0.0669
     15 C           2.1634   -0.0480    4.4515 C.ar    1  UNL1       -0.0362
     16 C           2.7382    0.2237    5.7024 C.ar    1  UNL1       -0.0597
     17 C           4.1223    0.3120    5.8626 C.ar    1  UNL1       -0.0596
     18 C           4.9812    0.1463    4.7696 C.ar    1  UNL1       -0.0342
     19 C           4.4265   -0.1166    3.5080 C.ar    1  UNL1        0.0900
     20 N           5.0562   -0.3264    2.3043 N.ar    1  UNL1       -0.2200
     21 O           8.0167    4.1013   -0.7099 O.2     1  UNL1       -0.4918
     22 C           9.3398    4.6346   -0.8820 C.3     1  UNL1        0.0917
     23 C           9.2086    6.1352   -1.1545 C.3     1  UNL1        0.0049
     24 C          10.5348    6.8548   -1.3850 C.3     1  UNL1        0.0504
     25 O          11.3023    6.1938   -2.3868 O.3     1  UNL1       -0.3829
     26 C          12.4382    6.9560   -2.7843 C.3     1  UNL1        0.0364
     27 H           5.8030    3.3675   -2.5370 H       1  UNL1        0.0279
     28 H           5.5785    4.1840   -0.9736 H       1  UNL1        0.0279
     29 H           4.5041    2.8935   -1.4510 H       1  UNL1        0.0279
     30 H           9.8699    2.1681   -0.0611 H       1  UNL1        0.0627
     31 H           9.3634   -0.2996   -0.2830 H       1  UNL1        0.0564
     32 H           4.0619    1.0326   -0.8096 H       1  UNL1        0.0467
     33 H           4.8307    0.0623   -2.0729 H       1  UNL1        0.0467
     34 H           1.0882   -0.1292    4.3384 H       1  UNL1        0.0639
     35 H           2.0932    0.3644    6.5683 H       1  UNL1        0.0618
     36 H           4.5454    0.5104    6.8445 H       1  UNL1        0.0618
     37 H           6.0571    0.2067    4.8827 H       1  UNL1        0.0639
     38 H           9.9327    4.4739    0.0257 H       1  UNL1        0.0697
     39 H           9.8187    4.1399   -1.7347 H       1  UNL1        0.0697
     40 H           8.5670    6.2689   -2.0342 H       1  UNL1        0.0320
     41 H           8.6793    6.6142   -0.3213 H       1  UNL1        0.0320
     42 H          10.3326    7.8951   -1.6933 H       1  UNL1        0.0561
     43 H          11.1164    6.8787   -0.4576 H       1  UNL1        0.0561
     44 H          12.8089    7.6001   -1.9796 H       1  UNL1        0.0523
     45 H          13.2360    6.2645   -3.0711 H       1  UNL1        0.0523
     46 H          12.1804    7.5669   -3.6546 H       1  UNL1        0.0523
     47 H           7.1503   -0.9710   -0.5677 H       1  UNL1        0.1465
@<TRIPOS>BOND
     1     1     2    1
     2     1    27    1
     3     1    28    1
     4     1    29    1
     5     2     7    2
     6     2     3    1
     7     3     4    2
     8     3    21    1
     9     4     5    1
    10     4    30    1
    11     5     6    1
    12     5    31    1
    13     6     7    1
    14     6    47    1
    15     7     8    1
    16     8    32    1
    17     8    33    1
    18     9    11    1
    19    11    20   ar
    20    11    12   ar
    21    12    13    1
    22    12    14   ar
    23    14    19   ar
    24    14    15   ar
    25    15    16   ar
    26    15    34    1
    27    16    17   ar
    28    16    35    1
    29    17    18   ar
    30    17    36    1
    31    18    19   ar
    32    18    37    1
    33    19    20   ar
    34    21    22    1
    35    22    23    1
    36    22    38    1
    37    22    39    1
    38    23    24    1
    39    23    40    1
    40    23    41    1
    41    24    25    1
    42    24    42    1
    43    24    43    1
    44    25    26    1
    45    26    44    1
    46    26    45    1
    47    26    46    1
    48     9    10    2
    49     9     8    1
