@<TRIPOS>MOLECULE
ZINC00113355
 26 26 0 0 0
SMALL
GASTEIGER

@<TRIPOS>ATOM
      1 C           1.0064    2.1115   -0.5364 C.3     1  UNL1       -0.0448
      2 N           0.5610    0.7550   -0.9321 N.4     1  UNL1        0.2269
      3 C           1.0193    0.3112   -2.2996 C.3     1  UNL1       -0.0030
      4 C           0.5446   -1.1381   -2.5302 C.3     1  UNL1        0.1198
      5 H          -0.5512   -1.1558   -2.4923 H       1  UNL1        0.0698
      6 C           1.0173   -1.7144   -3.8398 C.ar    1  UNL1       -0.0106
      7 C           2.3816   -1.8523   -4.1395 C.ar    1  UNL1       -0.0557
      8 C           2.7896   -2.3553   -5.3796 C.ar    1  UNL1       -0.0580
      9 C           1.8453   -2.7361   -6.3312 C.ar    1  UNL1       -0.0202
     10 C           0.4952   -2.6188   -6.0286 C.ar    1  UNL1        0.1172
     11 C           0.0765   -2.1148   -4.8009 C.ar    1  UNL1       -0.0144
     12 O          -0.4717   -2.9810   -6.9175 O.3     1  UNL1       -0.5068
     13 O           0.9917   -1.9260   -1.4207 O.3     1  UNL1       -0.3819
     14 H           2.0858    2.0862   -0.3729 H       1  UNL1        0.0777
     15 H           0.4823    2.3750    0.3850 H       1  UNL1        0.0777
     16 H           0.7424    2.8087   -1.3357 H       1  UNL1        0.0777
     17 H           0.9099    0.0429   -0.2658 H       1  UNL1        0.2012
     18 H           0.6057    1.0056   -3.0373 H       1  UNL1        0.0843
     19 H           2.1125    0.3817   -2.2837 H       1  UNL1        0.0843
     20 H           3.1473   -1.5787   -3.4164 H       1  UNL1        0.0621
     21 H           3.8497   -2.4508   -5.6071 H       1  UNL1        0.0619
     22 H           2.1778   -3.1243   -7.2905 H       1  UNL1        0.0654
     23 H          -0.9921   -2.0433   -4.6137 H       1  UNL1        0.0658
     24 H          -0.0509   -3.3505   -7.7128 H       1  UNL1        0.2921
     25 H           0.9770   -2.8611   -1.7117 H       1  UNL1        0.2105
     26 H          -0.4627    0.6913   -0.8746 H       1  UNL1        0.2012
@<TRIPOS>UNITY_ATOM_ATTR
2 1
charge 1
@<TRIPOS>BOND
     1     1     2    1
     2     1    14    1
     3     1    15    1
     4     1    16    1
     5     2     3    1
     6     2    17    1
     7     2    26    1
     8     3     4    1
     9     3    18    1
    10     3    19    1
    11     4     5    1
    12     4     6    1
    13     4    13    1
    14     6    11   ar
    15     6     7   ar
    16     7     8   ar
    17     7    20    1
    18     8     9   ar
    19     8    21    1
    20     9    10   ar
    21     9    22    1
    22    10    11   ar
    23    10    12    1
    24    11    23    1
    25    12    24    1
    26    13    25    1
