@<TRIPOS>MOLECULE
ZINC00601281
 63 65 0 0 0
SMALL
GASTEIGER

@<TRIPOS>ATOM
      1 C           2.1888   -2.2621   -0.8280 C.3     1  UNL1       -0.0570
      2 C           2.4096   -1.1971   -1.9033 C.3     1  UNL1        0.0217
      3 C           2.1540    0.2337   -1.4435 C.2     1  UNL1        0.2201
      4 O           1.5775    0.3696   -0.3584 O.2     1  UNL1       -0.2752
      5 N           2.4592    1.3488   -2.2896 N.am    1  UNL1       -0.2627
      6 C           2.5935    2.6584   -1.5504 C.ar    1  UNL1        0.0370
      7 C           2.3163    3.9251   -2.0899 C.ar    1  UNL1       -0.0402
      8 C           2.3656    5.1208   -1.3512 C.ar    1  UNL1       -0.0600
      9 C           2.6797    5.0997   -0.0086 C.ar    1  UNL1       -0.0616
     10 C           2.9736    3.8797    0.5780 C.ar    1  UNL1       -0.0600
     11 C           2.9527    2.6924   -0.1841 C.ar    1  UNL1       -0.0402
     12 C           2.8962    1.2606   -3.7987 C.3     1  UNL1        0.0750
     13 C           2.4269    2.4303   -4.7025 C.3     1  UNL1        0.0117
     14 C           0.9089    2.5762   -4.6660 C.3     1  UNL1       -0.0298
     15 C           0.7756    0.0577   -4.6693 C.3     1  UNL1       -0.0298
     16 C           2.2965    0.0601   -4.6048 C.3     1  UNL1        0.0117
     17 C          -1.2908    1.3887   -4.9813 C.3     1  UNL1       -0.0116
     18 C          -2.0026    2.5439   -5.6896 C.3     1  UNL1        0.0883
     19 N          -1.8859    2.4614   -7.1180 N.ar    1  UNL1       -0.1884
     20 C          -0.9286    3.0369   -7.9298 C.ar    1  UNL1        0.3643
     21 O           0.0669    3.6415   -7.5673 O.2     1  UNL1       -0.2432
     22 N          -1.3463    2.6949   -9.1900 N.ar    1  UNL1       -0.1938
     23 N          -2.4559    1.8998   -9.1054 N.ar    1  UNL1       -0.0428
     24 N          -2.7755    1.7665   -7.8840 N.ar    1  UNL1       -0.0426
     25 C          -0.7405    3.0530  -10.4507 C.3     1  UNL1        0.0456
     26 C           0.2894    2.0312  -10.8960 C.3     1  UNL1       -0.0453
     27 C           4.4520    1.1279   -3.9162 C.3     1  UNL1        0.0694
     28 O           5.1289    2.2968   -3.4640 O.3     1  UNL1       -0.3808
     29 C           6.5281    2.2318   -3.7433 C.3     1  UNL1        0.0365
     30 H           2.5306   -1.9511    0.1599 H       1  UNL1        0.0234
     31 H           2.7024   -3.1881   -1.1072 H       1  UNL1        0.0234
     32 H           1.1188   -2.5041   -0.7551 H       1  UNL1        0.0234
     33 H           3.4297   -1.2863   -2.2798 H       1  UNL1        0.0356
     34 H           1.6803   -1.4462   -2.6723 H       1  UNL1        0.0356
     35 H           1.9682    4.1056   -3.0850 H       1  UNL1        0.0636
     36 H           2.1270    6.0648   -1.8376 H       1  UNL1        0.0618
     37 H           2.6883    6.0194    0.5700 H       1  UNL1        0.0618
     38 H           3.2116    3.8414    1.6384 H       1  UNL1        0.0618
     39 H           3.2294    1.7892    0.3556 H       1  UNL1        0.0636
     40 H           2.9547    3.3604   -4.4851 H       1  UNL1        0.0339
     41 H           2.7252    2.2466   -5.7462 H       1  UNL1        0.0339
     42 H           0.5035    2.7180   -3.6623 H       1  UNL1        0.0815
     43 H           0.6156    3.4287   -5.2789 H       1  UNL1        0.0815
     44 H           0.4344   -0.7349   -5.3451 H       1  UNL1        0.0815
     45 H           0.3220   -0.0966   -3.6870 H       1  UNL1        0.0815
     46 H           2.6647    0.1024   -5.6421 H       1  UNL1        0.0339
     47 H           2.6856   -0.9029   -4.2767 H       1  UNL1        0.0339
     48 H          -1.6862    0.4298   -5.3339 H       1  UNL1        0.0833
     49 H          -1.4430    1.4546   -3.8959 H       1  UNL1        0.0833
     50 H          -3.0669    2.5275   -5.4336 H       1  UNL1        0.0564
     51 H          -1.6062    3.5095   -5.3590 H       1  UNL1        0.0564
     52 H          -1.5377    3.1498  -11.1998 H       1  UNL1        0.0508
     53 H          -0.2637    4.0277  -10.3319 H       1  UNL1        0.0508
     54 H          -0.1607    1.0392  -11.0195 H       1  UNL1        0.0247
     55 H           0.7358    2.3380  -11.8455 H       1  UNL1        0.0247
     56 H           1.0881    1.9349  -10.1526 H       1  UNL1        0.0247
     57 H           4.8091    0.2646   -3.3453 H       1  UNL1        0.0581
     58 H           4.7210    0.9721   -4.9700 H       1  UNL1        0.0581
     59 H           6.9511    1.2721   -3.4280 H       1  UNL1        0.0523
     60 H           6.6986    2.3760   -4.8154 H       1  UNL1        0.0523
     61 H           7.0350    3.0334   -3.1998 H       1  UNL1        0.0523
     62 N           0.2259    1.3503   -5.2198 N.4     1  UNL1        0.2366
     63 H           0.3797    1.3604   -6.2397 H       1  UNL1        0.2034
@<TRIPOS>UNITY_ATOM_ATTR
62 1
charge 1
@<TRIPOS>BOND
     1     1     2    1
     2     1    30    1
     3     1    31    1
     4     1    32    1
     5     2     3    1
     6     2    33    1
     7     2    34    1
     8     3     4    2
     9     3     5   am
    10     5     6    1
    11     6    11   ar
    12     6     7   ar
    13     7     8   ar
    14     7    35    1
    15     8     9   ar
    16     8    36    1
    17     9    10   ar
    18     9    37    1
    19    10    11   ar
    20    10    38    1
    21    11    39    1
    22    12     5    1
    23    12    16    1
    24    12    13    1
    25    12    27    1
    26    13    14    1
    27    13    40    1
    28    13    41    1
    29    14    42    1
    30    14    43    1
    31    14    62    1
    32    15    16    1
    33    15    44    1
    34    15    45    1
    35    15    62    1
    36    16    46    1
    37    16    47    1
    38    17    18    1
    39    17    48    1
    40    17    49    1
    41    18    19    1
    42    18    50    1
    43    18    51    1
    44    19    24   ar
    45    19    20   ar
    46    20    21    2
    47    20    22   ar
    48    22    23   ar
    49    22    25    1
    50    23    24   ar
    51    25    26    1
    52    25    52    1
    53    25    53    1
    54    26    54    1
    55    26    55    1
    56    26    56    1
    57    27    28    1
    58    27    57    1
    59    27    58    1
    60    28    29    1
    61    29    59    1
    62    29    60    1
    63    29    61    1
    64    62    63    1
    65    62    17    1
