@<TRIPOS>MOLECULE
ZINC03830709
 58 58 0 0 0
SMALL
GASTEIGER

@<TRIPOS>ATOM
      1 C          -0.2865   -4.0629    3.2282 C.3     1  UNL1       -0.0653
      2 C          -0.9528   -2.7063    3.0544 C.3     1  UNL1       -0.0559
      3 C          -0.6812   -2.1283    1.6647 C.3     1  UNL1       -0.0532
      4 C          -1.3548   -0.7767    1.4133 C.3     1  UNL1       -0.0504
      5 C          -0.9128    0.3451    2.3622 C.3     1  UNL1       -0.0232
      6 C          -1.5921    1.6885    2.0446 C.3     1  UNL1        0.0734
      7 H          -1.3506    1.9877    1.0201 H       1  UNL1        0.0637
      8 C          -3.0934    1.5969    2.1805 C.2     1  UNL1       -0.0595
      9 C          -3.7907    1.7902    3.3109 C.2     1  UNL1       -0.0796
     10 C          -5.2936    1.7756    3.4109 C.3     1  UNL1        0.0087
     11 H          -5.7106    1.5465    2.4193 H       1  UNL1        0.0372
     12 C          -5.7961    0.7214    4.4130 C.3     1  UNL1        0.0641
     13 H          -5.2029    0.7125    5.3349 H       1  UNL1        0.0600
     14 C          -7.2030    1.1909    4.6915 C.3     1  UNL1        0.0001
     15 C          -7.0478    2.6911    4.8726 C.3     1  UNL1        0.0613
     16 H          -6.7481    2.9004    5.9076 H       1  UNL1        0.0597
     17 C          -5.9004    3.1197    3.9301 C.3     1  UNL1       -0.0029
     18 H          -5.1574    3.6072    4.5700 H       1  UNL1        0.0335
     19 C          -6.2094    4.0934    2.7727 C.3     1  UNL1       -0.0290
     20 C          -6.7341    5.4515    3.1920 C.2     1  UNL1       -0.0876
     21 C          -6.1581    6.6458    3.0035 C.2     1  UNL1       -0.0879
     22 C          -4.8990    6.9253    2.2573 C.3     1  UNL1       -0.0343
     23 C          -3.8293    7.5623    3.1429 C.3     1  UNL1       -0.0394
     24 C          -3.3825    6.6812    4.3018 C.3     1  UNL1        0.0495
     25 C          -2.7691    5.3469    3.8959 C.2     1  UNL1        0.3560
     26 O          -2.2324    5.2558    2.7613 O.co2   1  UNL1       -0.2464
     27 O          -2.8714    4.4494    4.7898 O.co2   1  UNL1       -0.2464
     28 O          -8.3127    3.2817    4.6461 O.3     1  UNL1       -0.3914
     29 O          -5.8418   -0.6019    3.8896 O.3     1  UNL1       -0.3911
     30 O          -1.0345    2.6770    2.8908 O.3     1  UNL1       -0.3878
     31 H          -0.6751   -4.7901    2.5082 H       1  UNL1        0.0230
     32 H          -0.4700   -4.4493    4.2355 H       1  UNL1        0.0230
     33 H           0.7965   -3.9844    3.0879 H       1  UNL1        0.0230
     34 H          -2.0325   -2.8078    3.2170 H       1  UNL1        0.0263
     35 H          -0.5676   -2.0345    3.8278 H       1  UNL1        0.0263
     36 H           0.3987   -2.0357    1.5051 H       1  UNL1        0.0265
     37 H          -1.0520   -2.8336    0.9088 H       1  UNL1        0.0265
     38 H          -1.1349   -0.4696    0.3831 H       1  UNL1        0.0266
     39 H          -2.4395   -0.9152    1.4762 H       1  UNL1        0.0266
     40 H          -1.1328    0.0736    3.4032 H       1  UNL1        0.0293
     41 H           0.1769    0.4674    2.3182 H       1  UNL1        0.0293
     42 H          -3.6200    1.3613    1.2611 H       1  UNL1        0.0594
     43 H          -3.2407    2.0203    4.2269 H       1  UNL1        0.0573
     44 H          -7.6468    0.7172    5.5726 H       1  UNL1        0.0315
     45 H          -7.8795    0.9678    3.8560 H       1  UNL1        0.0315
     46 H          -5.2985    4.1959    2.1833 H       1  UNL1        0.0311
     47 H          -6.9540    3.6402    2.0952 H       1  UNL1        0.0311
     48 H          -7.6770    5.4979    3.7045 H       1  UNL1        0.0569
     49 H          -6.6571    7.5185    3.4352 H       1  UNL1        0.0569
     50 H          -4.5045    6.0334    1.7677 H       1  UNL1        0.0307
     51 H          -5.1371    7.6227    1.4450 H       1  UNL1        0.0307
     52 H          -2.9662    7.8112    2.5212 H       1  UNL1        0.0273
     53 H          -4.2116    8.5089    3.5483 H       1  UNL1        0.0273
     54 H          -2.6247    7.2175    4.8876 H       1  UNL1        0.0379
     55 H          -4.2230    6.4979    4.9834 H       1  UNL1        0.0379
     56 H          -8.2106    4.2212    4.8579 H       1  UNL1        0.2098
     57 H          -5.6156   -0.5515    2.9454 H       1  UNL1        0.2098
     58 H          -1.5688    3.5112    2.7927 H       1  UNL1        0.2102
@<TRIPOS>BOND
     1     1     2    1
     2     1    31    1
     3     1    32    1
     4     1    33    1
     5     2     3    1
     6     2    34    1
     7     2    35    1
     8     3     4    1
     9     3    36    1
    10     3    37    1
    11     4     5    1
    12     4    38    1
    13     4    39    1
    14     5     6    1
    15     5    40    1
    16     5    41    1
    17     6     7    1
    18     6     8    1
    19     6    30    1
    20     8     9    2
    21     8    42    1
    22     9    10    1
    23     9    43    1
    24    10    11    1
    25    10    17    1
    26    10    12    1
    27    12    14    1
    28    14    15    1
    29    14    44    1
    30    14    45    1
    31    15    16    1
    32    15    17    1
    33    15    28    1
    34    17    18    1
    35    17    19    1
    36    19    20    1
    37    19    46    1
    38    19    47    1
    39    20    21    2
    40    20    48    1
    41    21    22    1
    42    21    49    1
    43    22    23    1
    44    22    50    1
    45    22    51    1
    46    23    24    1
    47    23    52    1
    48    23    53    1
    49    24    25    1
    50    24    54    1
    51    24    55    1
    52    25    26   ar
    53    25    27   ar
    54    28    56    1
    55    29    57    1
    56    30    58    1
    57    12    29    1
    58    12    13    1
