@<TRIPOS>MOLECULE
ZINC03812958
 43 46 0 0 0
SMALL
GASTEIGER

@<TRIPOS>ATOM
      1 C          -8.5930    9.8922   -0.3308 C.ar    1  UNL1       -0.0617
      2 C          -7.3751    9.3989   -0.7837 C.ar    1  UNL1       -0.0612
      3 C          -7.1345    8.0207   -0.7884 C.ar    1  UNL1       -0.0540
      4 C          -8.0966    7.1049   -0.3240 C.ar    1  UNL1       -0.0179
      5 C          -9.3207    7.6362    0.1259 C.ar    1  UNL1       -0.0540
      6 C          -9.5704    9.0123    0.1172 C.ar    1  UNL1       -0.0612
      7 C          -7.8426    5.6450   -0.3143 C.ar    1  UNL1       -0.0179
      8 C          -8.8892    4.7258   -0.4908 C.ar    1  UNL1       -0.0537
      9 C          -8.6610    3.3498   -0.4989 C.ar    1  UNL1       -0.0559
     10 C          -7.3573    2.8391   -0.4054 C.ar    1  UNL1       -0.0223
     11 C          -6.3056    3.7394   -0.1973 C.ar    1  UNL1       -0.0559
     12 C          -6.5513    5.1165   -0.1394 C.ar    1  UNL1       -0.0537
     13 C          -7.0742    1.3560   -0.5910 C.3     1  UNL1        0.0789
     14 H          -5.9977    1.1789   -0.4398 H       1  UNL1        0.0604
     15 C          -7.4184    0.7734   -1.9611 C.ar    1  UNL1       -0.0224
     16 C          -7.1758   -0.5882   -2.2237 C.ar    1  UNL1       -0.0565
     17 C          -7.4466   -1.1358   -3.4830 C.ar    1  UNL1       -0.0614
     18 C          -7.9639   -0.3404   -4.5016 C.ar    1  UNL1       -0.0617
     19 C          -8.1981    1.0092   -4.2706 C.ar    1  UNL1       -0.0614
     20 C          -7.9123    1.5597   -3.0210 C.ar    1  UNL1       -0.0565
     21 N          -7.7732    0.6442    0.5049 N.pl3   1  UNL1       -0.2862
     22 C          -7.3191    0.5770    1.8221 C.2     1  UNL1        0.0144
     23 C          -8.2937   -0.0512    2.5463 C.2     1  UNL1        0.0167
     24 N          -9.2937   -0.3561    1.6579 N.2     1  UNL1       -0.3541
     25 C          -8.9839    0.0696    0.4284 C.2     1  UNL1        0.0647
     26 H          -8.7826   10.9618   -0.3282 H       1  UNL1        0.0618
     27 H          -6.6098   10.0848   -1.1363 H       1  UNL1        0.0618
     28 H          -6.1780    7.6768   -1.1769 H       1  UNL1        0.0624
     29 H         -10.1054    6.9857    0.5039 H       1  UNL1        0.0624
     30 H         -10.5281    9.3896    0.4657 H       1  UNL1        0.0618
     31 H          -9.9056    5.0736   -0.6674 H       1  UNL1        0.0624
     32 H          -9.5110    2.6928   -0.6660 H       1  UNL1        0.0621
     33 H          -5.2773    3.3939   -0.1041 H       1  UNL1        0.0621
     34 H          -5.7048    5.7802    0.0312 H       1  UNL1        0.0624
     35 H          -6.7490   -1.2350   -1.4588 H       1  UNL1        0.0621
     36 H          -7.2359   -2.1848   -3.6815 H       1  UNL1        0.0618
     37 H          -8.1628   -0.7617   -5.4844 H       1  UNL1        0.0618
     38 H          -8.5827    1.6434   -5.0674 H       1  UNL1        0.0618
     39 H          -8.0709    2.6317   -2.9194 H       1  UNL1        0.0621
     40 H          -6.3691    1.0133    2.0768 H       1  UNL1        0.0799
     41 H          -8.4130   -0.3110    3.5838 H       1  UNL1        0.0820
     42 H          -9.6128   -0.0224   -0.4507 H       1  UNL1        0.0982
     43 H         -10.1688   -0.8205    1.8960 H       1  UNL1        0.1660
@<TRIPOS>BOND
     1     1     6   ar
     2     1     2   ar
     3     1    26    1
     4     2     3   ar
     5     2    27    1
     6     3     4   ar
     7     3    28    1
     8     4     5   ar
     9     4     7    1
    10     5     6   ar
    11     5    29    1
    12     6    30    1
    13     7    12   ar
    14     7     8   ar
    15     8     9   ar
    16     8    31    1
    17     9    10   ar
    18     9    32    1
    19    10    11   ar
    20    11    12   ar
    21    11    33    1
    22    12    34    1
    23    13    15    1
    24    13    21    1
    25    15    20   ar
    26    15    16   ar
    27    16    17   ar
    28    16    35    1
    29    17    18   ar
    30    17    36    1
    31    18    19   ar
    32    18    37    1
    33    19    20   ar
    34    19    38    1
    35    20    39    1
    36    21    25    1
    37    21    22    1
    38    22    23    2
    39    22    40    1
    40    23    24    1
    41    23    41    1
    42    24    25    2
    43    24    43    1
    44    25    42    1
    45    13    14    1
    46    13    10    1
