@<TRIPOS>MOLECULE
ZINC00057341
 32 32 0 0 0
SMALL
GASTEIGER

@<TRIPOS>ATOM
      1 C           3.2694   -2.1924    1.8232 C.3     1  UNL1        0.0790
      2 O           2.4671   -1.2235    1.1389 O.3     1  UNL1       -0.4915
      3 C           2.0089   -0.2138    1.9435 C.ar    1  UNL1        0.1615
      4 C           2.9071    0.4405    2.8052 C.ar    1  UNL1       -0.0163
      5 C           2.4553    1.3812    3.7260 C.ar    1  UNL1       -0.0581
      6 C           1.1034    1.6981    3.7708 C.ar    1  UNL1       -0.0581
      7 C           0.2204    1.1179    2.8545 C.ar    1  UNL1       -0.0163
      8 C           0.6613    0.1819    1.9059 C.ar    1  UNL1        0.1620
      9 O          -0.3409   -0.2438    1.0643 O.3     1  UNL1       -0.4856
     10 C           0.0350   -1.0005   -0.0926 C.3     1  UNL1        0.1188
     11 C          -1.1990   -1.3085   -0.9610 C.3     1  UNL1        0.1231
     12 H          -0.8977   -2.0037   -1.7512 H       1  UNL1        0.0662
     13 C          -1.8528   -0.0694   -1.5903 C.3     1  UNL1        0.1231
     14 O          -2.8909   -0.4646   -2.5230 O.3     1  UNL1       -0.4478
     15 C          -2.4556   -0.8916   -3.7324 C.2     1  UNL1        0.3977
     16 O          -1.2985   -0.9181   -4.1122 O.2     1  UNL1       -0.2267
     17 N          -3.4985   -1.3233   -4.4784 N.am    1  UNL1       -0.2950
     18 O          -2.1751   -2.0077   -0.1672 O.3     1  UNL1       -0.3850
     19 H           2.8478   -3.1838    1.6331 H       1  UNL1        0.0660
     20 H           3.3141   -2.0631    2.9117 H       1  UNL1        0.0660
     21 H           4.2834   -2.1605    1.4139 H       1  UNL1        0.0660
     22 H           3.9684    0.2071    2.7737 H       1  UNL1        0.0655
     23 H           3.1553    1.8522    4.4111 H       1  UNL1        0.0619
     24 H           0.7368    2.4076    4.5082 H       1  UNL1        0.0619
     25 H          -0.8294    1.4006    2.8829 H       1  UNL1        0.0655
     26 H           0.7775   -0.4552   -0.6864 H       1  UNL1        0.0724
     27 H           0.4295   -1.9662    0.2405 H       1  UNL1        0.0724
     28 H          -2.3541    0.5336   -0.8254 H       1  UNL1        0.0725
     29 H          -1.1245    0.5724   -2.0990 H       1  UNL1        0.0725
     30 H          -4.4021   -1.4199   -4.0453 H       1  UNL1        0.1482
     31 H          -3.3021   -1.7893   -5.3534 H       1  UNL1        0.1482
     32 H          -2.2714   -1.4956    0.6575 H       1  UNL1        0.2101
@<TRIPOS>BOND
     1     1     2    1
     2     1    19    1
     3     1    20    1
     4     1    21    1
     5     2     3    1
     6     3     8   ar
     7     3     4   ar
     8     4     5   ar
     9     4    22    1
    10     5     6   ar
    11     5    23    1
    12     6     7   ar
    13     6    24    1
    14     7     8   ar
    15     7    25    1
    16     8     9    1
    17     9    10    1
    18    10    26    1
    19    10    27    1
    20    11    13    1
    21    11    18    1
    22    13    14    1
    23    13    28    1
    24    13    29    1
    25    14    15    1
    26    15    16    2
    27    15    17   am
    28    17    30    1
    29    17    31    1
    30    18    32    1
    31    11    12    1
    32    11    10    1
