@<TRIPOS>MOLECULE
ZINC02525885
 45 46 0 0 0
SMALL
GASTEIGER

@<TRIPOS>ATOM
      1 C           4.8546    0.7017    0.1363 C.3     1  UNL1       -0.0433
      2 C           4.3943   -0.8271   -1.7417 C.3     1  UNL1       -0.0433
      3 C           2.5921    0.8059   -1.0735 C.3     1  UNL1       -0.0228
      4 C           2.2691    2.2872   -0.7220 C.3     1  UNL1        0.0529
      5 H           2.7135    2.4789    0.2597 H       1  UNL1        0.0429
      6 C           2.9628    3.2129   -1.7335 C.ar    1  UNL1       -0.0363
      7 C           3.8879    4.1754   -1.2939 C.ar    1  UNL1       -0.0546
      8 C           4.5619    4.9885   -2.2114 C.ar    1  UNL1       -0.0199
      9 C           4.3183    4.8336   -3.5718 C.ar    1  UNL1        0.1169
     10 C           3.3910    3.9097   -4.0284 C.ar    1  UNL1       -0.0199
     11 C           2.7118    3.1069   -3.1132 C.ar    1  UNL1       -0.0546
     12 O           4.9717    5.5778   -4.5112 O.3     1  UNL1       -0.5068
     13 C           0.7208    2.5819   -0.5887 C.3     1  UNL1        0.0777
     14 C          -0.0216    1.6718    0.4146 C.3     1  UNL1       -0.0232
     15 C           0.4000    1.8937    1.8614 C.3     1  UNL1       -0.0504
     16 C           0.2494    3.3557    2.2760 C.3     1  UNL1       -0.0529
     17 C           0.8795    4.3283    1.2815 C.3     1  UNL1       -0.0504
     18 C           0.4448    4.0455   -0.1595 C.3     1  UNL1       -0.0232
     19 O           0.1096    2.3180   -1.8572 O.3     1  UNL1       -0.3878
     20 H           4.4902   -0.0399    0.8516 H       1  UNL1        0.0777
     21 H           5.9195    0.5522   -0.0676 H       1  UNL1        0.0777
     22 H           4.7050    1.7157    0.5078 H       1  UNL1        0.0777
     23 H           3.9847   -1.5888   -1.0711 H       1  UNL1        0.0777
     24 H           3.9345   -0.8816   -2.7297 H       1  UNL1        0.0777
     25 H           5.4798   -0.9372   -1.8323 H       1  UNL1        0.0777
     26 H           2.1859    0.5349   -2.0543 H       1  UNL1        0.0821
     27 H           2.2007    0.1091   -0.3273 H       1  UNL1        0.0821
     28 H           4.0854    4.3222   -0.2352 H       1  UNL1        0.0622
     29 H           5.2711    5.7304   -1.8548 H       1  UNL1        0.0654
     30 H           3.1849    3.8246   -5.0931 H       1  UNL1        0.0654
     31 H           1.9677    2.4133   -3.5021 H       1  UNL1        0.0622
     32 H           5.5491    6.2209   -4.0701 H       1  UNL1        0.2921
     33 H          -1.1019    1.8721    0.3350 H       1  UNL1        0.0293
     34 H           0.0765    0.6164    0.1405 H       1  UNL1        0.0293
     35 H           1.4366    1.5697    2.0014 H       1  UNL1        0.0266
     36 H          -0.2144    1.2671    2.5197 H       1  UNL1        0.0266
     37 H           0.6980    3.4989    3.2667 H       1  UNL1        0.0265
     38 H          -0.8155    3.5906    2.3814 H       1  UNL1        0.0265
     39 H           1.9702    4.2777    1.3665 H       1  UNL1        0.0266
     40 H           0.5979    5.3517    1.5552 H       1  UNL1        0.0266
     41 H           0.9222    4.7571   -0.8416 H       1  UNL1        0.0293
     42 H          -0.6302    4.2549   -0.2492 H       1  UNL1        0.0293
     43 H          -0.7767    2.7283   -1.8661 H       1  UNL1        0.2102
     44 N           4.1072    0.5306   -1.1556 N.4     1  UNL1        0.2314
     45 H           4.4899    1.2189   -1.8228 H       1  UNL1        0.2028
@<TRIPOS>UNITY_ATOM_ATTR
44 1
charge 1
@<TRIPOS>BOND
     1     1    20    1
     2     1    21    1
     3     1    22    1
     4     1    44    1
     5     2    23    1
     6     2    24    1
     7     2    25    1
     8     2    44    1
     9     3     4    1
    10     3    26    1
    11     3    27    1
    12     3    44    1
    13     4     5    1
    14     4     6    1
    15     4    13    1
    16     6    11   ar
    17     6     7   ar
    18     7     8   ar
    19     7    28    1
    20     8     9   ar
    21     8    29    1
    22     9    10   ar
    23     9    12    1
    24    10    11   ar
    25    10    30    1
    26    11    31    1
    27    12    32    1
    28    13    18    1
    29    13    14    1
    30    13    19    1
    31    14    15    1
    32    14    33    1
    33    14    34    1
    34    15    16    1
    35    15    35    1
    36    15    36    1
    37    16    17    1
    38    16    37    1
    39    16    38    1
    40    17    18    1
    41    17    39    1
    42    17    40    1
    43    18    41    1
    44    18    42    1
    45    19    43    1
    46    44    45    1
