@<TRIPOS>MOLECULE
ZINC00057504
 29 30 0 0 0
SMALL
GASTEIGER

@<TRIPOS>ATOM
      1 C           1.2915   -1.0705   -0.1754 C.3     1  UNL1       -0.0480
      2 C           0.6024   -0.4558   -1.3943 C.3     1  UNL1        0.0828
      3 H           0.9173    0.5963   -1.4377 H       1  UNL1        0.0461
      4 C          -0.9137   -0.5103   -1.2880 C.ar    1  UNL1       -0.0338
      5 C          -1.6584    0.6759   -1.2125 C.ar    1  UNL1       -0.0571
      6 C          -3.0553    0.6419   -1.1455 C.ar    1  UNL1       -0.0506
      7 C          -3.7340   -0.5826   -1.1462 C.ar    1  UNL1        0.0228
      8 C          -2.9980   -1.7710   -1.2409 C.ar    1  UNL1       -0.0506
      9 C          -1.6015   -1.7324   -1.2976 C.ar    1  UNL1       -0.0571
     10 C          -5.2296   -0.5783   -1.1062 C.2     1  UNL1        0.1997
     11 O          -5.8117    0.3993   -1.5803 O.2     1  UNL1       -0.2861
     12 C          -5.9297   -1.7011   -0.4936 C.ar    1  UNL1        0.0594
     13 C          -5.5585   -2.5095    0.5683 C.ar    1  UNL1       -0.0438
     14 C          -6.5169   -3.5270    0.8449 C.ar    1  UNL1       -0.0540
     15 C          -7.6053   -3.4485    0.0072 C.ar    1  UNL1       -0.0236
     16 S          -7.4763   -2.1456   -1.0917 S.2     1  UNL1       -0.0934
     17 C           1.0895   -1.1163   -2.7043 C.2     1  UNL1        0.3630
     18 O           1.2006   -0.3278   -3.6891 O.co2   1  UNL1       -0.2457
     19 O           1.3470   -2.3547   -2.6458 O.co2   1  UNL1       -0.2457
     20 H           2.3796   -1.0613   -0.3045 H       1  UNL1        0.0241
     21 H           0.9897   -2.1092   -0.0032 H       1  UNL1        0.0241
     22 H           1.0558   -0.5033    0.7306 H       1  UNL1        0.0241
     23 H          -1.1482    1.6371   -1.2356 H       1  UNL1        0.0621
     24 H          -3.6083    1.5776   -1.1109 H       1  UNL1        0.0625
     25 H          -3.4846   -2.7390   -1.3083 H       1  UNL1        0.0625
     26 H          -1.0415   -2.6634   -1.3932 H       1  UNL1        0.0621
     27 H          -4.6331   -2.3850    1.1207 H       1  UNL1        0.0630
     28 H          -6.4124   -4.2750    1.6210 H       1  UNL1        0.0623
     29 H          -8.4775   -4.0879   -0.0103 H       1  UNL1        0.0693
@<TRIPOS>BOND
     1     1    20    1
     2     1    21    1
     3     1    22    1
     4     2     4    1
     5     2    17    1
     6     4     9   ar
     7     4     5   ar
     8     5     6   ar
     9     5    23    1
    10     6     7   ar
    11     6    24    1
    12     7     8   ar
    13     7    10    1
    14     8     9   ar
    15     8    25    1
    16     9    26    1
    17    10    11    2
    18    10    12    1
    19    12    16   ar
    20    12    13   ar
    21    13    14   ar
    22    13    27    1
    23    14    15   ar
    24    14    28    1
    25    15    16   ar
    26    15    29    1
    27    17    18   ar
    28    17    19   ar
    29     2     3    1
    30     2     1    1
