@<TRIPOS>MOLECULE
ZINC00057255
 33 35 0 0 0
SMALL
GASTEIGER

@<TRIPOS>ATOM
      1 C           2.0361    1.1613   -0.0550 C.ar    1  UNL1       -0.0610
      2 C           2.3179   -0.2184   -0.0691 C.ar    1  UNL1       -0.0613
      3 C           1.2869   -1.1638   -0.0709 C.ar    1  UNL1       -0.0532
      4 C          -0.0204   -0.7042   -0.0480 C.ar    1  UNL1        0.0189
      5 C          -0.2826    0.6662   -0.0495 C.ar    1  UNL1        0.0446
      6 C           0.7170    1.6193   -0.0496 C.ar    1  UNL1       -0.0492
      7 C          -1.7385    0.8405    0.0137 C.2     1  UNL1        0.2470
      8 O          -2.3315    1.8975    0.0804 O.2     1  UNL1       -0.2701
      9 N          -2.2978   -0.4192    0.0221 N.am    1  UNL1       -0.2761
     10 C          -1.3144   -1.4589    0.0572 C.3     1  UNL1        0.1867
     11 C          -1.4021   -2.3106    1.3155 C.ar    1  UNL1        0.0088
     12 C          -1.3385   -1.7149    2.5894 C.ar    1  UNL1       -0.0524
     13 C          -1.3497   -2.4911    3.7499 C.ar    1  UNL1       -0.0411
     14 C          -1.3982   -3.8836    3.6702 C.ar    1  UNL1        0.0673
     15 C          -1.4462   -4.4941    2.4145 C.ar    1  UNL1        0.1236
     16 C          -1.4740   -3.7140    1.2471 C.ar    1  UNL1       -0.0261
     17 S          -1.4495   -6.2510    2.2696 S.O2    1  UNL1        0.0574
     18 O          -2.4787   -6.8088    3.1183 O.2     1  UNL1       -0.1532
     19 O          -1.3519   -6.6100    0.8685 O.2     1  UNL1       -0.1532
     20 N           0.0366   -6.6715    2.9322 N.3     1  UNL1       -0.2035
     21 CL         -1.3623   -4.7400    5.1706 Cl      1  UNL1       -0.0815
     22 O          -1.5235   -2.2110   -1.1121 O.3     1  UNL1       -0.3639
     23 H           2.8565    1.8761   -0.0427 H       1  UNL1        0.0618
     24 H           3.3537   -0.5533   -0.0648 H       1  UNL1        0.0618
     25 H           1.5068   -2.2275   -0.0665 H       1  UNL1        0.0622
     26 H           0.4808    2.6781   -0.0341 H       1  UNL1        0.0625
     27 H          -3.2790   -0.5567    0.2165 H       1  UNL1        0.1524
     28 H          -1.2568   -0.6330    2.6920 H       1  UNL1        0.0622
     29 H          -1.3020   -1.9977    4.7188 H       1  UNL1        0.0633
     30 H          -1.5267   -4.2025    0.2732 H       1  UNL1        0.0642
     31 H          -0.0582   -6.8909    3.9241 H       1  UNL1        0.1442
     32 H           0.4547   -7.4244    2.3831 H       1  UNL1        0.1442
     33 H          -2.1603   -1.6798   -1.6167 H       1  UNL1        0.2127
@<TRIPOS>BOND
     1     1     6   ar
     2     1     2   ar
     3     1    23    1
     4     2     3   ar
     5     2    24    1
     6     3     4   ar
     7     3    25    1
     8     4    10    1
     9     4     5   ar
    10     5     6   ar
    11     5     7    1
    12     6    26    1
    13     7     8    2
    14     7     9   am
    15     9    10    1
    16     9    27    1
    17    11    16   ar
    18    11    12   ar
    19    12    13   ar
    20    12    28    1
    21    13    14   ar
    22    13    29    1
    23    14    15   ar
    24    14    21    1
    25    15    16   ar
    26    15    17    1
    27    16    30    1
    28    17    18    2
    29    17    19    2
    30    17    20    1
    31    20    31    1
    32    20    32    1
    33    22    33    1
    34    10    22    1
    35    10    11    1
