@<TRIPOS>MOLECULE
ZINC00968337
 45 48 0 0 0
SMALL
GASTEIGER

@<TRIPOS>ATOM
      1 C           1.0015    0.0619    0.0171 C.3     1  UNL1       -0.0431
      2 N           0.6684    0.2738    1.4664 N.4     1  UNL1        0.2335
      3 C           1.2569   -0.8348    2.3331 C.3     1  UNL1       -0.0284
      4 C           0.9775   -0.5780    3.8179 C.3     1  UNL1        0.0098
      5 C           1.5216    0.7907    4.1911 C.2     1  UNL1       -0.0498
      6 C           2.5724    1.0308    5.0251 C.2     1  UNL1        0.0076
      7 C           3.2304   -0.1106    5.7147 C.ar    1  UNL1       -0.0127
      8 C           4.0006   -1.0484    5.0069 C.ar    1  UNL1       -0.0537
      9 C           4.6213   -2.1011    5.6798 C.ar    1  UNL1       -0.0612
     10 C           4.5038   -2.2091    7.0636 C.ar    1  UNL1       -0.0615
     11 C           3.7700   -1.2635    7.7786 C.ar    1  UNL1       -0.0580
     12 C           3.1324   -0.2083    7.1104 C.ar    1  UNL1       -0.0393
     13 C           2.4133    0.8652    7.8880 C.3     1  UNL1       -0.0231
     14 C           3.2051    2.1751    7.8649 C.3     1  UNL1       -0.0216
     15 C           3.3458    2.9205    6.5529 C.ar    1  UNL1       -0.0211
     16 C           3.0663    2.4207    5.2718 C.ar    1  UNL1        0.0747
     17 N           3.2732    3.1479    4.1342 N.ar    1  UNL1       -0.2547
     18 C           3.7525    4.4041    4.2691 C.ar    1  UNL1        0.0283
     19 C           4.0492    4.9865    5.4838 C.ar    1  UNL1       -0.0433
     20 C           3.8494    4.2315    6.6323 C.ar    1  UNL1       -0.0551
     21 C           0.7556    1.8475    3.4120 C.3     1  UNL1        0.0098
     22 C           1.0769    1.6751    1.9276 C.3     1  UNL1       -0.0284
     23 H           0.5297    0.8589   -0.5628 H       1  UNL1        0.0777
     24 H           0.6003   -0.9092   -0.2838 H       1  UNL1        0.0777
     25 H           2.0890    0.0868   -0.0985 H       1  UNL1        0.0777
     26 H           2.3322   -0.8721    2.1263 H       1  UNL1        0.0817
     27 H           0.7897   -1.7708    2.0094 H       1  UNL1        0.0817
     28 H           1.3918   -1.3943    4.4139 H       1  UNL1        0.0362
     29 H          -0.1042   -0.6003    4.0055 H       1  UNL1        0.0362
     30 H           4.1355   -0.9560    3.9341 H       1  UNL1        0.0624
     31 H           5.2144   -2.8282    5.1308 H       1  UNL1        0.0618
     32 H           5.0059   -3.0170    7.5914 H       1  UNL1        0.0618
     33 H           3.7214   -1.3419    8.8633 H       1  UNL1        0.0620
     34 H           1.3983    1.0056    7.4960 H       1  UNL1        0.0317
     35 H           2.2895    0.5443    8.9301 H       1  UNL1        0.0317
     36 H           2.7185    2.8529    8.5792 H       1  UNL1        0.0317
     37 H           4.2183    1.9869    8.2464 H       1  UNL1        0.0317
     38 H           3.8966    4.9547    3.3445 H       1  UNL1        0.0830
     39 H           4.4361    5.9984    5.5418 H       1  UNL1        0.0633
     40 H           4.0976    4.6665    7.5997 H       1  UNL1        0.0621
     41 H          -0.3211    1.7112    3.5812 H       1  UNL1        0.0362
     42 H           0.9564    2.8731    3.7271 H       1  UNL1        0.0362
     43 H           0.5012    2.3835    1.3226 H       1  UNL1        0.0817
     44 H           2.1457    1.7912    1.7160 H       1  UNL1        0.0817
     45 H          -0.3539    0.2186    1.5589 H       1  UNL1        0.2031
@<TRIPOS>UNITY_ATOM_ATTR
2 1
charge 1
@<TRIPOS>BOND
     1     1     2    1
     2     1    23    1
     3     1    24    1
     4     1    25    1
     5     2    22    1
     6     2     3    1
     7     2    45    1
     8     3     4    1
     9     3    26    1
    10     3    27    1
    11     4     5    1
    12     4    28    1
    13     4    29    1
    14     5     6    2
    15     5    21    1
    16     6    16    1
    17     6     7    1
    18     7    12   ar
    19     7     8   ar
    20     8     9   ar
    21     8    30    1
    22     9    10   ar
    23     9    31    1
    24    10    11   ar
    25    10    32    1
    26    11    12   ar
    27    11    33    1
    28    12    13    1
    29    13    14    1
    30    13    34    1
    31    13    35    1
    32    14    15    1
    33    14    36    1
    34    14    37    1
    35    15    20   ar
    36    15    16   ar
    37    16    17   ar
    38    17    18   ar
    39    18    19   ar
    40    18    38    1
    41    19    20   ar
    42    19    39    1
    43    20    40    1
    44    21    22    1
    45    21    41    1
    46    21    42    1
    47    22    43    1
    48    22    44    1
