@<TRIPOS>MOLECULE
ZINC00004076
 49 51 0 0 0
SMALL
GASTEIGER

@<TRIPOS>ATOM
      1 C          -3.6091    0.9458   -0.4911 C.3     1  UNL1        0.0055
      2 N          -2.1418    0.9895   -0.4283 N.3     1  UNL1       -0.1976
      3 S          -1.3380   -0.4779   -0.1441 S.O2    1  UNL1        0.0294
      4 O          -1.8925   -1.4474   -1.0577 O.2     1  UNL1       -0.1582
      5 O           0.0528   -0.0884   -0.1987 O.2     1  UNL1       -0.1582
      6 C          -1.8523   -0.8497    1.5396 C.3     1  UNL1        0.0857
      7 C          -1.1907   -2.0922    2.1302 C.3     1  UNL1       -0.0068
      8 C           0.3090   -2.0428    2.3010 C.ar    1  UNL1       -0.0451
      9 C           1.0415   -3.2318    2.2010 C.ar    1  UNL1       -0.0565
     10 C           2.4377   -3.2310    2.2132 C.ar    1  UNL1       -0.0375
     11 C           3.0825   -1.9894    2.2811 C.ar    1  UNL1        0.0468
     12 C           2.3964   -0.7818    2.4115 C.ar    1  UNL1        0.0033
     13 C           0.9878   -0.8299    2.5113 C.ar    1  UNL1       -0.0491
     14 C           3.3610    0.2786    2.3149 C.ar    1  UNL1       -0.0189
     15 C           4.5955   -0.3298    2.2014 C.ar    1  UNL1        0.0062
     16 N           4.4197   -1.6886    2.2047 N.ar    1  UNL1       -0.3604
     17 H           5.1533   -2.3764    2.0891 H       1  UNL1        0.1653
     18 C           3.1203    1.7641    2.2235 C.3     1  UNL1       -0.0043
     19 C           2.5381    2.3740    3.4990 C.3     1  UNL1       -0.0055
     20 C           2.3703    3.8829    3.3580 C.3     1  UNL1       -0.0316
     21 N           1.5203    4.1961    2.1488 N.4     1  UNL1        0.2331
     22 C           2.1178    3.6437    0.8751 C.3     1  UNL1       -0.0316
     23 C           2.2594    2.1391    1.0090 C.3     1  UNL1       -0.0055
     24 C           1.2248    5.6664    2.0298 C.3     1  UNL1       -0.0431
     25 H          -4.0294    0.5618    0.4375 H       1  UNL1        0.0405
     26 H          -3.9420    0.3496   -1.3427 H       1  UNL1        0.0405
     27 H          -3.9724    1.9682   -0.6233 H       1  UNL1        0.0405
     28 H          -1.7278    1.3993   -1.2709 H       1  UNL1        0.1473
     29 H          -1.6781    0.0409    2.1492 H       1  UNL1        0.0519
     30 H          -2.9300   -1.0326    1.4962 H       1  UNL1        0.0519
     31 H          -1.6300   -2.2852    3.1169 H       1  UNL1        0.0329
     32 H          -1.4487   -2.9491    1.4947 H       1  UNL1        0.0329
     33 H           0.5275   -4.1806    2.0711 H       1  UNL1        0.0621
     34 H           2.9925   -4.1567    2.1047 H       1  UNL1        0.0638
     35 H           0.4489    0.0953    2.6364 H       1  UNL1        0.0627
     36 H           5.5882    0.0824    2.0702 H       1  UNL1        0.0810
     37 H           4.1079    2.2324    2.0664 H       1  UNL1        0.0353
     38 H           3.1931    2.1623    4.3525 H       1  UNL1        0.0323
     39 H           1.5658    1.9237    3.7341 H       1  UNL1        0.0323
     40 H           3.3328    4.3896    3.2255 H       1  UNL1        0.0814
     41 H           1.8588    4.2973    4.2330 H       1  UNL1        0.0814
     42 H           1.4363    3.8977    0.0564 H       1  UNL1        0.0814
     43 H           3.0825    4.1381    0.7156 H       1  UNL1        0.0814
     44 H           2.6893    1.7282    0.0878 H       1  UNL1        0.0323
     45 H           1.2578    1.7106    1.1112 H       1  UNL1        0.0323
     46 H           0.5435    5.8078    1.1863 H       1  UNL1        0.0777
     47 H           0.7409    5.9917    2.9544 H       1  UNL1        0.0777
     48 H           2.1643    6.2015    1.8684 H       1  UNL1        0.0777
     49 H           0.6120    3.7297    2.2805 H       1  UNL1        0.2030
@<TRIPOS>UNITY_ATOM_ATTR
21 1
charge 1
@<TRIPOS>BOND
     1     1     2    1
     2     1    25    1
     3     1    26    1
     4     1    27    1
     5     2     3    1
     6     2    28    1
     7     3     4    2
     8     3     5    2
     9     3     6    1
    10     6     7    1
    11     6    29    1
    12     6    30    1
    13     7     8    1
    14     7    31    1
    15     7    32    1
    16     8    13   ar
    17     8     9   ar
    18     9    10   ar
    19     9    33    1
    20    10    11   ar
    21    10    34    1
    22    11    16   ar
    23    11    12   ar
    24    12    13   ar
    25    12    14   ar
    26    13    35    1
    27    14    15   ar
    28    14    18    1
    29    15    16   ar
    30    15    36    1
    31    16    17    1
    32    18    23    1
    33    18    19    1
    34    18    37    1
    35    19    20    1
    36    19    38    1
    37    19    39    1
    38    20    21    1
    39    20    40    1
    40    20    41    1
    41    21    22    1
    42    21    24    1
    43    21    49    1
    44    22    23    1
    45    22    42    1
    46    22    43    1
    47    23    44    1
    48    23    45    1
    49    24    46    1
    50    24    47    1
    51    24    48    1
