@<TRIPOS>MOLECULE
ZINC01530816
 37 37 0 0 0
SMALL
GASTEIGER

@<TRIPOS>ATOM
      1 C           1.3879   -4.2447   -1.0143 C.3     1  UNL1       -0.0605
      2 C           1.2481   -4.6149    0.4540 C.3     1  UNL1       -0.0154
      3 C           1.5975   -3.4790    1.4061 C.3     1  UNL1       -0.0332
      4 N           0.6535   -2.3360    1.3088 N.4     1  UNL1        0.2355
      5 C          -0.8375   -2.5257    1.5792 C.3     1  UNL1        0.0524
      6 H          -1.2159   -3.2401    0.8422 H       1  UNL1        0.0946
      7 C          -1.0558   -2.9924    3.0097 C.3     1  UNL1       -0.0130
      8 C          -1.5124   -1.1580    1.3159 C.2     1  UNL1        0.2651
      9 O          -0.8003   -0.2756    0.8307 O.2     1  UNL1       -0.2693
     10 N          -2.8606   -1.0595    1.5988 N.am    1  UNL1       -0.2807
     11 C          -3.6106    0.1227    1.3724 C.ar    1  UNL1        0.0365
     12 C          -3.0096    1.3802    1.5441 C.ar    1  UNL1       -0.0402
     13 C          -3.6818    2.5536    1.2064 C.ar    1  UNL1       -0.0600
     14 C          -4.9611    2.4830    0.6755 C.ar    1  UNL1       -0.0614
     15 C          -5.5940    1.2462    0.5628 C.ar    1  UNL1       -0.0571
     16 C          -4.9518    0.0539    0.9529 C.ar    1  UNL1       -0.0292
     17 C          -5.7624   -1.2060    0.8463 C.3     1  UNL1       -0.0380
     18 H           0.7734   -3.3788   -1.2794 H       1  UNL1        0.0232
     19 H           1.0719   -5.0831   -1.6426 H       1  UNL1        0.0232
     20 H           2.4301   -4.0161   -1.2595 H       1  UNL1        0.0232
     21 H           0.2346   -4.9821    0.6467 H       1  UNL1        0.0314
     22 H           1.9225   -5.4544    0.6602 H       1  UNL1        0.0314
     23 H           1.6013   -3.8175    2.4459 H       1  UNL1        0.0814
     24 H           2.5903   -3.0741    1.1817 H       1  UNL1        0.0814
     25 H           0.9741   -1.5743    1.9291 H       1  UNL1        0.2021
     26 H          -0.7812   -2.2158    3.7329 H       1  UNL1        0.0289
     27 H          -2.1103   -3.2377    3.1809 H       1  UNL1        0.0289
     28 H          -0.4818   -3.8947    3.2381 H       1  UNL1        0.0289
     29 H          -3.3936   -1.9127    1.6995 H       1  UNL1        0.1550
     30 H          -2.0089    1.4755    1.9576 H       1  UNL1        0.0636
     31 H          -3.1988    3.5180    1.3433 H       1  UNL1        0.0618
     32 H          -5.4724    3.3898    0.3614 H       1  UNL1        0.0618
     33 H          -6.6037    1.2145    0.1547 H       1  UNL1        0.0621
     34 H          -6.6583   -1.1160    1.4719 H       1  UNL1        0.0278
     35 H          -6.0745   -1.3678   -0.1933 H       1  UNL1        0.0278
     36 H          -5.2381   -2.1027    1.1746 H       1  UNL1        0.0278
     37 H           0.7226   -1.8776    0.3870 H       1  UNL1        0.2021
@<TRIPOS>UNITY_ATOM_ATTR
4 1
charge 1
@<TRIPOS>BOND
     1     1     2    1
     2     1    18    1
     3     1    19    1
     4     1    20    1
     5     2     3    1
     6     2    21    1
     7     2    22    1
     8     3     4    1
     9     3    23    1
    10     3    24    1
    11     4     5    1
    12     4    25    1
    13     4    37    1
    14     5     6    1
    15     5     7    1
    16     5     8    1
    17     7    26    1
    18     7    27    1
    19     7    28    1
    20     8     9    2
    21     8    10   am
    22    10    11    1
    23    10    29    1
    24    11    16   ar
    25    11    12   ar
    26    12    13   ar
    27    12    30    1
    28    13    14   ar
    29    13    31    1
    30    14    15   ar
    31    14    32    1
    32    15    16   ar
    33    15    33    1
    34    16    17    1
    35    17    34    1
    36    17    35    1
    37    17    36    1
