@<TRIPOS>MOLECULE
ZINC00020260
 54 56 0 0 0
SMALL
GASTEIGER

@<TRIPOS>ATOM
      1 C          -3.6578   -3.3149   -2.1903 C.3     1  UNL1        0.0693
      2 N          -3.2700   -2.5104   -3.3797 N.pl3   1  UNL1       -0.2274
      3 C          -4.2130   -2.5879   -4.5067 C.3     1  UNL1        0.0836
      4 C          -3.7032   -2.0506   -5.8209 C.3     1  UNL1        0.0209
      5 C          -2.5899   -1.0370   -5.7551 C.3     1  UNL1        0.0876
      6 C          -2.2583   -1.6457   -3.3849 C.2     1  UNL1        0.2784
      7 C          -1.4355   -1.4049   -2.1484 C.3     1  UNL1        0.1902
      8 O          -2.2643   -0.8320   -1.1265 O.3     1  UNL1       -0.4501
      9 C          -2.4773    0.5162   -1.2759 C.2     1  UNL1        0.3446
     10 O          -1.9914    1.1443   -2.2098 O.2     1  UNL1       -0.2472
     11 C          -3.3935    1.0774   -0.1312 C.3     1  UNL1        0.1902
     12 C          -2.7372    0.9799    1.2675 C.ar    1  UNL1       -0.0051
     13 C          -3.4152    1.4602    2.4056 C.ar    1  UNL1       -0.0553
     14 C          -2.8454    1.3781    3.6807 C.ar    1  UNL1       -0.0614
     15 C          -1.5952    0.7961    3.8522 C.ar    1  UNL1       -0.0617
     16 C          -0.9085    0.3047    2.7494 C.ar    1  UNL1       -0.0614
     17 C          -1.4672    0.4059    1.4726 C.ar    1  UNL1       -0.0553
     18 C          -3.9012    2.5287   -0.4636 C.3     1  UNL1        0.0026
     19 C          -2.7668    3.5719   -0.4052 C.3     1  UNL1       -0.0467
     20 C          -3.1746    4.9460   -0.9207 C.3     1  UNL1       -0.0527
     21 C          -3.7776    4.8484   -2.3125 C.3     1  UNL1       -0.0530
     22 C          -5.0289    3.9845   -2.2804 C.3     1  UNL1       -0.0527
     23 C          -4.7324    2.5751   -1.7745 C.3     1  UNL1       -0.0467
     24 O          -4.5721    0.2304   -0.1271 O.3     1  UNL1       -0.3730
     25 H          -4.6754   -3.0339   -1.8881 H       1  UNL1        0.0689
     26 H          -2.9878   -3.1709   -1.3442 H       1  UNL1        0.0689
     27 H          -3.6329   -4.3734   -2.4646 H       1  UNL1        0.0689
     28 H          -5.1181   -2.0470   -4.2091 H       1  UNL1        0.0727
     29 H          -4.5035   -3.6373   -4.6434 H       1  UNL1        0.0727
     30 H          -3.3830   -2.8882   -6.4464 H       1  UNL1        0.0340
     31 H          -4.5492   -1.6091   -6.3688 H       1  UNL1        0.0340
     32 H          -1.8128   -1.3087   -6.4810 H       1  UNL1        0.0745
     33 H          -2.9488   -0.0427   -6.0357 H       1  UNL1        0.0745
     34 H          -1.0245   -2.3526   -1.7770 H       1  UNL1        0.0824
     35 H          -0.5638   -0.7718   -2.3495 H       1  UNL1        0.0824
     36 H          -4.3994    1.9192    2.3228 H       1  UNL1        0.0621
     37 H          -3.3780    1.7744    4.5431 H       1  UNL1        0.0618
     38 H          -1.1517    0.7304    4.8428 H       1  UNL1        0.0618
     39 H           0.0691   -0.1545    2.8804 H       1  UNL1        0.0618
     40 H          -0.8672    0.0164    0.6561 H       1  UNL1        0.0621
     41 H          -4.6261    2.8223    0.3112 H       1  UNL1        0.0337
     42 H          -2.4233    3.6854    0.6301 H       1  UNL1        0.0269
     43 H          -1.8976    3.2346   -0.9780 H       1  UNL1        0.0269
     44 H          -2.2966    5.6013   -0.9416 H       1  UNL1        0.0265
     45 H          -3.8972    5.4015   -0.2326 H       1  UNL1        0.0265
     46 H          -3.0450    4.4208   -3.0084 H       1  UNL1        0.0265
     47 H          -4.0265    5.8495   -2.6805 H       1  UNL1        0.0265
     48 H          -5.4597    3.9249   -3.2869 H       1  UNL1        0.0265
     49 H          -5.7846    4.4555   -1.6404 H       1  UNL1        0.0265
     50 H          -4.2306    2.0291   -2.5780 H       1  UNL1        0.0269
     51 H          -5.6892    2.0613   -1.6147 H       1  UNL1        0.0269
     52 H          -4.7901    0.0204    0.7959 H       1  UNL1        0.2113
     53 N          -1.9524   -0.9324   -4.4521 N.2     1  UNL1       -0.2763
     54 H          -1.2325   -0.2195   -4.3404 H       1  UNL1        0.3036
@<TRIPOS>BOND
     1     1     2    1
     2     1    25    1
     3     1    26    1
     4     1    27    1
     5     2     6    1
     6     2     3    1
     7     3     4    1
     8     3    28    1
     9     3    29    1
    10     4     5    1
    11     4    30    1
    12     4    31    1
    13     5    32    1
    14     5    33    1
    15     5    53    1
    16     6     7    1
    17     6    53    2
    18     7     8    1
    19     7    34    1
    20     7    35    1
    21     8     9    1
    22     9    10    2
    23    11     9    1
    24    11    12    1
    25    11    18    1
    26    11    24    1
    27    12    17   ar
    28    12    13   ar
    29    13    14   ar
    30    13    36    1
    31    14    15   ar
    32    14    37    1
    33    15    16   ar
    34    15    38    1
    35    16    17   ar
    36    16    39    1
    37    17    40    1
    38    18    23    1
    39    18    19    1
    40    18    41    1
    41    19    20    1
    42    19    42    1
    43    19    43    1
    44    20    21    1
    45    20    44    1
    46    20    45    1
    47    21    22    1
    48    21    46    1
    49    21    47    1
    50    22    23    1
    51    22    48    1
    52    22    49    1
    53    23    50    1
    54    23    51    1
    55    24    52    1
    56    53    54    1
