@<TRIPOS>MOLECULE
ZINC00049154
 23 23 0 0 0
SMALL
GASTEIGER

@<TRIPOS>ATOM
      1 C          -1.5378   -1.7492    0.0140 C.3     1  UNL1       -0.0188
      2 C          -0.4203   -0.7483    0.0159 C.ar    1  UNL1        0.0798
      3 C          -0.6470    0.6340    0.0274 C.ar    1  UNL1        0.1434
      4 C           0.4479    1.5214    0.0376 C.ar    1  UNL1        0.0278
      5 C           1.7471    0.9679    0.0295 C.ar    1  UNL1        0.0047
      6 C           1.8672   -0.4229    0.0207 C.ar    1  UNL1        0.0338
      7 N           0.8270   -1.2766    0.0106 N.ar    1  UNL1       -0.2562
      8 C           3.0075    1.7896    0.0525 C.3     1  UNL1        0.0711
      9 O           3.0503    2.6091   -1.1073 O.3     1  UNL1       -0.3904
     10 C           0.2630    3.0170    0.0300 C.3     1  UNL1        0.0731
     11 O           0.1786    3.4830   -1.3042 O.3     1  UNL1       -0.3903
     12 O          -1.9524    1.0463    0.0463 O.3     1  UNL1       -0.5046
     13 H          -1.4679   -2.3774   -0.8797 H       1  UNL1        0.0294
     14 H          -1.4590   -2.3889    0.8989 H       1  UNL1        0.0294
     15 H          -2.5312   -1.2898    0.0222 H       1  UNL1        0.0294
     16 H           2.8364   -0.9080    0.0239 H       1  UNL1        0.0833
     17 H           3.0332    2.4188    0.9470 H       1  UNL1        0.0608
     18 H           3.9066    1.1675    0.0704 H       1  UNL1        0.0608
     19 H           3.0444    2.0116   -1.8739 H       1  UNL1        0.2098
     20 H          -0.6472    3.3145    0.5571 H       1  UNL1        0.0608
     21 H           1.0769    3.5407    0.5448 H       1  UNL1        0.0608
     22 H           0.9517    3.1109   -1.7785 H       1  UNL1        0.2098
     23 H          -2.0148    2.0065   -0.1147 H       1  UNL1        0.2922
@<TRIPOS>BOND
     1     1    13    1
     2     1    14    1
     3     1    15    1
     4     1     2    1
     5     2     3   ar
     6     2     7   ar
     7     3    12    1
     8     3     4   ar
     9     4     5   ar
    10     4    10    1
    11     5     6   ar
    12     5     8    1
    13     6     7   ar
    14     6    16    1
    15     8     9    1
    16     8    17    1
    17     8    18    1
    18     9    19    1
    19    10    11    1
    20    10    20    1
    21    10    21    1
    22    11    22    1
    23    12    23    1
