@<TRIPOS>MOLECULE
ZINC00537964
 43 45 0 0 0
SMALL
GASTEIGER

@<TRIPOS>ATOM
      1 C           0.2759   -5.0387   -5.3087 C.ar    1  UNL1       -0.0605
      2 C          -0.3901   -5.1821   -4.0985 C.ar    1  UNL1       -0.0522
      3 C          -1.7930   -5.3856   -4.0347 C.ar    1  UNL1        0.0068
      4 C          -2.5348   -5.4604   -2.8147 C.ar    1  UNL1       -0.0026
      5 C          -3.9138   -5.7265   -2.8742 C.ar    1  UNL1       -0.0252
      6 C          -4.5390   -5.8193   -4.1112 C.ar    1  UNL1        0.1446
      7 N          -3.8303   -5.7004   -5.2624 N.ar    1  UNL1       -0.2421
      8 C          -2.5082   -5.4808   -5.2526 C.ar    1  UNL1        0.0836
      9 C          -1.8373   -5.3032   -6.4641 C.ar    1  UNL1        0.0807
     10 C          -0.4466   -5.0827   -6.4854 C.ar    1  UNL1       -0.0480
     11 C          -2.5570   -5.2770   -7.7913 C.3     1  UNL1        0.4194
     12 F          -3.8993   -5.4808   -7.7745 F       1  UNL1       -0.1658
     13 F          -2.3796   -4.0768   -8.4198 F       1  UNL1       -0.1658
     14 F          -2.0532   -6.2099   -8.6506 F       1  UNL1       -0.1658
     15 C          -6.0607   -5.9316   -4.2074 C.3     1  UNL1        0.4342
     16 F          -6.6582   -5.9559   -2.9793 F       1  UNL1       -0.1644
     17 F          -6.6188   -4.8733   -4.8595 F       1  UNL1       -0.1644
     18 F          -6.4835   -7.0541   -4.8464 F       1  UNL1       -0.1644
     19 C          -1.9203   -5.0822   -1.4808 C.3     1  UNL1        0.1232
     20 H          -0.9361   -4.6462   -1.6417 H       1  UNL1        0.0701
     21 C          -1.8255   -6.1614   -0.3648 C.3     1  UNL1        0.0081
     22 H          -2.8394   -6.4087   -0.0264 H       1  UNL1        0.0880
     23 C          -1.0742   -7.4476   -0.6798 C.3     1  UNL1       -0.0068
     24 C           0.4358   -7.2669   -0.7953 C.3     1  UNL1       -0.0431
     25 C           1.0343   -6.5303    0.3994 C.3     1  UNL1       -0.0124
     26 C           0.2916   -5.2548    0.7589 C.3     1  UNL1       -0.0333
     27 N          -1.1747   -5.5183    0.8564 N.4     1  UNL1        0.2312
     28 O          -2.6746   -3.9935   -0.9004 O.3     1  UNL1       -0.3815
     29 H           1.3510   -4.8744   -5.3353 H       1  UNL1        0.0618
     30 H           0.2298   -5.1273   -3.2117 H       1  UNL1        0.0624
     31 H          -4.5143   -5.7802   -1.9687 H       1  UNL1        0.0642
     32 H           0.0656   -4.9305   -7.4367 H       1  UNL1        0.0624
     33 H          -1.4661   -7.9058   -1.5944 H       1  UNL1        0.0321
     34 H          -1.2700   -8.1669    0.1277 H       1  UNL1        0.0321
     35 H           0.9088   -8.2532   -0.8847 H       1  UNL1        0.0269
     36 H           0.6746   -6.7270   -1.7140 H       1  UNL1        0.0269
     37 H           1.0356   -7.2023    1.2689 H       1  UNL1        0.0317
     38 H           2.0833   -6.2949    0.1879 H       1  UNL1        0.0317
     39 H           0.6137   -4.8693    1.7312 H       1  UNL1        0.0814
     40 H           0.4462   -4.4717    0.0110 H       1  UNL1        0.0814
     41 H          -1.3748   -6.0802    1.6944 H       1  UNL1        0.2017
     42 H          -3.0697   -3.4754   -1.6320 H       1  UNL1        0.2105
     43 H          -1.6690   -4.6181    0.9963 H       1  UNL1        0.2017
@<TRIPOS>UNITY_ATOM_ATTR
27 1
charge 1
@<TRIPOS>BOND
     1     1    10   ar
     2     1     2   ar
     3     1    29    1
     4     2     3   ar
     5     2    30    1
     6     3     8   ar
     7     3     4   ar
     8     4     5   ar
     9     5     6   ar
    10     5    31    1
    11     6     7   ar
    12     6    15    1
    13     7     8   ar
    14     8     9   ar
    15     9    10   ar
    16     9    11    1
    17    10    32    1
    18    11    12    1
    19    11    13    1
    20    11    14    1
    21    15    16    1
    22    15    17    1
    23    15    18    1
    24    19    28    1
    25    21    27    1
    26    21    23    1
    27    23    24    1
    28    23    33    1
    29    23    34    1
    30    24    25    1
    31    24    35    1
    32    24    36    1
    33    25    26    1
    34    25    37    1
    35    25    38    1
    36    26    27    1
    37    26    39    1
    38    26    40    1
    39    27    41    1
    40    27    43    1
    41    28    42    1
    42    19    20    1
    43    19     4    1
    44    21    22    1
    45    21    19    1
