@<TRIPOS>MOLECULE
ZINC00897222
 41 43 0 0 0
SMALL
GASTEIGER

@<TRIPOS>ATOM
      1 C          -5.6190    0.8162   -3.3441 C.ar    1  UNL1       -0.0617
      2 C          -6.0170    0.7878   -2.0079 C.ar    1  UNL1       -0.0615
      3 C          -5.0684    0.6758   -0.9879 C.ar    1  UNL1       -0.0585
      4 C          -3.7085    0.6316   -1.2993 C.ar    1  UNL1       -0.0443
      5 C          -3.3293    0.5525   -2.6535 C.ar    1  UNL1       -0.0585
      6 C          -4.2765    0.6583   -3.6698 C.ar    1  UNL1       -0.0615
      7 C          -2.5998    0.7239   -0.2744 C.3     1  UNL1        0.0056
      8 C          -2.9276    1.0776    1.2017 C.3     1  UNL1        0.0953
      9 H          -3.6667    1.8908    1.2034 H       1  UNL1        0.0685
     10 N          -3.4708   -0.0300    1.9754 N.pl3   1  UNL1       -0.3256
     11 C          -2.6035   -1.0819    2.2988 C.ar    1  UNL1        0.0556
     12 C          -3.1247   -2.2307    2.8922 C.ar    1  UNL1       -0.0254
     13 C          -2.3186   -3.3671    3.1053 C.ar    1  UNL1        0.0829
     14 C          -1.0329   -3.3851    2.5355 C.ar    1  UNL1        0.1186
     15 C          -0.4586   -2.2041    2.0643 C.ar    1  UNL1       -0.0066
     16 C          -1.2336   -1.0491    2.0671 C.ar    1  UNL1        0.1279
     17 S          -0.4633    0.5270    1.9356 S.O2    1  UNL1        0.0618
     18 O           0.2798    0.7662    3.1522 O.2     1  UNL1       -0.1529
     19 O           0.1544    0.6394    0.6358 O.2     1  UNL1       -0.1529
     20 N          -1.7903    1.5519    1.9683 N.3     1  UNL1       -0.1696
     21 S          -0.1351   -4.9015    2.3417 S.O2    1  UNL1        0.0566
     22 O           0.9801   -4.6689    1.4482 O.2     1  UNL1       -0.1532
     23 O           0.0177   -5.5322    3.6244 O.2     1  UNL1       -0.1532
     24 N          -1.2140   -5.8245    1.4517 N.3     1  UNL1       -0.2035
     25 C          -2.8059   -4.4539    4.0320 C.3     1  UNL1        0.4193
     26 F          -4.0193   -4.1591    4.5858 F       1  UNL1       -0.1658
     27 F          -2.9585   -5.6693    3.4494 F       1  UNL1       -0.1658
     28 F          -1.9767   -4.6232    5.0963 F       1  UNL1       -0.1658
     29 H          -6.3555    0.9554   -4.1307 H       1  UNL1        0.0618
     30 H          -7.0714    0.8737   -1.7581 H       1  UNL1        0.0618
     31 H          -5.4145    0.6464    0.0412 H       1  UNL1        0.0620
     32 H          -2.2793    0.4413   -2.9228 H       1  UNL1        0.0620
     33 H          -3.9621    0.6431   -4.7102 H       1  UNL1        0.0618
     34 H          -2.0385   -0.2142   -0.3501 H       1  UNL1        0.0345
     35 H          -1.9414    1.5251   -0.6439 H       1  UNL1        0.0345
     36 H          -3.9316    0.3145    2.8137 H       1  UNL1        0.1477
     37 H          -4.1670   -2.2376    3.2146 H       1  UNL1        0.0643
     38 H           0.5739   -2.1692    1.7221 H       1  UNL1        0.0657
     39 H          -1.5319    2.5308    1.8361 H       1  UNL1        0.1501
     40 H          -0.8338   -6.0472    0.5308 H       1  UNL1        0.1442
     41 H          -1.5089   -6.6462    1.9855 H       1  UNL1        0.1442
@<TRIPOS>BOND
     1     1     6   ar
     2     1     2   ar
     3     1    29    1
     4     2     3   ar
     5     2    30    1
     6     3     4   ar
     7     3    31    1
     8     4     5   ar
     9     4     7    1
    10     5     6   ar
    11     5    32    1
    12     6    33    1
    13     7     8    1
    14     7    34    1
    15     7    35    1
    16     8     9    1
    17     8    20    1
    18     8    10    1
    19    10    11    1
    20    10    36    1
    21    11    16   ar
    22    11    12   ar
    23    12    13   ar
    24    12    37    1
    25    13    14   ar
    26    13    25    1
    27    14    15   ar
    28    14    21    1
    29    15    16   ar
    30    15    38    1
    31    16    17    1
    32    17    18    2
    33    17    19    2
    34    17    20    1
    35    20    39    1
    36    21    22    2
    37    21    23    2
    38    21    24    1
    39    24    40    1
    40    24    41    1
    41    25    26    1
    42    25    27    1
    43    25    28    1
