@<TRIPOS>MOLECULE
ZINC00968264
 44 47 0 0 0
SMALL
GASTEIGER

@<TRIPOS>ATOM
      1 C           0.9023   -0.0114    0.1252 C.3     1  UNL1       -0.0431
      2 N           0.5404   -0.0365    1.5835 N.4     1  UNL1        0.2335
      3 C           1.0120   -1.3300    2.2409 C.3     1  UNL1       -0.0284
      4 C           0.7116   -1.3176    3.7405 C.3     1  UNL1        0.0097
      5 C           1.3709   -0.0954    4.3516 C.2     1  UNL1       -0.0512
      6 C           2.4125   -0.1203    5.2202 C.2     1  UNL1       -0.0100
      7 C           2.9745   -1.3986    5.7199 C.ar    1  UNL1       -0.0102
      8 C           3.6984   -2.2315    4.8494 C.ar    1  UNL1       -0.0534
      9 C           4.2775   -3.4068    5.3225 C.ar    1  UNL1       -0.0611
     10 C           4.1523   -3.7503    6.6641 C.ar    1  UNL1       -0.0612
     11 C           3.4595   -2.9129    7.5436 C.ar    1  UNL1       -0.0540
     12 C           2.8852   -1.7165    7.0882 C.ar    1  UNL1       -0.0173
     13 C           2.2040   -0.8494    8.0712 C.2     1  UNL1       -0.0534
     14 C           2.2195    0.4965    8.0983 C.2     1  UNL1       -0.0534
     15 C           2.9192    1.3880    7.1515 C.ar    1  UNL1       -0.0173
     16 C           2.9983    1.1263    5.7693 C.ar    1  UNL1       -0.0102
     17 C           3.7363    1.9813    4.9331 C.ar    1  UNL1       -0.0534
     18 C           4.3427    3.1221    5.4510 C.ar    1  UNL1       -0.0611
     19 C           4.2302    3.4094    6.8086 C.ar    1  UNL1       -0.0612
     20 C           3.5226    2.5498    7.6533 C.ar    1  UNL1       -0.0540
     21 C           0.7328    1.1595    3.7874 C.3     1  UNL1        0.0097
     22 C           1.0351    1.2231    2.2897 C.3     1  UNL1       -0.0284
     23 H           0.4807    0.8951   -0.3149 H       1  UNL1        0.0777
     24 H           0.4728   -0.8974   -0.3477 H       1  UNL1        0.0777
     25 H           1.9937   -0.0148    0.0388 H       1  UNL1        0.0777
     26 H           2.0870   -1.4193    2.0470 H       1  UNL1        0.0817
     27 H           0.4817   -2.1498    1.7456 H       1  UNL1        0.0817
     28 H           1.0365   -2.2600    4.1889 H       1  UNL1        0.0362
     29 H          -0.3726   -1.2698    3.9081 H       1  UNL1        0.0362
     30 H           3.8433   -1.9555    3.8091 H       1  UNL1        0.0624
     31 H           4.8465   -4.0449    4.6509 H       1  UNL1        0.0618
     32 H           4.6172   -4.6605    7.0390 H       1  UNL1        0.0618
     33 H           3.4041   -3.1870    8.5951 H       1  UNL1        0.0624
     34 H           1.6741   -1.3742    8.8642 H       1  UNL1        0.0624
     35 H           1.7022    1.0011    8.9126 H       1  UNL1        0.0624
     36 H           3.8690    1.7459    3.8814 H       1  UNL1        0.0624
     37 H           4.9226    3.7760    4.8049 H       1  UNL1        0.0618
     38 H           4.7173    4.2910    7.2194 H       1  UNL1        0.0618
     39 H           3.4781    2.7791    8.7162 H       1  UNL1        0.0624
     40 H          -0.3523    1.1234    3.9527 H       1  UNL1        0.0362
     41 H           1.0733    2.0782    4.2714 H       1  UNL1        0.0362
     42 H           0.5210    2.0705    1.8250 H       1  UNL1        0.0817
     43 H           2.1119    1.2990    2.1000 H       1  UNL1        0.0817
     44 H          -0.4866   -0.0282    1.6478 H       1  UNL1        0.2031
@<TRIPOS>UNITY_ATOM_ATTR
2 1
charge 1
@<TRIPOS>BOND
     1     1     2    1
     2     1    23    1
     3     1    24    1
     4     1    25    1
     5     2    22    1
     6     2     3    1
     7     2    44    1
     8     3     4    1
     9     3    26    1
    10     3    27    1
    11     4     5    1
    12     4    28    1
    13     4    29    1
    14     5     6    2
    15     5    21    1
    16     6    16    1
    17     6     7    1
    18     7    12   ar
    19     7     8   ar
    20     8     9   ar
    21     8    30    1
    22     9    10   ar
    23     9    31    1
    24    10    11   ar
    25    10    32    1
    26    11    12   ar
    27    11    33    1
    28    12    13    1
    29    13    14    2
    30    13    34    1
    31    14    15    1
    32    14    35    1
    33    15    20   ar
    34    15    16   ar
    35    16    17   ar
    36    17    18   ar
    37    17    36    1
    38    18    19   ar
    39    18    37    1
    40    19    20   ar
    41    19    38    1
    42    20    39    1
    43    21    22    1
    44    21    40    1
    45    21    41    1
    46    22    42    1
    47    22    43    1
