@<TRIPOS>MOLECULE
ZINC03812989
 54 59 0 0 0
SMALL
GASTEIGER

@<TRIPOS>ATOM
      1 C          -1.9308   -3.5277    1.1457 C.ar    1  UNL1       -0.0544
      2 C          -1.5374   -4.8565    1.3781 C.ar    1  UNL1       -0.0162
      3 C          -0.3203   -5.3324    0.8727 C.ar    1  UNL1        0.1588
      4 C           0.5360   -4.4525    0.2439 C.ar    1  UNL1        0.1664
      5 C           0.2190   -3.1197    0.2028 C.ar    1  UNL1        0.0142
      6 C          -1.0492   -2.6570    0.5069 C.ar    1  UNL1       -0.0343
      7 C          -1.4766   -1.3281   -0.0508 C.3     1  UNL1        0.0187
      8 C          -0.2788   -0.4680   -0.5134 C.3     1  UNL1        0.0136
      9 H          -0.6340    0.3628   -1.1360 H       1  UNL1        0.0883
     10 C           0.8312   -1.2713   -1.2918 C.3     1  UNL1        0.1219
     11 C           1.3700   -2.3151   -0.2976 C.3     1  UNL1        0.0775
     12 C           2.1011   -1.6260    0.8631 C.3     1  UNL1        0.0036
     13 C           1.2180   -0.6624    1.6171 C.3     1  UNL1       -0.0305
     14 N           0.4322    0.2376    0.6937 N.4     1  UNL1        0.2399
     15 C          -0.4821    1.1652    1.4703 C.3     1  UNL1       -0.0286
     16 C           0.1991    1.8874    2.6266 C.3     1  UNL1       -0.0008
     17 C          -0.5508    3.1466    3.1192 C.3     1  UNL1       -0.0454
     18 C           0.3615    3.9698    2.1875 C.3     1  UNL1       -0.0522
     19 C           1.3870    2.8242    2.2911 C.3     1  UNL1       -0.0454
     20 C           2.2644   -3.4472   -0.8233 C.3     1  UNL1        0.1387
     21 H           3.2300   -3.4591   -0.2981 H       1  UNL1        0.0769
     22 O           1.6802   -4.7351   -0.4549 O.3     1  UNL1       -0.4813
     23 C           2.6037   -3.2697   -2.3088 C.3     1  UNL1        0.0930
     24 H           3.3395   -2.4555   -2.3565 H       1  UNL1        0.0630
     25 C           1.4429   -2.8592   -3.2200 C.3     1  UNL1       -0.0205
     26 C           0.3657   -1.9623   -2.5861 C.3     1  UNL1       -0.0153
     27 O           3.2550   -4.4053   -2.8661 O.3     1  UNL1       -0.3881
     28 O           1.8607   -0.3120   -1.6137 O.3     1  UNL1       -0.3820
     29 O           0.0308   -6.6377    1.0155 O.3     1  UNL1       -0.5033
     30 H          -2.9286   -3.2047    1.4414 H       1  UNL1        0.0622
     31 H          -2.2272   -5.5203    1.9007 H       1  UNL1        0.0655
     32 H          -2.0931   -1.5385   -0.9347 H       1  UNL1        0.0369
     33 H          -2.1336   -0.8035    0.6458 H       1  UNL1        0.0369
     34 H           2.4881   -2.3597    1.5834 H       1  UNL1        0.0328
     35 H           2.9833   -1.0918    0.4800 H       1  UNL1        0.0328
     36 H           0.5080   -1.1745    2.2753 H       1  UNL1        0.0815
     37 H           1.8633   -0.0245    2.2289 H       1  UNL1        0.0815
     38 H          -1.2923    0.5563    1.8845 H       1  UNL1        0.0817
     39 H          -0.9050    1.8590    0.7396 H       1  UNL1        0.0817
     40 H           0.4126    1.1929    3.4499 H       1  UNL1        0.0352
     41 H          -0.3951    3.3527    4.1848 H       1  UNL1        0.0270
     42 H          -1.6218    3.1873    2.9050 H       1  UNL1        0.0270
     43 H          -0.0426    4.1003    1.1738 H       1  UNL1        0.0266
     44 H           0.6881    4.9358    2.5694 H       1  UNL1        0.0266
     45 H           2.0934    2.9371    3.1222 H       1  UNL1        0.0270
     46 H           1.9517    2.6022    1.3831 H       1  UNL1        0.0270
     47 H           1.8751   -2.3285   -4.0801 H       1  UNL1        0.0292
     48 H           0.9684   -3.7467   -3.6579 H       1  UNL1        0.0292
     49 H          -0.5160   -2.5870   -2.4021 H       1  UNL1        0.0296
     50 H           0.0523   -1.2154   -3.3263 H       1  UNL1        0.0296
     51 H           3.6773   -4.9126   -2.1505 H       1  UNL1        0.2099
     52 H           1.7298    0.0115   -2.5249 H       1  UNL1        0.2105
     53 H          -0.6531   -7.1047    1.5233 H       1  UNL1        0.2923
     54 H           1.1451    0.8188    0.2229 H       1  UNL1        0.2037
@<TRIPOS>UNITY_ATOM_ATTR
14 1
charge 1
@<TRIPOS>BOND
     1     1     6   ar
     2     1     2   ar
     3     1    30    1
     4     2     3   ar
     5     2    31    1
     6     3     4   ar
     7     3    29    1
     8     4    22    1
     9     4     5   ar
    10     5     6   ar
    11     6     7    1
    12     7     8    1
    13     7    32    1
    14     7    33    1
    15     8     9    1
    16     8    14    1
    17     8    10    1
    18    10    26    1
    19    10    11    1
    20    10    28    1
    21    11     5    1
    22    11    12    1
    23    11    20    1
    24    12    13    1
    25    12    34    1
    26    12    35    1
    27    13    14    1
    28    13    36    1
    29    13    37    1
    30    14    15    1
    31    14    54    1
    32    15    16    1
    33    15    38    1
    34    15    39    1
    35    16    19    1
    36    16    17    1
    37    16    40    1
    38    17    18    1
    39    17    41    1
    40    17    42    1
    41    18    19    1
    42    18    43    1
    43    18    44    1
    44    19    45    1
    45    19    46    1
    46    20    21    1
    47    20    22    1
    48    20    23    1
    49    23    24    1
    50    23    25    1
    51    23    27    1
    52    25    26    1
    53    25    47    1
    54    25    48    1
    55    26    49    1
    56    26    50    1
    57    27    51    1
    58    28    52    1
    59    29    53    1
