@<TRIPOS>MOLECULE
ZINC03860825
 53 57 0 0 0
SMALL
GASTEIGER

@<TRIPOS>ATOM
      1 C          -2.7355   -2.0701   -0.1416 C.3     1  UNL1        0.0817
      2 O          -1.4135   -2.5103   -0.4851 O.3     1  UNL1       -0.4677
      3 C          -1.2398   -2.6959   -1.8260 C.2     1  UNL1        0.3127
      4 O          -2.0997   -2.4753   -2.6655 O.2     1  UNL1       -0.2504
      5 C           0.2033   -3.0982   -2.1598 C.3     1  UNL1        0.0857
      6 H           0.8614   -2.2888   -1.8141 H       1  UNL1        0.0442
      7 C           0.5522   -4.4108   -1.4369 C.3     1  UNL1        0.0684
      8 H           0.4607   -4.3059   -0.3510 H       1  UNL1        0.0601
      9 C           1.9661   -4.8920   -1.7805 C.3     1  UNL1       -0.0256
     10 C           2.1064   -5.1344   -3.2796 C.3     1  UNL1       -0.0428
     11 C           1.7937   -3.8542   -4.0501 C.3     1  UNL1        0.0032
     12 H           2.5491   -3.1067   -3.7658 H       1  UNL1        0.0355
     13 C           0.3950   -3.2817   -3.6964 C.3     1  UNL1       -0.0126
     14 H          -0.3648   -3.9983   -4.0422 H       1  UNL1        0.0316
     15 C           0.1896   -1.9838   -4.4989 C.3     1  UNL1        0.0002
     16 C           0.2865   -2.2681   -5.9987 C.3     1  UNL1        0.0208
     17 H          -0.4348   -3.0369   -6.3056 H       1  UNL1        0.0919
     18 C           0.0986   -1.0494   -6.8186 C.ar    1  UNL1        0.0689
     19 C           0.8619   -0.6875   -7.9148 C.ar    1  UNL1       -0.0086
     20 C           0.3491    0.5379   -8.4049 C.ar    1  UNL1        0.0035
     21 C           0.7103    1.3928   -9.4590 C.ar    1  UNL1       -0.0523
     22 C          -0.0361    2.5571   -9.6693 C.ar    1  UNL1       -0.0611
     23 C          -1.1205    2.8685   -8.8538 C.ar    1  UNL1       -0.0598
     24 C          -1.4957    2.0342   -7.8010 C.ar    1  UNL1       -0.0378
     25 C          -0.7417    0.8739   -7.5992 C.ar    1  UNL1        0.0471
     26 N          -0.8876   -0.1170   -6.6582 N.ar    1  UNL1       -0.3533
     27 H          -1.6205   -0.1209   -5.9522 H       1  UNL1        0.1658
     28 C           2.0108   -1.5084   -8.3905 C.3     1  UNL1        0.0152
     29 C           1.9448   -2.9234   -7.7833 C.3     1  UNL1       -0.0271
     30 N           1.6763   -2.8284   -6.2804 N.4     1  UNL1        0.2421
     31 C           1.9211   -4.1119   -5.5546 C.3     1  UNL1       -0.0281
     32 O          -0.3715   -5.4106   -1.8797 O.3     1  UNL1       -0.3910
     33 H          -2.8518   -2.1312    0.9444 H       1  UNL1        0.0661
     34 H          -3.5030   -2.7039   -0.6028 H       1  UNL1        0.0661
     35 H          -2.8683   -1.0275   -0.4493 H       1  UNL1        0.0661
     36 H           2.7117   -4.1595   -1.4482 H       1  UNL1        0.0290
     37 H           2.1771   -5.8330   -1.2585 H       1  UNL1        0.0290
     38 H           3.1237   -5.4755   -3.5046 H       1  UNL1        0.0271
     39 H           1.4319   -5.9391   -3.5997 H       1  UNL1        0.0271
     40 H           0.9293   -1.2310   -4.1942 H       1  UNL1        0.0327
     41 H          -0.7898   -1.5440   -4.3008 H       1  UNL1        0.0327
     42 H           1.5531    1.1650  -10.1028 H       1  UNL1        0.0624
     43 H           0.2359    3.2266  -10.4845 H       1  UNL1        0.0618
     44 H          -1.6851    3.7835   -9.0415 H       1  UNL1        0.0618
     45 H          -2.3419    2.2837   -7.1676 H       1  UNL1        0.0638
     46 H           2.9440   -1.0238   -8.0780 H       1  UNL1        0.0366
     47 H           2.0187   -1.5765   -9.4832 H       1  UNL1        0.0366
     48 H           2.8978   -3.4440   -7.9195 H       1  UNL1        0.0818
     49 H           1.1348   -3.5227   -8.2157 H       1  UNL1        0.0818
     50 H           2.9345   -4.4424   -5.8071 H       1  UNL1        0.0817
     51 H           1.1963   -4.8497   -5.9170 H       1  UNL1        0.0817
     52 H          -0.0078   -6.2903   -1.6801 H       1  UNL1        0.2098
     53 H           2.3367   -2.1265   -5.9240 H       1  UNL1        0.2040
@<TRIPOS>UNITY_ATOM_ATTR
30 1
charge 1
@<TRIPOS>BOND
     1     1     2    1
     2     1    33    1
     3     1    34    1
     4     1    35    1
     5     2     3    1
     6     3     4    2
     7     5    13    1
     8     5     7    1
     9     7     9    1
    10     9    10    1
    11     9    36    1
    12     9    37    1
    13    10    11    1
    14    10    38    1
    15    10    39    1
    16    11    12    1
    17    11    31    1
    18    11    13    1
    19    13    14    1
    20    13    15    1
    21    15    16    1
    22    15    40    1
    23    15    41    1
    24    16    17    1
    25    16    30    1
    26    16    18    1
    27    18    26   ar
    28    18    19   ar
    29    19    20   ar
    30    19    28    1
    31    20    25   ar
    32    20    21   ar
    33    21    22   ar
    34    21    42    1
    35    22    23   ar
    36    22    43    1
    37    23    24   ar
    38    23    44    1
    39    24    25   ar
    40    24    45    1
    41    25    26   ar
    42    26    27    1
    43    28    29    1
    44    28    46    1
    45    28    47    1
    46    29    30    1
    47    29    48    1
    48    29    49    1
    49    30    31    1
    50    30    53    1
    51    31    50    1
    52    31    51    1
    53    32    52    1
    54     5     6    1
    55     5     3    1
    56     7    32    1
    57     7     8    1
