@<TRIPOS>MOLECULE
ZINC00897002
 47 48 0 0 0
SMALL
GASTEIGER

@<TRIPOS>ATOM
      1 C           3.2049    2.4545    0.3419 C.3     1  UNL1       -0.0605
      2 C           2.7973    2.6040   -1.1132 C.3     1  UNL1       -0.0153
      3 C           1.3785    2.1334   -1.4109 C.3     1  UNL1       -0.0314
      4 N           0.2972    2.9028   -0.6814 N.4     1  UNL1        0.2439
      5 C          -1.0600    2.2331   -0.8290 C.3     1  UNL1       -0.0312
      6 C          -1.6139    2.4575   -2.2306 C.3     1  UNL1       -0.0123
      7 C          -1.6796    3.9404   -2.5809 C.3     1  UNL1       -0.0427
      8 C          -0.3434    4.6437   -2.3605 C.3     1  UNL1       -0.0008
      9 C           0.2184    4.4378   -0.9581 C.3     1  UNL1        0.0570
     10 H           1.2494    4.8031   -0.9187 H       1  UNL1        0.0950
     11 C          -0.4842    5.1725    0.2311 C.2     1  UNL1        0.2655
     12 O          -0.4150    4.6227    1.3370 O.2     1  UNL1       -0.2693
     13 N          -1.0994    6.3922   -0.0244 N.am    1  UNL1       -0.2804
     14 C          -1.6796    7.1647    1.0271 C.ar    1  UNL1        0.0394
     15 C          -3.0168    7.6037    0.9198 C.ar    1  UNL1       -0.0290
     16 C          -3.6575    8.1455    2.0506 C.ar    1  UNL1       -0.0571
     17 C          -2.9701    8.3320    3.2461 C.ar    1  UNL1       -0.0611
     18 C          -1.6080    8.0691    3.2904 C.ar    1  UNL1       -0.0571
     19 C          -0.9401    7.5262    2.1732 C.ar    1  UNL1       -0.0290
     20 C           0.5599    7.6363    2.1691 C.3     1  UNL1       -0.0379
     21 C          -3.7902    7.5454   -0.3670 C.3     1  UNL1       -0.0379
     22 H           2.7133    3.2015    0.9709 H       1  UNL1        0.0232
     23 H           4.2866    2.5912    0.4403 H       1  UNL1        0.0232
     24 H           2.9568    1.4580    0.7220 H       1  UNL1        0.0232
     25 H           2.9515    3.6368   -1.4402 H       1  UNL1        0.0314
     26 H           3.4796    1.9964   -1.7218 H       1  UNL1        0.0314
     27 H           1.1803    2.2068   -2.4840 H       1  UNL1        0.0814
     28 H           1.2738    1.0824   -1.1168 H       1  UNL1        0.0814
     29 H          -1.7199    2.6605   -0.0669 H       1  UNL1        0.0815
     30 H          -0.9344    1.1674   -0.6125 H       1  UNL1        0.0815
     31 H          -2.6174    2.0222   -2.3016 H       1  UNL1        0.0317
     32 H          -1.0002    1.9314   -2.9714 H       1  UNL1        0.0317
     33 H          -1.9801    4.0538   -3.6287 H       1  UNL1        0.0269
     34 H          -2.4544    4.4238   -1.9733 H       1  UNL1        0.0269
     35 H           0.3784    4.2589   -3.0918 H       1  UNL1        0.0325
     36 H          -0.4451    5.7101   -2.5852 H       1  UNL1        0.0325
     37 H          -1.5682    6.4848   -0.9171 H       1  UNL1        0.1550
     38 H          -4.7059    8.4438    1.9972 H       1  UNL1        0.0621
     39 H          -3.4741    8.7501    4.1093 H       1  UNL1        0.0618
     40 H          -1.0489    8.3345    4.1863 H       1  UNL1        0.0621
     41 H           1.0356    7.0612    1.3735 H       1  UNL1        0.0278
     42 H           0.8223    8.6903    2.0059 H       1  UNL1        0.0278
     43 H           0.9848    7.3186    3.1254 H       1  UNL1        0.0278
     44 H          -3.2541    8.1107   -1.1373 H       1  UNL1        0.0278
     45 H          -3.9320    6.5169   -0.6918 H       1  UNL1        0.0278
     46 H          -4.7779    8.0126   -0.2642 H       1  UNL1        0.0278
     47 H           0.5000    2.8508    0.3341 H       1  UNL1        0.2041
@<TRIPOS>UNITY_ATOM_ATTR
4 1
charge 1
@<TRIPOS>BOND
     1     1     2    1
     2     1    22    1
     3     1    23    1
     4     1    24    1
     5     2     3    1
     6     2    25    1
     7     2    26    1
     8     3    27    1
     9     3    28    1
    10     4     9    1
    11     4     5    1
    12     5     6    1
    13     5    29    1
    14     5    30    1
    15     6     7    1
    16     6    31    1
    17     6    32    1
    18     7     8    1
    19     7    33    1
    20     7    34    1
    21     8     9    1
    22     8    35    1
    23     8    36    1
    24     9    10    1
    25     9    11    1
    26    11    12    2
    27    11    13   am
    28    13    14    1
    29    13    37    1
    30    14    19   ar
    31    14    15   ar
    32    15    16   ar
    33    15    21    1
    34    16    17   ar
    35    16    38    1
    36    17    18   ar
    37    17    39    1
    38    18    19   ar
    39    18    40    1
    40    19    20    1
    41    20    41    1
    42    20    42    1
    43    20    43    1
    44    21    44    1
    45    21    45    1
    46    21    46    1
    47     4    47    1
    48     4     3    1
