@<TRIPOS>MOLECULE
ZINC00056721
 26 27 0 0 0
SMALL
GASTEIGER

@<TRIPOS>ATOM
      1 C          -0.8072    2.1922    1.5582 C.3     1  UNL1       -0.0307
      2 C           0.4373    2.9800    1.1934 C.3     1  UNL1        0.0868
      3 O           1.1936    2.2191    0.2493 O.3     1  UNL1       -0.4922
      4 C           2.5078    2.5784    0.1029 C.ar    1  UNL1        0.1217
      5 C           3.3207    1.6062   -0.4769 C.ar    1  UNL1       -0.0179
      6 C           4.6962    1.8159   -0.6312 C.ar    1  UNL1       -0.0317
      7 C           5.2673    3.0298   -0.2040 C.ar    1  UNL1        0.0806
      8 C           4.4301    4.0061    0.3430 C.ar    1  UNL1        0.0443
      9 C           3.0455    3.8101    0.4884 C.ar    1  UNL1       -0.0041
     10 S           5.3733    5.3829    0.7745 S.2     1  UNL1       -0.0472
     11 C           6.7705    4.5750    0.2289 C.ar    1  UNL1        0.2332
     12 N           6.6080    3.3675   -0.2763 N.ar    1  UNL1       -0.2206
     13 S           8.3097    5.4487    0.3381 S.O2    1  UNL1        0.0798
     14 O           8.2329    6.5178   -0.6335 O.2     1  UNL1       -0.1512
     15 O           8.5636    5.6977    1.7405 O.2     1  UNL1       -0.1512
     16 N           9.5502    4.4442   -0.2087 N.3     1  UNL1       -0.2016
     17 H          -1.3403    1.8584    0.6627 H       1  UNL1        0.0262
     18 H          -1.4803    2.7965    2.1731 H       1  UNL1        0.0262
     19 H          -0.5344    1.2944    2.1234 H       1  UNL1        0.0262
     20 H           0.1485    3.9355    0.7417 H       1  UNL1        0.0694
     21 H           1.0117    3.1590    2.1105 H       1  UNL1        0.0694
     22 H           2.8857    0.6619   -0.7977 H       1  UNL1        0.0655
     23 H           5.3266    1.0451   -1.0636 H       1  UNL1        0.0640
     24 H           2.4345    4.6047    0.9004 H       1  UNL1        0.0666
     25 H           9.4901    4.3392   -1.2221 H       1  UNL1        0.1443
     26 H          10.4489    4.8169    0.0951 H       1  UNL1        0.1443
@<TRIPOS>BOND
     1     1     2    1
     2     1    17    1
     3     1    18    1
     4     1    19    1
     5     2     3    1
     6     2    20    1
     7     2    21    1
     8     3     4    1
     9     4     9   ar
    10     4     5   ar
    11     5     6   ar
    12     5    22    1
    13     6     7   ar
    14     6    23    1
    15     7    12   ar
    16     7     8   ar
    17     8     9   ar
    18     8    10   ar
    19     9    24    1
    20    10    11   ar
    21    11    12   ar
    22    11    13    1
    23    13    14    2
    24    13    15    2
    25    13    16    1
    26    16    25    1
    27    16    26    1
