@<TRIPOS>MOLECULE
ZINC00014360
 42 43 0 0 0
SMALL
GASTEIGER

@<TRIPOS>ATOM
      1 C          -3.3155   -1.8305   -0.4307 C.3     1  UNL1        0.0055
      2 N          -3.8646   -0.5309   -0.0157 N.3     1  UNL1       -0.1973
      3 S          -3.6182    0.7790   -1.0508 S.O2    1  UNL1        0.0332
      4 O          -4.0914    0.3734   -2.3580 O.2     1  UNL1       -0.1579
      5 O          -4.2164    1.9220   -0.3848 O.2     1  UNL1       -0.1579
      6 C          -1.8127    0.9390   -1.0666 C.3     1  UNL1        0.1067
      7 C          -1.4380    2.1130   -1.9354 C.ar    1  UNL1       -0.0243
      8 C          -0.7829    1.9205   -3.1567 C.ar    1  UNL1       -0.0550
      9 C          -0.4796    2.9971   -3.9995 C.ar    1  UNL1       -0.0375
     10 C          -0.8830    4.2741   -3.5949 C.ar    1  UNL1        0.0468
     11 C          -1.5116    4.5104   -2.3764 C.ar    1  UNL1        0.0033
     12 C          -1.7510    3.4178   -1.5227 C.ar    1  UNL1       -0.0475
     13 C          -1.7776    5.9131   -2.2841 C.ar    1  UNL1       -0.0173
     14 C          -1.3181    6.4793   -3.4565 C.ar    1  UNL1        0.0061
     15 N          -0.7542    5.4888   -4.2235 N.ar    1  UNL1       -0.3604
     16 H          -0.3054    5.6238   -5.1201 H       1  UNL1        0.1653
     17 C          -2.4147    6.6130   -1.1240 C.3     1  UNL1        0.0147
     18 C          -3.7626    7.2663   -1.4436 C.3     1  UNL1       -0.0283
     19 N          -4.7766    6.3086   -2.0441 N.4     1  UNL1        0.2311
     20 C          -5.2011    5.1939   -1.1248 C.3     1  UNL1       -0.0433
     21 C          -5.9721    7.0493   -2.5744 C.3     1  UNL1       -0.0433
     22 H          -2.2256   -1.8219   -0.3626 H       1  UNL1        0.0405
     23 H          -3.6285   -2.0903   -1.4444 H       1  UNL1        0.0405
     24 H          -3.6882   -2.6042    0.2462 H       1  UNL1        0.0405
     25 H          -4.8549   -0.5801    0.2325 H       1  UNL1        0.1473
     26 H          -1.4673    1.0838   -0.0386 H       1  UNL1        0.0565
     27 H          -1.4030    0.0104   -1.4709 H       1  UNL1        0.0565
     28 H          -0.4947    0.9192   -3.4763 H       1  UNL1        0.0621
     29 H           0.0405    2.8339   -4.9391 H       1  UNL1        0.0638
     30 H          -2.2143    3.5796   -0.5528 H       1  UNL1        0.0627
     31 H          -1.3034    7.5028   -3.8080 H       1  UNL1        0.0810
     32 H          -2.5362    5.9222   -0.2824 H       1  UNL1        0.0366
     33 H          -1.7253    7.3889   -0.7679 H       1  UNL1        0.0366
     34 H          -4.2126    7.6960   -0.5417 H       1  UNL1        0.0817
     35 H          -3.6183    8.0670   -2.1784 H       1  UNL1        0.0817
     36 H          -5.6599    5.6334   -0.2352 H       1  UNL1        0.0777
     37 H          -5.9141    4.5637   -1.6633 H       1  UNL1        0.0777
     38 H          -4.3238    4.6078   -0.8609 H       1  UNL1        0.0777
     39 H          -5.6240    7.7963   -3.2917 H       1  UNL1        0.0777
     40 H          -6.6278    6.3316   -3.0736 H       1  UNL1        0.0777
     41 H          -6.4841    7.5272   -1.7329 H       1  UNL1        0.0777
     42 H          -4.3147    5.8576   -2.8493 H       1  UNL1        0.2028
@<TRIPOS>UNITY_ATOM_ATTR
19 1
charge 1
@<TRIPOS>BOND
     1     1     2    1
     2     1    22    1
     3     1    23    1
     4     1    24    1
     5     2     3    1
     6     2    25    1
     7     3     4    2
     8     3     5    2
     9     3     6    1
    10     6     7    1
    11     6    26    1
    12     6    27    1
    13     7    12   ar
    14     7     8   ar
    15     8     9   ar
    16     8    28    1
    17     9    10   ar
    18     9    29    1
    19    10    15   ar
    20    10    11   ar
    21    11    12   ar
    22    11    13   ar
    23    12    30    1
    24    13    14   ar
    25    13    17    1
    26    14    15   ar
    27    14    31    1
    28    15    16    1
    29    17    18    1
    30    17    32    1
    31    17    33    1
    32    18    19    1
    33    18    34    1
    34    18    35    1
    35    19    20    1
    36    19    21    1
    37    19    42    1
    38    20    36    1
    39    20    37    1
    40    20    38    1
    41    21    39    1
    42    21    40    1
    43    21    41    1
