@<TRIPOS>MOLECULE
ZINC03798750
 20 19 0 0 0
SMALL
GASTEIGER

@<TRIPOS>ATOM
      1 C          -2.5576   -2.4943    1.0002 C.2     1  UNL1       -0.0974
      2 C          -1.7618   -1.5674    1.5578 C.2     1  UNL1       -0.0436
      3 C          -1.2940   -0.2556    0.9695 C.3     1  UNL1       -0.0053
      4 H          -0.1982   -0.2644    0.9594 H       1  UNL1        0.0897
      5 C          -1.7933    0.9283    1.8332 C.3     1  UNL1        0.0042
      6 C          -1.2527    2.3192    1.4662 C.3     1  UNL1        0.0546
      7 C          -1.7188    2.6232    0.0581 C.2     1  UNL1        0.3562
      8 O          -2.8902    3.0456   -0.0682 O.co2   1  UNL1       -0.2464
      9 O          -0.9573    2.1215   -0.8319 O.co2   1  UNL1       -0.2464
     10 N          -1.7055   -0.1205   -0.4358 N.4     1  UNL1        0.2236
     11 H          -3.0016   -2.3937    0.0153 H       1  UNL1        0.0534
     12 H          -2.8193   -3.3942    1.5547 H       1  UNL1        0.0534
     13 H          -1.3906   -1.7694    2.5642 H       1  UNL1        0.0622
     14 H          -2.8921    0.9508    1.8211 H       1  UNL1        0.0328
     15 H          -1.5070    0.7432    2.8774 H       1  UNL1        0.0328
     16 H          -1.6432    3.0726    2.1591 H       1  UNL1        0.0381
     17 H          -0.1590    2.3424    1.5278 H       1  UNL1        0.0381
     18 H          -1.1995    0.7095   -0.8541 H       1  UNL1        0.2000
     19 H          -1.4727   -0.9087   -1.0328 H       1  UNL1        0.2000
     20 H          -2.6874    0.1584   -0.5369 H       1  UNL1        0.2000
@<TRIPOS>UNITY_ATOM_ATTR
10 1
charge 1
@<TRIPOS>BOND
     1     1     2    2
     2     1    11    1
     3     1    12    1
     4     2    13    1
     5     3     5    1
     6     3    10    1
     7     5     6    1
     8     5    14    1
     9     5    15    1
    10     6     7    1
    11     6    16    1
    12     6    17    1
    13     7     8   ar
    14     7     9   ar
    15    10    18    1
    16    10    19    1
    17    10    20    1
    18     3     4    1
    19     3     2    1
