@<TRIPOS>MOLECULE
ZINC00538386
 58 60 0 0 0
SMALL
GASTEIGER

@<TRIPOS>ATOM
      1 C           2.8654   -0.5239   -1.3121 C.3     1  UNL1       -0.0570
      2 C           2.3774   -0.2067    0.0939 C.3     1  UNL1        0.0217
      3 C           2.9780    1.0837    0.6544 C.2     1  UNL1        0.2201
      4 O           3.9199    1.6278    0.0771 O.2     1  UNL1       -0.2752
      5 N           2.4192    1.6256    1.8365 N.am    1  UNL1       -0.2627
      6 C           1.5549    0.8308    2.6592 C.ar    1  UNL1        0.0370
      7 C           0.3168    1.3149    3.0838 C.ar    1  UNL1       -0.0402
      8 C          -0.4132    0.6130    4.0478 C.ar    1  UNL1       -0.0600
      9 C           0.0636   -0.5880    4.5716 C.ar    1  UNL1       -0.0616
     10 C           1.2459   -1.1258    4.0793 C.ar    1  UNL1       -0.0600
     11 C           1.9824   -0.4234    3.1240 C.ar    1  UNL1       -0.0402
     12 C           2.9564    2.9769    2.3548 C.3     1  UNL1        0.0750
     13 C           4.4762    2.8909    2.6568 C.3     1  UNL1        0.0117
     14 C           4.7718    1.8397    3.7070 C.3     1  UNL1       -0.0298
     15 C           2.6527    2.6914    4.9323 C.3     1  UNL1       -0.0298
     16 C           2.3896    3.5275    3.6969 C.3     1  UNL1        0.0117
     17 C           3.8778    0.7490    5.8049 C.3     1  UNL1       -0.0273
     18 C           5.1959    0.0667    6.1644 C.3     1  UNL1        0.0189
     19 C           5.9918    0.8376    7.1541 C.ar    1  UNL1       -0.0052
     20 C           7.2613    1.3552    7.0153 C.ar    1  UNL1       -0.0514
     21 C           7.7138    1.9890    8.2064 C.ar    1  UNL1       -0.0545
     22 C           6.7732    1.9404    9.2104 C.ar    1  UNL1       -0.0241
     23 S           5.3594    1.1230    8.7245 S.2     1  UNL1       -0.1014
     24 C           2.6812    4.0885    1.2758 C.3     1  UNL1        0.0694
     25 O           3.2133    5.3519    1.6914 O.3     1  UNL1       -0.3808
     26 C           2.8265    6.4097    0.8178 C.3     1  UNL1        0.0365
     27 H           2.8412    0.3548   -1.9628 H       1  UNL1        0.0234
     28 H           2.2413   -1.3046   -1.7583 H       1  UNL1        0.0234
     29 H           3.8954   -0.8972   -1.2848 H       1  UNL1        0.0234
     30 H           1.2867   -0.1258    0.0881 H       1  UNL1        0.0356
     31 H           2.6763   -1.0501    0.7202 H       1  UNL1        0.0356
     32 H          -0.0909    2.2429    2.6885 H       1  UNL1        0.0636
     33 H          -1.3634    1.0148    4.4073 H       1  UNL1        0.0618
     34 H          -0.4874   -1.1047    5.3543 H       1  UNL1        0.0618
     35 H           1.6210   -2.0699    4.4731 H       1  UNL1        0.0618
     36 H           2.9370   -0.8410    2.8167 H       1  UNL1        0.0636
     37 H           5.0626    2.6654    1.7620 H       1  UNL1        0.0339
     38 H           4.8619    3.8589    3.0050 H       1  UNL1        0.0339
     39 H           4.5404    0.8390    3.3350 H       1  UNL1        0.0815
     40 H           5.8360    1.8633    3.9640 H       1  UNL1        0.0815
     41 H           2.5610    3.3126    5.8319 H       1  UNL1        0.0815
     42 H           1.9063    1.9075    5.0439 H       1  UNL1        0.0815
     43 H           2.8490    4.5057    3.9051 H       1  UNL1        0.0339
     44 H           1.3209    3.7535    3.6153 H       1  UNL1        0.0339
     45 H           3.2829    0.9853    6.6943 H       1  UNL1        0.0818
     46 H           3.3030    0.0656    5.1943 H       1  UNL1        0.0818
     47 H           4.9682   -0.9233    6.5783 H       1  UNL1        0.0370
     48 H           5.7878   -0.1247    5.2599 H       1  UNL1        0.0370
     49 H           7.8587    1.2591    6.1147 H       1  UNL1        0.0626
     50 H           8.6895    2.4414    8.3310 H       1  UNL1        0.0623
     51 H           6.8556    2.3290   10.2165 H       1  UNL1        0.0693
     52 H           3.1314    3.8426    0.3105 H       1  UNL1        0.0581
     53 H           1.5979    4.1862    1.1271 H       1  UNL1        0.0581
     54 H           2.9486    6.1265   -0.2322 H       1  UNL1        0.0523
     55 H           1.7861    6.6874    1.0133 H       1  UNL1        0.0523
     56 H           3.4602    7.2781    1.0211 H       1  UNL1        0.0523
     57 N           4.0206    2.0491    5.0032 N.4     1  UNL1        0.2356
     58 H           4.5995    2.6845    5.5731 H       1  UNL1        0.2033
@<TRIPOS>UNITY_ATOM_ATTR
57 1
charge 1
@<TRIPOS>BOND
     1     1     2    1
     2     1    27    1
     3     1    28    1
     4     1    29    1
     5     2     3    1
     6     2    30    1
     7     2    31    1
     8     3     4    2
     9     3     5   am
    10     5     6    1
    11     6    11   ar
    12     6     7   ar
    13     7     8   ar
    14     7    32    1
    15     8     9   ar
    16     8    33    1
    17     9    10   ar
    18     9    34    1
    19    10    11   ar
    20    10    35    1
    21    11    36    1
    22    12     5    1
    23    12    16    1
    24    12    13    1
    25    12    24    1
    26    13    14    1
    27    13    37    1
    28    13    38    1
    29    14    39    1
    30    14    40    1
    31    14    57    1
    32    15    16    1
    33    15    41    1
    34    15    42    1
    35    15    57    1
    36    16    43    1
    37    16    44    1
    38    17    18    1
    39    17    45    1
    40    17    46    1
    41    18    19    1
    42    18    47    1
    43    18    48    1
    44    19    23   ar
    45    19    20   ar
    46    20    21   ar
    47    20    49    1
    48    21    22   ar
    49    21    50    1
    50    22    23   ar
    51    22    51    1
    52    24    25    1
    53    24    52    1
    54    24    53    1
    55    25    26    1
    56    26    54    1
    57    26    55    1
    58    26    56    1
    59    57    58    1
    60    57    17    1
