@<TRIPOS>MOLECULE
ZINC03823492
 36 38 0 0 0
SMALL
GASTEIGER

@<TRIPOS>ATOM
      1 C           1.6946   -0.7866   -0.0206 C.3     1  UNL1        0.0805
      2 O           0.5608   -1.0492   -0.8376 O.3     1  UNL1       -0.4781
      3 C           0.8446   -0.9799   -2.1883 C.ar    1  UNL1        0.2474
      4 C          -0.1557   -1.1998   -3.1284 C.ar    1  UNL1        0.1693
      5 C           0.2324   -1.1499   -4.4586 C.ar    1  UNL1        0.1712
      6 N           1.4663   -0.8647   -4.9214 N.ar    1  UNL1       -0.1947
      7 C           2.3325   -0.6135   -3.9232 C.ar    1  UNL1        0.2176
      8 N           2.1012   -0.6870   -2.6057 N.ar    1  UNL1       -0.1777
      9 N           3.6255   -0.2591   -4.2756 N.pl3   1  UNL1       -0.3273
     10 N          -0.9043   -1.4495   -5.1644 N.ar    1  UNL1       -0.2854
     11 C          -1.9236   -1.5720   -4.2546 C.ar    1  UNL1        0.1005
     12 N          -1.5016   -1.4633   -3.0168 N.ar    1  UNL1       -0.2287
     13 C1*        -1.0190   -1.6016   -6.6050 C.3     1  UNL1        0.1667
     14 H1*        -0.2947   -0.9204   -7.0635 H       1  UNL1        0.0866
     15 C2*        -0.8480   -3.0339   -7.1294 C.3     1  UNL1        0.1285
     16 H2*        -0.4709   -3.0031   -8.1600 H       1  UNL1        0.0665
     17 C3*        -2.2731   -3.5592   -7.1292 C.3     1  UNL1        0.1135
     18 H3*        -2.5550   -3.9078   -6.1293 H       1  UNL1        0.0647
     19 C4*        -3.0452   -2.3166   -7.5645 C.3     1  UNL1        0.1126
     20 H4*        -3.0256   -2.2311   -8.6585 H       1  UNL1        0.0647
     21 O4*        -2.3511   -1.1777   -7.0146 O.3     1  UNL1       -0.3457
     22 C5*        -4.5036   -2.3319   -7.1075 C.3     1  UNL1        0.0730
     23 O5*        -5.1954   -3.4499   -7.6513 O.3     1  UNL1       -0.3924
     24 O3*        -2.4086   -4.6577   -8.0250 O.3     1  UNL1       -0.3864
     25 O2*         0.0296   -3.8665   -6.3855 O.3     1  UNL1       -0.3847
     26 H           1.3655   -0.8015    1.0223 H       1  UNL1        0.0660
     27 H           2.1113    0.2055   -0.2235 H       1  UNL1        0.0660
     28 H           2.4546   -1.5660   -0.1446 H       1  UNL1        0.0660
     29 H           3.8688   -0.6388   -5.1753 H       1  UNL1        0.1452
     30 H           4.2453   -0.4496   -3.5021 H       1  UNL1        0.1452
     31 H          -2.9510   -1.7427   -4.5397 H       1  UNL1        0.1030
     32 H5*1       -4.5704   -2.3910   -6.0161 H       1  UNL1        0.0584
     33 H5*2       -5.0163   -1.4061   -7.3953 H       1  UNL1        0.0584
     34 H5*        -5.5215   -3.1880   -8.5319 H       1  UNL1        0.2095
     35 H3*        -3.3239   -4.9889   -7.9223 H       1  UNL1        0.2100
     36 H2*        -0.0521   -4.7627   -6.7648 H       1  UNL1        0.2101
@<TRIPOS>BOND
     1     1     2    1
     2     1    26    1
     3     1    27    1
     4     1    28    1
     5     2     3    1
     6     3     8   ar
     7     3     4   ar
     8     4    12   ar
     9     4     5   ar
    10     5     6   ar
    11     5    10   ar
    12     6     7   ar
    13     7     8   ar
    14     7     9    1
    15     9    29    1
    16     9    30    1
    17    10    11   ar
    18    10    13    1
    19    11    12   ar
    20    11    31    1
    21    13    14    1
    22    13    21    1
    23    13    15    1
    24    15    16    1
    25    15    17    1
    26    15    25    1
    27    17    18    1
    28    17    19    1
    29    17    24    1
    30    19    20    1
    31    19    21    1
    32    19    22    1
    33    22    23    1
    34    22    32    1
    35    22    33    1
    36    23    34    1
    37    24    35    1
    38    25    36    1
