@<TRIPOS>MOLECULE
ZINC01532522
 25 24 0 0 0
SMALL
GASTEIGER

@<TRIPOS>ATOM
      1 CG          0.9465    0.0611    0.0478 C.3     1  LYS1       -0.0426
      2 CD          0.3960   -1.2119    0.6936 C.3     1  LYS1       -0.0124
      3 CE         -1.1188   -1.3987    0.6059 C.3     1  LYS1       -0.0354
      4 NZ         -1.5914   -1.3422   -0.7967 N.4     1  LYS1        0.2185
      5 CB          0.4516    1.3627    0.7025 C.3     1  LYS1        0.0011
      6 CA          0.9067    2.6346   -0.0420 C.3     1  LYS1        0.0785
      7 HA          1.9936    2.7583   -0.0594 H       1  LYS1        0.0970
      8 C           0.2473    2.5081   -1.4428 C.2     1  LYS1        0.4026
      9 O          -0.9661    2.8822   -1.3931 O.co2   1  LYS1       -0.2400
     10 OXT         0.9327    2.0047   -2.3554 O.co2   1  LYS1       -0.2400
     11 N           0.3193    3.8292    0.6840 N.4     1  LYS1        0.2289
     12 HG1         0.6874    0.0225   -1.0134 H       1  LYS1        0.0269
     13 HG2         2.0419    0.0395    0.0928 H       1  LYS1        0.0269
     14 HD1         0.8791   -2.0707    0.2092 H       1  LYS1        0.0317
     15 HD2         0.6974   -1.2412    1.7467 H       1  LYS1        0.0317
     16 HE1        -1.3997   -2.3810    0.9959 H       1  LYS1        0.0813
     17 HE2        -1.6682   -0.6333    1.1614 H       1  LYS1        0.0813
     18 HZ1        -1.0043   -1.9045   -1.4286 H       1  LYS1        0.1994
     19 HZ2        -2.5578   -1.6921   -0.8858 H       1  LYS1        0.1994
     20 HB1        -0.6448    1.3481    0.7572 H       1  LYS1        0.0325
     21 HB2         0.8106    1.3966    1.7381 H       1  LYS1        0.0325
     22 H1         -0.6664    3.8540    0.3434 H       1  LYS1        0.2002
     23 H2          0.3551    3.8037    1.7046 H       1  LYS1        0.2002
     24 H3          0.7307    4.6960    0.3220 H       1  LYS1        0.2002
     25 HZ3        -1.5914   -0.3821   -1.1788 H       1  LYS1        0.1994
@<TRIPOS>UNITY_ATOM_ATTR
4 1
charge 1
11 1
charge 1
@<TRIPOS>BOND
     1     1     2    1
     2     1     5    1
     3     1    12    1
     4     1    13    1
     5     2     3    1
     6     2    14    1
     7     2    15    1
     8     3     4    1
     9     3    16    1
    10     3    17    1
    11     4    18    1
    12     4    19    1
    13     4    25    1
    14     5     6    1
    15     5    20    1
    16     5    21    1
    17     6     7    1
    18     6     8    1
    19     6    11    1
    20     8     9   ar
    21     8    10   ar
    22    11    22    1
    23    11    23    1
    24    11    24    1
