@<TRIPOS>MOLECULE
ZINC03872317
 55 55 0 0 0
SMALL
GASTEIGER

@<TRIPOS>ATOM
      1 C          -2.6157    2.1433   -3.2616 C.3     1  UNL1       -0.0499
      2 C          -1.5673    2.1303   -2.1316 C.3     1  UNL1        0.0598
      3 C          -2.2851    2.4722   -0.8159 C.3     1  UNL1       -0.0499
      4 C          -0.9277    0.7442   -2.0436 C.3     1  UNL1       -0.0499
      5 C          -0.4773    3.1661   -2.4410 C.2     1  UNL1        0.3179
      6 O          -0.3580    3.7431   -3.5166 O.2     1  UNL1       -0.2498
      7 O           0.3544    3.3785   -1.3337 O.3     1  UNL1       -0.4217
      8 C           0.9918    4.6337   -1.2846 C.ar    1  UNL1        0.1738
      9 C           0.2420    5.7911   -1.5388 C.ar    1  UNL1       -0.0152
     10 C           0.8230    7.0573   -1.4340 C.ar    1  UNL1       -0.0522
     11 C           2.1505    7.2069   -1.0158 C.ar    1  UNL1       -0.0104
     12 C           2.8521    6.0432   -0.6557 C.ar    1  UNL1       -0.0097
     13 C           2.3135    4.7588   -0.8498 C.ar    1  UNL1        0.1741
     14 O           3.0851    3.6089   -0.5399 O.3     1  UNL1       -0.4217
     15 C           4.4702    3.6241   -0.7875 C.2     1  UNL1        0.3179
     16 O           5.0574    4.5206   -1.3967 O.2     1  UNL1       -0.2498
     17 C           5.1755    2.3682   -0.2494 C.3     1  UNL1        0.0598
     18 C           5.2291    1.3400   -1.3822 C.3     1  UNL1       -0.0499
     19 C           6.6154    2.7374    0.1644 C.3     1  UNL1       -0.0499
     20 C           4.4802    1.7618    0.9774 C.3     1  UNL1       -0.0499
     21 C           2.7767    8.5882   -0.9023 C.3     1  UNL1        0.1198
     22 H           2.5571    8.9870    0.0939 H       1  UNL1        0.0698
     23 C           4.3002    8.6367   -1.1740 C.3     1  UNL1       -0.0030
     24 N           4.5713    8.1791   -2.5891 N.4     1  UNL1        0.2269
     25 C           5.9878    8.2347   -3.0009 C.3     1  UNL1       -0.0448
     26 O           2.1976    9.4556   -1.8920 O.3     1  UNL1       -0.3819
     27 H          -3.4843    1.5238   -3.0106 H       1  UNL1        0.0240
     28 H          -2.1965    1.7606   -4.1992 H       1  UNL1        0.0240
     29 H          -2.9806    3.1588   -3.4576 H       1  UNL1        0.0240
     30 H          -3.1192    1.7850   -0.6304 H       1  UNL1        0.0240
     31 H          -1.6112    2.4027    0.0444 H       1  UNL1        0.0240
     32 H          -2.6893    3.4913   -0.8355 H       1  UNL1        0.0240
     33 H          -0.3801    0.5063   -2.9621 H       1  UNL1        0.0240
     34 H          -0.2126    0.6899   -1.2149 H       1  UNL1        0.0240
     35 H          -1.6838   -0.0323   -1.8875 H       1  UNL1        0.0240
     36 H          -0.8034    5.7246   -1.8345 H       1  UNL1        0.0656
     37 H           0.2119    7.9261   -1.6778 H       1  UNL1        0.0622
     38 H           3.8414    6.1237   -0.2161 H       1  UNL1        0.0659
     39 H           5.7661    1.7360   -2.2513 H       1  UNL1        0.0240
     40 H           5.7288    0.4169   -1.0671 H       1  UNL1        0.0240
     41 H           4.2193    1.0764   -1.7205 H       1  UNL1        0.0240
     42 H           6.6190    3.5113    0.9410 H       1  UNL1        0.0240
     43 H           7.1557    1.8675    0.5578 H       1  UNL1        0.0240
     44 H           7.1941    3.1238   -0.6827 H       1  UNL1        0.0240
     45 H           4.3644    2.5035    1.7760 H       1  UNL1        0.0240
     46 H           3.4851    1.3769    0.7316 H       1  UNL1        0.0240
     47 H           5.0597    0.9242    1.3854 H       1  UNL1        0.0240
     48 H           4.6573    9.6703   -1.1199 H       1  UNL1        0.0843
     49 H           4.8877    8.0100   -0.5002 H       1  UNL1        0.0843
     50 H           4.2215    7.2169   -2.7056 H       1  UNL1        0.2012
     51 H           6.5725    7.6492   -2.2864 H       1  UNL1        0.0777
     52 H           6.0594    7.8022   -4.0010 H       1  UNL1        0.0777
     53 H           6.3057    9.2799   -3.0067 H       1  UNL1        0.0777
     54 H           1.9443   10.2856   -1.4430 H       1  UNL1        0.2105
     55 H           3.9670    8.7482   -3.2102 H       1  UNL1        0.2012
@<TRIPOS>UNITY_ATOM_ATTR
24 1
charge 1
@<TRIPOS>BOND
     1     1     2    1
     2     1    27    1
     3     1    28    1
     4     1    29    1
     5     2     3    1
     6     2     4    1
     7     2     5    1
     8     3    30    1
     9     3    31    1
    10     3    32    1
    11     4    33    1
    12     4    34    1
    13     4    35    1
    14     5     6    2
    15     5     7    1
    16     7     8    1
    17     8    13   ar
    18     8     9   ar
    19     9    10   ar
    20     9    36    1
    21    10    11   ar
    22    10    37    1
    23    11    12   ar
    24    11    21    1
    25    12    13   ar
    26    12    38    1
    27    13    14    1
    28    14    15    1
    29    15    16    2
    30    15    17    1
    31    17    18    1
    32    17    19    1
    33    17    20    1
    34    18    39    1
    35    18    40    1
    36    18    41    1
    37    19    42    1
    38    19    43    1
    39    19    44    1
    40    20    45    1
    41    20    46    1
    42    20    47    1
    43    21    22    1
    44    21    23    1
    45    21    26    1
    46    23    24    1
    47    23    48    1
    48    23    49    1
    49    24    25    1
    50    24    50    1
    51    24    55    1
    52    25    51    1
    53    25    52    1
    54    25    53    1
    55    26    54    1
