@<TRIPOS>MOLECULE
ZINC03820029
 64 68 0 0 0
SMALL
GASTEIGER

@<TRIPOS>ATOM
      1 C          -3.6810   -4.8503   -3.0408 C.3     1  UNL1       -0.0025
      2 C          -2.6452   -4.4548   -2.0010 C.1     1  UNL1       -0.1038
      3 C          -1.7567   -4.1156   -1.1091 C.1     1  UNL1       -0.0806
      4 C          -0.6346   -3.8278   -0.2554 C.3     1  UNL1        0.0878
      5 N          -0.9768   -4.2387    1.0732 N.ar    1  UNL1       -0.2946
      6 C          -1.3804   -3.3603    2.0200 C.ar    1  UNL1        0.1537
      7 C          -1.3759   -4.0675    3.1701 C.ar    1  UNL1        0.1698
      8 N          -1.0739   -5.4108    2.9284 N.ar    1  UNL1       -0.1959
      9 C          -0.9083   -5.5152    1.6113 C.ar    1  UNL1        0.2017
     10 N          -0.5899   -6.5728    0.7855 N.pl3   1  UNL1       -0.2955
     11 C          -1.5703   -7.0097   -0.2444 C.3     1  UNL1        0.0152
     12 C          -0.7596   -7.2839   -1.5217 C.3     1  UNL1       -0.0320
     13 C           0.2344   -8.4247   -1.2605 C.3     1  UNL1       -0.0069
     14 C           1.0334   -8.2398    0.0528 C.3     1  UNL1       -0.0082
     15 H           1.5853   -9.1525    0.2958 H       1  UNL1        0.0865
     16 C           0.1476   -7.7556    1.2597 C.3     1  UNL1        0.0576
     17 N          -1.6942   -3.3988    4.3396 N.ar    1  UNL1       -0.2795
     18 C          -1.7948   -1.9702    4.3390 C.ar    1  UNL1        0.3337
     19 O          -2.0740   -1.3478    5.3513 O.2     1  UNL1       -0.2462
     20 N          -1.5946   -1.3061    3.1023 N.ar    1  UNL1       -0.2516
     21 C          -1.7280   -1.9873    1.9133 C.ar    1  UNL1        0.2829
     22 O          -2.1419   -1.4945    0.8601 O.2     1  UNL1       -0.2652
     23 C          -1.7714    0.1659    3.0574 C.3     1  UNL1        0.0906
     24 C          -0.9596    0.9634    2.0170 C.ar    1  UNL1        0.1497
     25 N           0.1256    0.3947    1.4498 N.ar    1  UNL1       -0.2347
     26 C           0.6557    1.0650    0.4030 C.ar    1  UNL1        0.0495
     27 C           0.0830    2.1934   -0.1692 C.ar    1  UNL1        0.0214
     28 C           0.4441    2.7107   -1.4342 C.ar    1  UNL1       -0.0509
     29 C           0.2768    4.0545   -1.7053 C.ar    1  UNL1       -0.0610
     30 C          -0.3353    4.8453   -0.7444 C.ar    1  UNL1       -0.0597
     31 C          -0.9207    4.2408    0.3890 C.ar    1  UNL1       -0.0356
     32 C          -0.7740    2.8804    0.6864 C.ar    1  UNL1        0.0748
     33 N          -1.3363    2.2405    1.7488 N.ar    1  UNL1       -0.2302
     34 C           2.1408    0.8628    0.1664 C.3     1  UNL1       -0.0216
     35 C          -1.9740   -4.1268    5.5619 C.3     1  UNL1        0.0181
     36 H          -3.5863   -5.9141   -3.2755 H       1  UNL1        0.0362
     37 H          -3.5320   -4.2694   -3.9552 H       1  UNL1        0.0362
     38 H          -4.6869   -4.6587   -2.6570 H       1  UNL1        0.0362
     39 H           0.2638   -4.3724   -0.5575 H       1  UNL1        0.0629
     40 H          -0.3633   -2.7696   -0.2641 H       1  UNL1        0.0629
     41 H          -2.0780   -7.9358    0.0565 H       1  UNL1        0.0465
     42 H          -2.3848   -6.3075   -0.3925 H       1  UNL1        0.0465
     43 H          -0.2006   -6.3918   -1.8307 H       1  UNL1        0.0282
     44 H          -1.4183   -7.5426   -2.3586 H       1  UNL1        0.0282
     45 H           0.9110   -8.5190   -2.1221 H       1  UNL1        0.0321
     46 H          -0.3279   -9.3632   -1.2087 H       1  UNL1        0.0321
     47 H           0.7841   -7.5216    2.1159 H       1  UNL1        0.0520
     48 H          -0.5374   -8.5644    1.5489 H       1  UNL1        0.0520
     49 H           2.6842   -7.0575    0.6030 H       1  UNL1        0.1997
     50 H           2.6456   -7.3814   -1.0333 H       1  UNL1        0.1997
     51 H          -2.8368    0.3496    2.8537 H       1  UNL1        0.0575
     52 H          -1.5398    0.5896    4.0371 H       1  UNL1        0.0575
     53 H           0.8821    2.0573   -2.1874 H       1  UNL1        0.0625
     54 H           0.6677    4.4817   -2.6267 H       1  UNL1        0.0618
     55 H          -0.3787    5.9234   -0.8869 H       1  UNL1        0.0618
     56 H          -1.4584    4.8778    1.0897 H       1  UNL1        0.0639
     57 H           2.6409    0.8508    1.1405 H       1  UNL1        0.0293
     58 H           2.3415   -0.0609   -0.3746 H       1  UNL1        0.0293
     59 H           2.5859    1.7053   -0.3754 H       1  UNL1        0.0293
     60 H          -2.7821   -4.8454    5.3767 H       1  UNL1        0.0458
     61 H          -1.0757   -4.6608    5.8820 H       1  UNL1        0.0458
     62 H          -2.2946   -3.4613    6.3690 H       1  UNL1        0.0458
     63 N           2.0648   -7.1806   -0.2110 N.4     1  UNL1        0.2218
     64 H           1.5808   -6.2805   -0.3497 H       1  UNL1        0.1997
@<TRIPOS>UNITY_ATOM_ATTR
63 1
charge 1
@<TRIPOS>BOND
     1     1     2    1
     2     1    36    1
     3     1    37    1
     4     1    38    1
     5     2     3    3
     6     3     4    1
     7     4     5    1
     8     4    39    1
     9     4    40    1
    10     5     9   ar
    11     5     6   ar
    12     6    21   ar
    13     6     7   ar
    14     7     8   ar
    15     7    17   ar
    16     8     9   ar
    17     9    10    1
    18    10    16    1
    19    10    11    1
    20    11    12    1
    21    11    41    1
    22    11    42    1
    23    12    13    1
    24    12    43    1
    25    12    44    1
    26    13    14    1
    27    13    45    1
    28    13    46    1
    29    14    16    1
    30    16    47    1
    31    16    48    1
    32    17    18   ar
    33    17    35    1
    34    18    19    2
    35    18    20   ar
    36    20    21   ar
    37    20    23    1
    38    21    22    2
    39    23    24    1
    40    23    51    1
    41    23    52    1
    42    24    33   ar
    43    24    25   ar
    44    25    26   ar
    45    26    27   ar
    46    26    34    1
    47    27    32   ar
    48    27    28   ar
    49    28    29   ar
    50    28    53    1
    51    29    30   ar
    52    29    54    1
    53    30    31   ar
    54    30    55    1
    55    31    32   ar
    56    31    56    1
    57    32    33   ar
    58    34    57    1
    59    34    58    1
    60    34    59    1
    61    35    60    1
    62    35    61    1
    63    35    62    1
    64    49    63    1
    65    50    63    1
    66    63    64    1
    67    14    63    1
    68    14    15    1
