@<TRIPOS>MOLECULE
ZINC00020257
 31 31 0 0 0
SMALL
GASTEIGER

@<TRIPOS>ATOM
      1 C           2.7041    0.6634   -0.4203 C.3     1  UNL1       -0.0362
      2 C           1.2919    0.1600   -0.2925 C.ar    1  UNL1       -0.0085
      3 C           1.1564   -1.2435   -0.2121 C.ar    1  UNL1       -0.0554
      4 C          -0.0825   -1.8553   -0.0484 C.ar    1  UNL1       -0.0610
      5 C          -1.2256   -1.0770    0.0355 C.ar    1  UNL1       -0.0554
      6 C          -1.1337    0.3190   -0.0295 C.ar    1  UNL1       -0.0085
      7 C           0.1290    0.9488   -0.1837 C.ar    1  UNL1        0.1266
      8 O           0.0308    2.3142   -0.1473 O.3     1  UNL1       -0.4859
      9 C           1.0469    3.1343   -0.7089 C.3     1  UNL1        0.1316
     10 C           0.4034    4.5086   -0.9497 C.3     1  UNL1        0.0076
     11 H           0.0040    4.9170   -0.0146 H       1  UNL1        0.0881
     12 C           1.3526    5.4929   -1.6150 C.3     1  UNL1       -0.0185
     13 N          -0.7903    4.3171   -1.8372 N.4     1  UNL1        0.2230
     14 C          -2.4041    1.1231    0.0719 C.3     1  UNL1       -0.0362
     15 H           2.8250    1.3268   -1.2779 H       1  UNL1        0.0279
     16 H           3.0205    1.1615    0.5001 H       1  UNL1        0.0279
     17 H           3.4056   -0.1595   -0.6050 H       1  UNL1        0.0279
     18 H           2.0362   -1.8856   -0.2585 H       1  UNL1        0.0621
     19 H          -0.1513   -2.9383    0.0234 H       1  UNL1        0.0618
     20 H          -2.1885   -1.5672    0.1661 H       1  UNL1        0.0621
     21 H           1.8796    3.2352   -0.0056 H       1  UNL1        0.0754
     22 H           1.3820    2.7361   -1.6711 H       1  UNL1        0.0754
     23 H           1.7027    5.1191   -2.5805 H       1  UNL1        0.0285
     24 H           0.8615    6.4557   -1.7799 H       1  UNL1        0.0285
     25 H           2.2297    5.6614   -0.9777 H       1  UNL1        0.0285
     26 H          -0.5372    3.9332   -2.7571 H       1  UNL1        0.1998
     27 H          -1.4151    3.6262   -1.3936 H       1  UNL1        0.1998
     28 H          -2.3792    1.7709    0.9536 H       1  UNL1        0.0279
     29 H          -2.5322    1.7336   -0.8277 H       1  UNL1        0.0279
     30 H          -3.2865    0.4798    0.1529 H       1  UNL1        0.0279
     31 H          -1.3245    5.1830   -1.9777 H       1  UNL1        0.1998
@<TRIPOS>UNITY_ATOM_ATTR
13 1
charge 1
@<TRIPOS>BOND
     1     1     2    1
     2     1    15    1
     3     1    16    1
     4     1    17    1
     5     2     7   ar
     6     2     3   ar
     7     3     4   ar
     8     3    18    1
     9     4     5   ar
    10     4    19    1
    11     5     6   ar
    12     5    20    1
    13     6     7   ar
    14     6    14    1
    15     7     8    1
    16     8     9    1
    17     9    10    1
    18     9    21    1
    19     9    22    1
    20    10    11    1
    21    10    12    1
    22    10    13    1
    23    12    23    1
    24    12    24    1
    25    12    25    1
    26    13    26    1
    27    13    27    1
    28    13    31    1
    29    14    28    1
    30    14    29    1
    31    14    30    1
