@<TRIPOS>MOLECULE
ZINC00000095
 41 42 0 0 0
SMALL
GASTEIGER

@<TRIPOS>ATOM
      1 C          -1.0047    4.6483    0.0556 C.3     1  UNL1       -0.0433
      2 C          -2.7539    2.9167    0.3881 C.3     1  UNL1       -0.0433
      3 C          -1.0482    2.5571   -1.3914 C.3     1  UNL1       -0.0084
      4 C           0.4356    2.6707   -1.7485 C.3     1  UNL1        0.0887
      5 O           1.2392    2.2744   -0.6304 O.3     1  UNL1       -0.3621
      6 C           2.6594    2.1922   -0.9328 C.3     1  UNL1        0.1089
      7 H           2.7887    1.6995   -1.9072 H       1  UNL1        0.0697
      8 C           3.3226    1.2274    0.0737 C.ar    1  UNL1       -0.0145
      9 C           4.6990    1.2822    0.3724 C.ar    1  UNL1       -0.0558
     10 C           5.2676    0.4681    1.3583 C.ar    1  UNL1       -0.0614
     11 C           4.4938   -0.4925    2.0058 C.ar    1  UNL1       -0.0617
     12 C           3.1561   -0.6425    1.6441 C.ar    1  UNL1       -0.0614
     13 C           2.5812    0.2039    0.6888 C.ar    1  UNL1       -0.0558
     14 C           3.2314    3.6137   -1.0244 C.ar    1  UNL1       -0.0144
     15 C           3.0829    4.3467   -2.2239 C.ar    1  UNL1       -0.0547
     16 C           3.5569    5.6534   -2.3476 C.ar    1  UNL1       -0.0474
     17 C           4.2755    6.2211   -1.3034 C.ar    1  UNL1        0.0179
     18 C           4.4533    5.5232   -0.1146 C.ar    1  UNL1       -0.0474
     19 C           3.8862    4.2538    0.0416 C.ar    1  UNL1       -0.0547
     20 BR          5.0262    7.9413   -1.5084 Br      1  UNL1       -0.0503
     21 H          -1.5685    5.1867   -0.7104 H       1  UNL1        0.0777
     22 H          -1.2767    4.9944    1.0566 H       1  UNL1        0.0777
     23 H           0.0714    4.7734   -0.0815 H       1  UNL1        0.0777
     24 H          -3.4281    3.3518   -0.3556 H       1  UNL1        0.0777
     25 H          -2.8900    1.8344    0.4523 H       1  UNL1        0.0777
     26 H          -2.9130    3.3726    1.3682 H       1  UNL1        0.0777
     27 H          -1.3268    1.5014   -1.3030 H       1  UNL1        0.0837
     28 H          -1.6825    3.0446   -2.1397 H       1  UNL1        0.0837
     29 H           0.6537    2.0543   -2.6277 H       1  UNL1        0.0614
     30 H           0.6282    3.7162   -1.9954 H       1  UNL1        0.0614
     31 H           5.3554    1.9895   -0.1324 H       1  UNL1        0.0621
     32 H           6.3169    0.5846    1.6233 H       1  UNL1        0.0618
     33 H           4.9341   -1.1251    2.7671 H       1  UNL1        0.0618
     34 H           2.5590   -1.4181    2.1219 H       1  UNL1        0.0618
     35 H           1.5331    0.0523    0.4372 H       1  UNL1        0.0621
     36 H           2.5787    3.9074   -3.0841 H       1  UNL1        0.0622
     37 H           3.3845    6.2074   -3.2673 H       1  UNL1        0.0629
     38 H           5.0438    5.9467    0.6938 H       1  UNL1        0.0629
     39 H           4.0185    3.7542    0.9998 H       1  UNL1        0.0622
     40 N          -1.3407    3.1859   -0.0399 N.4     1  UNL1        0.2325
     41 H          -0.7006    2.7065    0.6150 H       1  UNL1        0.2028
@<TRIPOS>UNITY_ATOM_ATTR
40 1
charge 1
@<TRIPOS>BOND
     1     1    21    1
     2     1    22    1
     3     1    23    1
     4     1    40    1
     5     2    24    1
     6     2    25    1
     7     2    26    1
     8     2    40    1
     9     3     4    1
    10     3    27    1
    11     3    28    1
    12     3    40    1
    13     4     5    1
    14     4    29    1
    15     4    30    1
    16     6     8    1
    17     6    14    1
    18     8    13   ar
    19     8     9   ar
    20     9    10   ar
    21     9    31    1
    22    10    11   ar
    23    10    32    1
    24    11    12   ar
    25    11    33    1
    26    12    13   ar
    27    12    34    1
    28    13    35    1
    29    14    19   ar
    30    14    15   ar
    31    15    16   ar
    32    15    36    1
    33    16    17   ar
    34    16    37    1
    35    17    18   ar
    36    17    20    1
    37    18    19   ar
    38    18    38    1
    39    19    39    1
    40    40    41    1
    41     6     7    1
    42     6     5    1
