@<TRIPOS>MOLECULE
ZINC00537795
 57 59 0 0 0
SMALL
GASTEIGER

@<TRIPOS>ATOM
      1 C           4.2562    1.2472   -1.7095 C.3     1  UNL1       -0.0209
      2 C           2.7710    1.1148   -1.5747 C.ar    1  UNL1        0.0563
      3 C           1.9027    1.6884   -2.5016 C.ar    1  UNL1        0.0494
      4 N           0.5523    1.6287   -2.3941 N.ar    1  UNL1       -0.2471
      5 C           0.0957    0.9500   -1.3021 C.ar    1  UNL1        0.1433
      6 C           0.9507    0.3568   -0.3857 C.ar    1  UNL1        0.0583
      7 N           2.3038    0.4279   -0.5016 N.ar    1  UNL1       -0.2564
      8 C          -1.3807    0.8797   -1.1005 C.2     1  UNL1        0.2639
      9 O          -1.8578    0.2486   -0.1650 O.2     1  UNL1       -0.2685
     10 N          -2.1282    1.5688   -2.0343 N.am    1  UNL1       -0.3097
     11 C          -3.5805    1.5805   -2.0348 C.3     1  UNL1        0.0159
     12 C          -4.1751    2.7635   -1.2552 C.3     1  UNL1       -0.0120
     13 C          -5.6903    2.8621   -1.2833 C.ar    1  UNL1       -0.0458
     14 C          -6.3064    4.1231   -1.1754 C.ar    1  UNL1       -0.0567
     15 C          -7.7019    4.2435   -1.1463 C.ar    1  UNL1       -0.0346
     16 C          -8.4958    3.0967   -1.2223 C.ar    1  UNL1        0.1125
     17 C          -7.9048    1.8363   -1.3130 C.ar    1  UNL1       -0.0346
     18 C          -6.5116    1.7235   -1.3368 C.ar    1  UNL1       -0.0567
     19 S         -10.3007    3.2282   -1.1200 S.O2    1  UNL1        0.0993
     20 O         -10.7010    1.9769   -0.4900 O.2     1  UNL1       -0.1463
     21 O         -10.5101    4.4998   -0.4461 O.2     1  UNL1       -0.1463
     22 N         -10.6714    3.2677   -2.6963 N.2     1  UNL1       -0.1295
     23 C         -11.8820    3.4562   -3.1039 C.2     1  UNL1        0.0684
     24 O         -12.9708    3.6292   -2.5480 O.co2   1  UNL1       -0.8484
     25 N         -12.2088    3.4934   -4.4233 N.pl3   1  UNL1       -0.3365
     26 C         -11.4881    2.7672   -5.4437 C.3     1  UNL1        0.0210
     27 C         -12.0142    1.3319   -5.5601 C.3     1  UNL1       -0.0346
     28 C         -11.2683    0.5706   -6.6545 C.3     1  UNL1       -0.0514
     29 C         -11.3489    1.2913   -7.9988 C.3     1  UNL1       -0.0529
     30 C         -10.9033    2.7485   -7.8964 C.3     1  UNL1       -0.0514
     31 C         -11.6412    3.4927   -6.7851 C.3     1  UNL1       -0.0346
     32 H           4.6625    1.7608   -0.8322 H       1  UNL1        0.0293
     33 H           4.7179    0.2580   -1.7853 H       1  UNL1        0.0293
     34 H           4.5335    1.8235   -2.5978 H       1  UNL1        0.0293
     35 H           2.2746    2.2287   -3.3663 H       1  UNL1        0.0848
     36 H           0.5774   -0.1861    0.4764 H       1  UNL1        0.0853
     37 H          -1.6153    2.0465   -2.7705 H       1  UNL1        0.1491
     38 H          -3.8976    1.6181   -3.0827 H       1  UNL1        0.0465
     39 H          -3.9210    0.6293   -1.6137 H       1  UNL1        0.0465
     40 H          -3.8546    2.7156   -0.2068 H       1  UNL1        0.0328
     41 H          -3.7519    3.6891   -1.6687 H       1  UNL1        0.0328
     42 H          -5.7059    5.0273   -1.1045 H       1  UNL1        0.0621
     43 H          -8.1670    5.2234   -1.0594 H       1  UNL1        0.0637
     44 H          -8.5259    0.9446   -1.3554 H       1  UNL1        0.0637
     45 H          -6.0894    0.7238   -1.3844 H       1  UNL1        0.0621
     46 H         -13.2198    3.5024   -4.4851 H       1  UNL1        0.1467
     47 H         -10.4189    2.7374   -5.1975 H       1  UNL1        0.0497
     48 H         -11.9052    0.8037   -4.6054 H       1  UNL1        0.0283
     49 H         -13.0883    1.3405   -5.7903 H       1  UNL1        0.0283
     50 H         -11.6812   -0.4397   -6.7524 H       1  UNL1        0.0266
     51 H         -10.2163    0.4588   -6.3641 H       1  UNL1        0.0266
     52 H         -12.3806    1.2531   -8.3691 H       1  UNL1        0.0265
     53 H         -10.7270    0.7681   -8.7342 H       1  UNL1        0.0265
     54 H         -11.0707    3.2537   -8.8541 H       1  UNL1        0.0266
     55 H          -9.8244    2.7849   -7.7009 H       1  UNL1        0.0266
     56 H         -12.7036    3.5835   -7.0480 H       1  UNL1        0.0283
     57 H         -11.2515    4.5150   -6.7068 H       1  UNL1        0.0283
@<TRIPOS>UNITY_ATOM_ATTR
24 1
charge -1
@<TRIPOS>BOND
     1     1     2    1
     2     1    32    1
     3     1    33    1
     4     1    34    1
     5     2     7   ar
     6     2     3   ar
     7     3     4   ar
     8     3    35    1
     9     4     5   ar
    10     5     6   ar
    11     5     8    1
    12     6     7   ar
    13     6    36    1
    14     8     9    2
    15     8    10   am
    16    10    11    1
    17    10    37    1
    18    11    12    1
    19    11    38    1
    20    11    39    1
    21    12    13    1
    22    12    40    1
    23    12    41    1
    24    13    18   ar
    25    13    14   ar
    26    14    15   ar
    27    14    42    1
    28    15    16   ar
    29    15    43    1
    30    16    17   ar
    31    16    19    1
    32    17    18   ar
    33    17    44    1
    34    18    45    1
    35    19    20    2
    36    19    21    2
    37    19    22    1
    38    22    23    2
    39    23    24    1
    40    23    25    1
    41    25    26    1
    42    25    46    1
    43    26    31    1
    44    26    27    1
    45    26    47    1
    46    27    28    1
    47    27    48    1
    48    27    49    1
    49    28    29    1
    50    28    50    1
    51    28    51    1
    52    29    30    1
    53    29    52    1
    54    29    53    1
    55    30    31    1
    56    30    54    1
    57    30    55    1
    58    31    56    1
    59    31    57    1
