@<TRIPOS>MOLECULE
ZINC00004028
 48 50 0 0 0
SMALL
GASTEIGER

@<TRIPOS>ATOM
      1 C          -3.1048    0.0705   -5.1056 C.3     1  UNL1       -0.0605
      2 C          -1.8061    0.2300   -5.8872 C.3     1  UNL1       -0.0153
      3 C          -0.5375    0.1270   -5.0238 C.3     1  UNL1       -0.0319
      4 N          -0.2703   -1.2756   -4.4856 N.4     1  UNL1        0.2379
      5 C           0.0098   -2.2919   -5.6336 C.3     1  UNL1       -0.0271
      6 C           1.1494   -1.9943   -6.6306 C.3     1  UNL1        0.0189
      7 C           2.5838   -1.8549   -6.1781 C.ar    1  UNL1       -0.0052
      8 C           3.4675   -0.8578   -6.5603 C.ar    1  UNL1       -0.0514
      9 C           4.7878   -1.0557   -6.0619 C.ar    1  UNL1       -0.0545
     10 C           4.8805   -2.1972   -5.2991 C.ar    1  UNL1       -0.0241
     11 S           3.4036   -3.0664   -5.2778 S.2     1  UNL1       -0.1014
     12 C           0.7984   -1.4062   -3.3583 C.3     1  UNL1       -0.0165
     13 H           1.7252   -1.3068   -3.9132 H       1  UNL1        0.0854
     14 C           0.8815   -0.2823   -2.3223 C.3     1  UNL1       -0.0052
     15 C           0.1367   -0.4597   -1.0011 C.3     1  UNL1       -0.0189
     16 C           0.0379   -1.8616   -0.4704 C.ar    1  UNL1       -0.0024
     17 C           0.2720   -2.9549   -1.3088 C.ar    1  UNL1       -0.0354
     18 C           0.1066   -4.2693   -0.8234 C.ar    1  UNL1       -0.0579
     19 C          -0.2972   -4.5006    0.4949 C.ar    1  UNL1       -0.0580
     20 C          -0.5325   -3.4166    1.3297 C.ar    1  UNL1       -0.0199
     21 C          -0.3707   -2.1168    0.8546 C.ar    1  UNL1        0.1203
     22 O          -0.6503   -1.1377    1.7595 O.3     1  UNL1       -0.5065
     23 C           0.7529   -2.8155   -2.7220 C.3     1  UNL1        0.0159
     24 H          -3.2233   -0.9457   -4.7204 H       1  UNL1        0.0232
     25 H          -3.9624    0.2849   -5.7533 H       1  UNL1        0.0232
     26 H          -3.1464    0.7707   -4.2641 H       1  UNL1        0.0232
     27 H          -1.7946   -0.4728   -6.7254 H       1  UNL1        0.0314
     28 H          -1.8199    1.2300   -6.3408 H       1  UNL1        0.0314
     29 H           0.3468    0.4365   -5.5868 H       1  UNL1        0.0814
     30 H          -0.6707    0.7966   -4.1740 H       1  UNL1        0.0814
     31 H           0.1358   -3.2830   -5.1989 H       1  UNL1        0.0818
     32 H          -0.9297   -2.3511   -6.1940 H       1  UNL1        0.0818
     33 H           1.1479   -2.8216   -7.3546 H       1  UNL1        0.0370
     34 H           0.8828   -1.1048   -7.2117 H       1  UNL1        0.0370
     35 H           3.1983   -0.0374   -7.2153 H       1  UNL1        0.0626
     36 H           5.6317   -0.4065   -6.2716 H       1  UNL1        0.0623
     37 H           5.7649   -2.5821   -4.8029 H       1  UNL1        0.0693
     38 H           1.9481   -0.2128   -2.0583 H       1  UNL1        0.0323
     39 H           0.6616    0.7065   -2.7308 H       1  UNL1        0.0323
     40 H           0.6776    0.1511   -0.2663 H       1  UNL1        0.0316
     41 H          -0.8741   -0.0465   -1.0907 H       1  UNL1        0.0316
     42 H           0.2975   -5.1317   -1.4597 H       1  UNL1        0.0620
     43 H          -0.4081   -5.5119    0.8594 H       1  UNL1        0.0619
     44 H          -0.8363   -3.5886    2.3588 H       1  UNL1        0.0654
     45 H          -0.3456   -0.2753    1.4448 H       1  UNL1        0.2921
     46 H           0.1261   -3.4967   -3.3044 H       1  UNL1        0.0368
     47 H           1.7695   -3.2243   -2.7444 H       1  UNL1        0.0368
     48 H          -1.1499   -1.5779   -4.0418 H       1  UNL1        0.2036
@<TRIPOS>UNITY_ATOM_ATTR
4 1
charge 1
@<TRIPOS>BOND
     1     1     2    1
     2     1    24    1
     3     1    25    1
     4     1    26    1
     5     2     3    1
     6     2    27    1
     7     2    28    1
     8     3     4    1
     9     3    29    1
    10     3    30    1
    11     4     5    1
    12     4    48    1
    13     5     6    1
    14     5    31    1
    15     5    32    1
    16     6     7    1
    17     6    33    1
    18     6    34    1
    19     7    11   ar
    20     7     8   ar
    21     8     9   ar
    22     8    35    1
    23     9    10   ar
    24     9    36    1
    25    10    11   ar
    26    10    37    1
    27    12    23    1
    28    12    14    1
    29    14    15    1
    30    14    38    1
    31    14    39    1
    32    15    16    1
    33    15    40    1
    34    15    41    1
    35    16    21   ar
    36    16    17   ar
    37    17    18   ar
    38    17    23    1
    39    18    19   ar
    40    18    42    1
    41    19    20   ar
    42    19    43    1
    43    20    21   ar
    44    20    44    1
    45    21    22    1
    46    22    45    1
    47    23    46    1
    48    23    47    1
    49    12    13    1
    50    12     4    1
