@<TRIPOS>MOLECULE
ZINC00000746
 36 36 0 0 0
SMALL
GASTEIGER

@<TRIPOS>ATOM
      1 C           1.4670   -4.5416    0.2048 C.3     1  UNL1       -0.0193
      2 C           0.7129   -3.2841    0.6484 C.3     1  UNL1       -0.0203
      3 C          -0.8034   -3.5088    0.6449 C.3     1  UNL1       -0.0193
      4 C           1.1636   -2.8836    2.0615 C.3     1  UNL1       -0.0193
      5 N           1.0676   -2.1155   -0.2633 N.4     1  UNL1        0.2328
      6 C           0.6057   -2.1751   -1.6970 C.3     1  UNL1       -0.0023
      7 C           0.9335   -0.8836   -2.4935 C.3     1  UNL1        0.1199
      8 H           0.4252   -0.0531   -1.9885 H       1  UNL1        0.0698
      9 C           2.3921   -0.5199   -2.6677 C.ar    1  UNL1       -0.0072
     10 C           2.7248    0.8374   -2.8631 C.ar    1  UNL1       -0.0141
     11 C           4.0476    1.2167   -3.0772 C.ar    1  UNL1        0.1207
     12 C           5.0616    0.2728   -3.0827 C.ar    1  UNL1        0.0213
     13 C           4.7447   -1.0658   -2.9054 C.ar    1  UNL1        0.1207
     14 C           3.4227   -1.4752   -2.7170 C.ar    1  UNL1       -0.0141
     15 O           5.7707   -1.9609   -2.9287 O.3     1  UNL1       -0.5066
     16 O           4.3917    2.5166   -3.2904 O.3     1  UNL1       -0.5066
     17 O           0.3351   -1.0138   -3.7802 O.3     1  UNL1       -0.3819
     18 H           1.0483   -5.4315    0.6886 H       1  UNL1        0.0287
     19 H           2.5270   -4.4912    0.4780 H       1  UNL1        0.0287
     20 H           1.4113   -4.7142   -0.8747 H       1  UNL1        0.0287
     21 H          -1.0847   -4.2596    1.3893 H       1  UNL1        0.0287
     22 H          -1.3450   -2.5865    0.8854 H       1  UNL1        0.0287
     23 H          -1.1617   -3.8735   -0.3240 H       1  UNL1        0.0287
     24 H           2.2344   -2.6529    2.0890 H       1  UNL1        0.0287
     25 H           0.6231   -1.9989    2.4175 H       1  UNL1        0.0287
     26 H           0.9789   -3.6942    2.7754 H       1  UNL1        0.0287
     27 H           0.6839   -1.2584    0.1593 H       1  UNL1        0.2020
     28 H           1.0470   -3.0532   -2.1709 H       1  UNL1        0.0843
     29 H          -0.4806   -2.3042   -1.6910 H       1  UNL1        0.0843
     30 H           1.9469    1.5983   -2.8615 H       1  UNL1        0.0658
     31 H           6.0925    0.5760   -3.2537 H       1  UNL1        0.0691
     32 H           3.2151   -2.5380   -2.6341 H       1  UNL1        0.0658
     33 H           5.4391   -2.8691   -2.9967 H       1  UNL1        0.2921
     34 H           3.5985    3.0603   -3.4247 H       1  UNL1        0.2921
     35 H           0.7180   -0.3461   -4.3803 H       1  UNL1        0.2105
     36 H           2.0912   -1.9834   -0.2480 H       1  UNL1        0.2020
@<TRIPOS>UNITY_ATOM_ATTR
5 1
charge 1
@<TRIPOS>BOND
     1     1     2    1
     2     1    18    1
     3     1    19    1
     4     1    20    1
     5     2     3    1
     6     2     4    1
     7     2     5    1
     8     3    21    1
     9     3    22    1
    10     3    23    1
    11     4    24    1
    12     4    25    1
    13     4    26    1
    14     5     6    1
    15     5    27    1
    16     5    36    1
    17     6     7    1
    18     6    28    1
    19     6    29    1
    20     7     8    1
    21     7     9    1
    22     7    17    1
    23     9    14   ar
    24     9    10   ar
    25    10    11   ar
    26    10    30    1
    27    11    12   ar
    28    11    16    1
    29    12    13   ar
    30    12    31    1
    31    13    14   ar
    32    13    15    1
    33    14    32    1
    34    15    33    1
    35    16    34    1
    36    17    35    1
