@<TRIPOS>MOLECULE
ZINC00897229
 31 32 0 0 0
SMALL
GASTEIGER

@<TRIPOS>ATOM
      1 C           0.9314    0.2085   -0.1318 C.3     1  UNL1        0.0110
      2 N           0.7370   -1.0019    0.7090 N.3     1  UNL1       -0.1583
      3 C           1.2824   -0.8889    2.0739 C.3     1  UNL1        0.1074
      4 H           2.3792   -0.8690    2.0302 H       1  UNL1        0.0696
      5 N           0.8739   -2.0331    2.8908 N.pl3   1  UNL1       -0.3248
      6 C           0.8884   -3.3309    2.3984 C.ar    1  UNL1        0.0565
      7 C           0.6929   -4.3939    3.2920 C.ar    1  UNL1       -0.0186
      8 C           0.7643   -5.7351    2.8749 C.ar    1  UNL1        0.0691
      9 C           1.0202   -6.0277    1.5344 C.ar    1  UNL1        0.1252
     10 C           1.2046   -4.9852    0.6231 C.ar    1  UNL1       -0.0057
     11 C           1.1515   -3.6616    1.0761 C.ar    1  UNL1        0.1282
     12 S           1.3771   -2.3706   -0.0790 S.O2    1  UNL1        0.0641
     13 O           0.5347   -2.6418   -1.2250 O.2     1  UNL1       -0.1527
     14 O           2.7993   -2.1681   -0.2205 O.2     1  UNL1       -0.1527
     15 S           1.0620   -7.6882    0.9426 S.O2    1  UNL1        0.0574
     16 O          -0.1254   -8.3805    1.3809 O.2     1  UNL1       -0.1532
     17 O           1.4657   -7.6783   -0.4459 O.2     1  UNL1       -0.1532
     18 N           2.3623   -8.3596    1.7633 N.3     1  UNL1       -0.2035
     19 CL          0.5634   -6.9357    4.1016 Cl      1  UNL1       -0.0815
     20 C           0.8586    0.4100    2.8105 C.3     1  UNL1        0.0559
     21 CL         -0.9156    0.5532    3.0053 Cl      1  UNL1       -0.1221
     22 H           0.3251    1.0405    0.2343 H       1  UNL1        0.0409
     23 H           0.6061    0.0247   -1.1607 H       1  UNL1        0.0409
     24 H           1.9838    0.5124   -0.1409 H       1  UNL1        0.0409
     25 H           0.0384   -1.8429    3.4471 H       1  UNL1        0.1477
     26 H           0.5065   -4.1760    4.3422 H       1  UNL1        0.0652
     27 H           1.3893   -5.1876   -0.4319 H       1  UNL1        0.0658
     28 H           2.0322   -8.9411    2.5344 H       1  UNL1        0.1442
     29 H           2.9573   -8.8615    1.1009 H       1  UNL1        0.1442
     30 H           1.2797    0.4245    3.8212 H       1  UNL1        0.0462
     31 H           1.2100    1.3077    2.2943 H       1  UNL1        0.0462
@<TRIPOS>BOND
     1     1     2    1
     2     1    22    1
     3     1    23    1
     4     1    24    1
     5     2    12    1
     6     2     3    1
     7     3     4    1
     8     3     5    1
     9     3    20    1
    10     5     6    1
    11     5    25    1
    12     6    11   ar
    13     6     7   ar
    14     7     8   ar
    15     7    26    1
    16     8     9   ar
    17     8    19    1
    18     9    10   ar
    19     9    15    1
    20    10    11   ar
    21    10    27    1
    22    11    12    1
    23    12    13    2
    24    12    14    2
    25    15    16    2
    26    15    17    2
    27    15    18    1
    28    18    28    1
    29    18    29    1
    30    20    21    1
    31    20    30    1
    32    20    31    1
