@<TRIPOS>MOLECULE
ZINC00056544
 40 41 0 0 0
SMALL
GASTEIGER

@<TRIPOS>ATOM
      1 C           0.5771   -0.0398   -0.1046 C.3     1  UNL1       -0.0612
      2 C           0.7228   -0.0762   -1.6207 C.3     1  UNL1       -0.0297
      3 C           1.1055   -1.4433   -2.1555 C.2     1  UNL1       -0.0368
      4 C           0.2160   -2.3985   -2.5301 C.2     1  UNL1       -0.0368
      5 C          -1.2958   -2.2595   -2.4647 C.3     1  UNL1       -0.0297
      6 C          -1.9012   -2.7978   -1.1736 C.3     1  UNL1       -0.0612
      7 C           0.6456   -3.6892   -3.1263 C.ar    1  UNL1       -0.0214
      8 C           0.7739   -3.8112   -4.5165 C.ar    1  UNL1       -0.0509
      9 C           1.1241   -5.0379   -5.0897 C.ar    1  UNL1       -0.0196
     10 C           1.3439   -6.1373   -4.2672 C.ar    1  UNL1        0.1169
     11 C           1.2323   -6.0285   -2.8864 C.ar    1  UNL1       -0.0196
     12 C           0.8879   -4.8010   -2.3137 C.ar    1  UNL1       -0.0509
     13 O           1.6682   -7.3590   -4.7828 O.3     1  UNL1       -0.5068
     14 C           2.5650   -1.6396   -2.3127 C.ar    1  UNL1       -0.0214
     15 C           3.3111   -2.2858   -1.3184 C.ar    1  UNL1       -0.0509
     16 C           4.6826   -2.4990   -1.4887 C.ar    1  UNL1       -0.0196
     17 C           5.3037   -2.0620   -2.6548 C.ar    1  UNL1        0.1169
     18 C           4.5797   -1.4127   -3.6472 C.ar    1  UNL1       -0.0196
     19 C           3.2100   -1.2010   -3.4771 C.ar    1  UNL1       -0.0509
     20 O           6.6369   -2.2568   -2.8663 O.3     1  UNL1       -0.5068
     21 H           0.0507   -0.9158    0.2829 H       1  UNL1        0.0233
     22 H           0.0121    0.8496    0.1944 H       1  UNL1        0.0233
     23 H           1.5557    0.0075    0.3833 H       1  UNL1        0.0233
     24 H          -0.2147    0.2603   -2.0753 H       1  UNL1        0.0311
     25 H           1.4600    0.6787   -1.9238 H       1  UNL1        0.0311
     26 H          -1.6085   -1.2189   -2.5957 H       1  UNL1        0.0311
     27 H          -1.7497   -2.7907   -3.3115 H       1  UNL1        0.0311
     28 H          -1.7505   -2.0989   -0.3464 H       1  UNL1        0.0233
     29 H          -2.9813   -2.9308   -1.2946 H       1  UNL1        0.0233
     30 H          -1.4773   -3.7634   -0.8838 H       1  UNL1        0.0233
     31 H           0.5954   -2.9536   -5.1597 H       1  UNL1        0.0625
     32 H           1.2138   -5.1108   -6.1678 H       1  UNL1        0.0654
     33 H           1.4094   -6.8937   -2.2566 H       1  UNL1        0.0654
     34 H           0.7993   -4.7238   -1.2337 H       1  UNL1        0.0625
     35 H           1.6896   -7.2881   -5.7511 H       1  UNL1        0.2921
     36 H           2.8238   -2.6369   -0.4126 H       1  UNL1        0.0625
     37 H           5.2406   -3.0093   -0.7106 H       1  UNL1        0.0654
     38 H           5.0766   -1.0808   -4.5540 H       1  UNL1        0.0654
     39 H           2.6463   -0.7048   -4.2623 H       1  UNL1        0.0625
     40 H           6.9984   -2.7532   -2.1141 H       1  UNL1        0.2921
@<TRIPOS>BOND
     1     1     2    1
     2     1    21    1
     3     1    22    1
     4     1    23    1
     5     2     3    1
     6     2    24    1
     7     2    25    1
     8     3     4    2
     9     3    14    1
    10     4     5    1
    11     4     7    1
    12     5     6    1
    13     5    26    1
    14     5    27    1
    15     6    28    1
    16     6    29    1
    17     6    30    1
    18     7    12   ar
    19     7     8   ar
    20     8     9   ar
    21     8    31    1
    22     9    10   ar
    23     9    32    1
    24    10    11   ar
    25    10    13    1
    26    11    12   ar
    27    11    33    1
    28    12    34    1
    29    13    35    1
    30    14    19   ar
    31    14    15   ar
    32    15    16   ar
    33    15    36    1
    34    16    17   ar
    35    16    37    1
    36    17    18   ar
    37    17    20    1
    38    18    19   ar
    39    18    38    1
    40    19    39    1
    41    20    40    1
