@<TRIPOS>MOLECULE
ZINC01532529
 20 19 0 0 0
SMALL
GASTEIGER

@<TRIPOS>ATOM
      1 CE          1.5950    3.7918    3.9602 C.3     1  MET1       -0.0181
      2 SD          0.6003    3.3561    2.5074 S.3     1  MET1       -0.1639
      3 CG          1.2214    1.6652    2.1884 C.3     1  MET1       -0.0009
      4 CB          0.6522    0.7035    3.2338 C.3     1  MET1        0.0099
      5 CA          0.9302   -0.7636    2.9303 C.3     1  MET1        0.0793
      6 HA          0.4256   -1.1060    2.0222 H       1  MET1        0.0970
      7 C           2.4595   -1.0393    2.8893 C.2     1  MET1        0.4026
      8 O           2.8322   -1.5159    4.0104 O.co2   1  MET1       -0.2400
      9 OXT         3.0455   -0.8432    1.8051 O.co2   1  MET1       -0.2400
     10 N           0.3443   -1.5744    4.0836 N.4     1  MET1        0.2289
     11 HE1         1.0886    4.5958    4.5014 H       1  MET1        0.0340
     12 HE2         2.5816    4.1450    3.6532 H       1  MET1        0.0340
     13 HE3         1.7105    2.9511    4.6478 H       1  MET1        0.0340
     14 HG1         0.8838    1.3748    1.1882 H       1  MET1        0.0378
     15 HG2         2.3148    1.6811    2.1850 H       1  MET1        0.0378
     16 HB1         1.0611    0.9448    4.2213 H       1  MET1        0.0333
     17 HB2        -0.4361    0.8389    3.2996 H       1  MET1        0.0333
     18 H1          1.2067   -1.7106    4.6736 H       1  MET1        0.2002
     19 H2         -0.3785   -1.1207    4.6323 H       1  MET1        0.2002
     20 H3          0.0962   -2.5191    3.7839 H       1  MET1        0.2002
@<TRIPOS>UNITY_ATOM_ATTR
10 1
charge 1
@<TRIPOS>BOND
     1     1     2    1
     2     1    11    1
     3     1    12    1
     4     1    13    1
     5     2     3    1
     6     3     4    1
     7     3    14    1
     8     3    15    1
     9     4     5    1
    10     4    16    1
    11     4    17    1
    12     5     6    1
    13     5     7    1
    14     5    10    1
    15     7     8   ar
    16     7     9   ar
    17    10    18    1
    18    10    19    1
    19    10    20    1
