@<TRIPOS>MOLECULE
ZINC01530814
 50 51 0 0 0
SMALL
GASTEIGER

@<TRIPOS>ATOM
      1 C           1.0169   -0.8954   -2.4607 C.3     1  UNL1       -0.0651
      2 C           0.3763   -1.1909   -1.1076 C.3     1  UNL1       -0.0511
      3 C           0.8531   -2.5325   -0.5495 C.3     1  UNL1       -0.0127
      4 C           0.2704   -2.9021    0.8220 C.3     1  UNL1       -0.0312
      5 N          -1.2487   -3.0214    0.8440 N.4     1  UNL1        0.2439
      6 C          -1.7569   -3.9641   -0.2268 C.3     1  UNL1       -0.0312
      7 C          -3.2662   -4.1260   -0.1819 C.3     1  UNL1       -0.0123
      8 C          -3.7477   -4.5376    1.1959 C.3     1  UNL1       -0.0427
      9 C          -3.2999   -3.5142    2.2233 C.3     1  UNL1       -0.0008
     10 C          -1.7733   -3.3949    2.2743 C.3     1  UNL1        0.0570
     11 H          -1.3030   -4.3539    2.5216 H       1  UNL1        0.0950
     12 C          -1.4359   -2.3432    3.3581 C.2     1  UNL1        0.2655
     13 O          -1.2587   -1.1759    3.0272 O.2     1  UNL1       -0.2693
     14 N          -1.3736   -2.8576    4.6554 N.am    1  UNL1       -0.2804
     15 C          -1.0953   -2.0437    5.7872 C.ar    1  UNL1        0.0394
     16 C          -0.0048   -2.3837    6.6258 C.ar    1  UNL1       -0.0290
     17 C           0.3148   -1.5543    7.7128 C.ar    1  UNL1       -0.0571
     18 C          -0.4450   -0.4255    7.9975 C.ar    1  UNL1       -0.0611
     19 C          -1.5683   -0.1420    7.2293 C.ar    1  UNL1       -0.0571
     20 C          -1.9268   -0.9587    6.1412 C.ar    1  UNL1       -0.0290
     21 C          -3.2926   -0.7496    5.5404 C.3     1  UNL1       -0.0379
     22 C           0.8594   -3.5912    6.3878 C.3     1  UNL1       -0.0379
     23 H           2.1078   -0.8488   -2.3796 H       1  UNL1        0.0230
     24 H           0.6636    0.0657   -2.8456 H       1  UNL1        0.0230
     25 H           0.7617   -1.6687   -3.1932 H       1  UNL1        0.0230
     26 H           0.6317   -0.3877   -0.4072 H       1  UNL1        0.0264
     27 H          -0.7109   -1.1863   -1.2298 H       1  UNL1        0.0264
     28 H           0.6612   -3.3306   -1.2757 H       1  UNL1        0.0317
     29 H           1.9457   -2.4983   -0.4464 H       1  UNL1        0.0317
     30 H           0.6638   -3.8735    1.1402 H       1  UNL1        0.0815
     31 H           0.5551   -2.1478    1.5577 H       1  UNL1        0.0815
     32 H          -1.2501   -4.9237   -0.0804 H       1  UNL1        0.0815
     33 H          -1.4820   -3.5500   -1.2006 H       1  UNL1        0.0815
     34 H          -3.5689   -4.8828   -0.9150 H       1  UNL1        0.0317
     35 H          -3.7494   -3.1872   -0.4809 H       1  UNL1        0.0317
     36 H          -4.8406   -4.6192    1.1992 H       1  UNL1        0.0269
     37 H          -3.3475   -5.5249    1.4546 H       1  UNL1        0.0269
     38 H          -3.7431   -2.5365    1.9860 H       1  UNL1        0.0325
     39 H          -3.6914   -3.7951    3.2086 H       1  UNL1        0.0325
     40 H          -1.0607   -3.8170    4.7430 H       1  UNL1        0.1550
     41 H           1.1661   -1.7804    8.3529 H       1  UNL1        0.0621
     42 H          -0.1851    0.2099    8.8416 H       1  UNL1        0.0618
     43 H          -2.1897    0.7066    7.5143 H       1  UNL1        0.0621
     44 H          -3.2577   -0.6136    4.4600 H       1  UNL1        0.0278
     45 H          -3.9262   -1.6109    5.7820 H       1  UNL1        0.0278
     46 H          -3.7841    0.1346    5.9632 H       1  UNL1        0.0278
     47 H           0.2546   -4.5030    6.4211 H       1  UNL1        0.0278
     48 H           1.3637   -3.5152    5.4200 H       1  UNL1        0.0278
     49 H           1.6316   -3.6904    7.1586 H       1  UNL1        0.0278
     50 H          -1.6156   -2.0692    0.6732 H       1  UNL1        0.2041
@<TRIPOS>UNITY_ATOM_ATTR
5 1
charge 1
@<TRIPOS>BOND
     1     1     2    1
     2     1    23    1
     3     1    24    1
     4     1    25    1
     5     2     3    1
     6     2    26    1
     7     2    27    1
     8     3     4    1
     9     3    28    1
    10     3    29    1
    11     4     5    1
    12     4    30    1
    13     4    31    1
    14     5    10    1
    15     5     6    1
    16     5    50    1
    17     6     7    1
    18     6    32    1
    19     6    33    1
    20     7     8    1
    21     7    34    1
    22     7    35    1
    23     8     9    1
    24     8    36    1
    25     8    37    1
    26     9    10    1
    27     9    38    1
    28     9    39    1
    29    12    13    2
    30    12    14   am
    31    14    15    1
    32    14    40    1
    33    15    20   ar
    34    15    16   ar
    35    16    17   ar
    36    16    22    1
    37    17    18   ar
    38    17    41    1
    39    18    19   ar
    40    18    42    1
    41    19    20   ar
    42    19    43    1
    43    20    21    1
    44    21    44    1
    45    21    45    1
    46    21    46    1
    47    22    47    1
    48    22    48    1
    49    22    49    1
    50    10    12    1
    51    10    11    1
