@<TRIPOS>MOLECULE
ZINC00537755
 67 71 0 0 0
SMALL
GASTEIGER

@<TRIPOS>ATOM
      1 C           1.4436    0.3840   -0.2735 C.ar    1  UNL1       -0.0616
      2 C           0.7959   -0.0707   -1.4162 C.ar    1  UNL1       -0.0600
      3 C          -0.6033   -0.0509   -1.4870 C.ar    1  UNL1       -0.0406
      4 C          -1.3875    0.4368   -0.4289 C.ar    1  UNL1        0.0317
      5 C          -0.6965    1.0049    0.6457 C.ar    1  UNL1       -0.0406
      6 C           0.6954    0.9313    0.7576 C.ar    1  UNL1       -0.0600
      7 N          -2.7641    0.3712   -0.5105 N.pl3   1  UNL1       -0.2995
      8 C          -3.3466    1.2739   -1.5093 C.3     1  UNL1        0.0793
      9 N          -4.6121    1.6182   -0.9607 N.am    1  UNL1       -0.2978
     10 C          -4.9288    0.9542    0.1939 C.2     1  UNL1        0.2382
     11 O          -5.9675    1.0765    0.8200 O.2     1  UNL1       -0.2734
     12 C          -3.7737    0.0067    0.5234 C.3     1  UNL1        0.1218
     13 C          -3.4104    0.1732    1.9945 C.3     1  UNL1        0.0177
     14 C          -2.4313   -0.8753    2.4966 C.3     1  UNL1       -0.0294
     15 N          -2.9054   -2.2742    2.1991 N.4     1  UNL1        0.2354
     16 C          -3.2641   -2.4482    0.7371 C.3     1  UNL1       -0.0294
     17 C          -4.2807   -1.4227    0.2831 C.3     1  UNL1        0.0177
     18 C          -3.8949   -2.7718    3.2272 C.3     1  UNL1       -0.0319
     19 C          -4.2184   -4.2527    3.0658 C.3     1  UNL1       -0.0117
     20 C          -3.0125   -5.2054    2.9907 C.3     1  UNL1       -0.0374
     21 C          -2.1359   -5.2673    4.2714 C.3     1  UNL1        0.0094
     22 C          -2.9538   -5.7086    5.4775 C.ar    1  UNL1       -0.0398
     23 C          -3.0261   -4.8910    6.6180 C.ar    1  UNL1       -0.0553
     24 C          -3.7944   -5.2843    7.7166 C.ar    1  UNL1       -0.0262
     25 C          -4.4919   -6.4833    7.6787 C.ar    1  UNL1        0.1234
     26 C          -4.4291   -7.3113    6.5659 C.ar    1  UNL1       -0.0262
     27 C          -3.6563   -6.9281    5.4713 C.ar    1  UNL1       -0.0553
     28 F          -5.2305   -6.8501    8.7319 F       1  UNL1       -0.2055
     29 C          -0.8642   -6.0962    4.1147 C.ar    1  UNL1       -0.0398
     30 C          -0.7531   -7.1617    3.2029 C.ar    1  UNL1       -0.0553
     31 C           0.4128   -7.9259    3.1228 C.ar    1  UNL1       -0.0262
     32 C           1.4793   -7.6334    3.9602 C.ar    1  UNL1        0.1234
     33 C           1.4026   -6.5882    4.8703 C.ar    1  UNL1       -0.0262
     34 C           0.2367   -5.8265    4.9510 C.ar    1  UNL1       -0.0553
     35 F           2.5921   -8.3748    3.8931 F       1  UNL1       -0.2055
     36 H           2.5280    0.3457   -0.2011 H       1  UNL1        0.0618
     37 H           1.3809   -0.4437   -2.2542 H       1  UNL1        0.0618
     38 H          -1.0752   -0.4361   -2.3892 H       1  UNL1        0.0636
     39 H          -1.2176    1.5340    1.4334 H       1  UNL1        0.0636
     40 H           1.1910    1.3225    1.6433 H       1  UNL1        0.0618
     41 H          -2.7706    2.1926   -1.6621 H       1  UNL1        0.0671
     42 H          -3.5085    0.7624   -2.4637 H       1  UNL1        0.0671
     43 H          -5.2381    2.3034   -1.3634 H       1  UNL1        0.1503
     44 H          -4.3241    0.0890    2.5997 H       1  UNL1        0.0343
     45 H          -3.0537    1.1855    2.2054 H       1  UNL1        0.0343
     46 H          -2.2872   -0.7879    3.5791 H       1  UNL1        0.0815
     47 H          -1.4426   -0.8174    2.0486 H       1  UNL1        0.0815
     48 H          -2.3286   -2.3651    0.1742 H       1  UNL1        0.0815
     49 H          -3.6360   -3.4655    0.5925 H       1  UNL1        0.0815
     50 H          -5.2234   -1.5862    0.8238 H       1  UNL1        0.0343
     51 H          -4.5153   -1.5864   -0.7767 H       1  UNL1        0.0343
     52 H          -3.4419   -2.5939    4.2089 H       1  UNL1        0.0814
     53 H          -4.7984   -2.1603    3.1514 H       1  UNL1        0.0814
     54 H          -4.8745   -4.5487    3.8928 H       1  UNL1        0.0317
     55 H          -4.8239   -4.3922    2.1628 H       1  UNL1        0.0317
     56 H          -3.4127   -6.1990    2.7523 H       1  UNL1        0.0276
     57 H          -2.3816   -4.9367    2.1349 H       1  UNL1        0.0276
     58 H          -1.7903   -4.2397    4.4468 H       1  UNL1        0.0397
     59 H          -2.4832   -3.9522    6.6714 H       1  UNL1        0.0621
     60 H          -3.8540   -4.6625    8.6058 H       1  UNL1        0.0646
     61 H          -4.9765   -8.2495    6.5601 H       1  UNL1        0.0646
     62 H          -3.6070   -7.5965    4.6132 H       1  UNL1        0.0621
     63 H          -1.5759   -7.4358    2.5421 H       1  UNL1        0.0621
     64 H           0.4931   -8.7544    2.4248 H       1  UNL1        0.0646
     65 H           2.2453   -6.3922    5.5274 H       1  UNL1        0.0646
     66 H           0.1852   -5.0321    5.6939 H       1  UNL1        0.0621
     67 H          -2.0599   -2.8473    2.3249 H       1  UNL1        0.2033
@<TRIPOS>UNITY_ATOM_ATTR
15 1
charge 1
@<TRIPOS>BOND
     1     1     6   ar
     2     1     2   ar
     3     1    36    1
     4     2     3   ar
     5     2    37    1
     6     3     4   ar
     7     3    38    1
     8     4     5   ar
     9     4     7    1
    10     5     6   ar
    11     5    39    1
    12     6    40    1
    13     7    12    1
    14     7     8    1
    15     8     9    1
    16     8    41    1
    17     8    42    1
    18     9    10   am
    19     9    43    1
    20    10    11    2
    21    12    10    1
    22    12    17    1
    23    12    13    1
    24    13    14    1
    25    13    44    1
    26    13    45    1
    27    14    15    1
    28    14    46    1
    29    14    47    1
    30    15    16    1
    31    16    17    1
    32    16    48    1
    33    16    49    1
    34    17    50    1
    35    17    51    1
    36    18    19    1
    37    18    52    1
    38    18    53    1
    39    19    20    1
    40    19    54    1
    41    19    55    1
    42    20    21    1
    43    20    56    1
    44    20    57    1
    45    21    22    1
    46    21    29    1
    47    21    58    1
    48    22    27   ar
    49    22    23   ar
    50    23    24   ar
    51    23    59    1
    52    24    25   ar
    53    24    60    1
    54    25    26   ar
    55    25    28    1
    56    26    27   ar
    57    26    61    1
    58    27    62    1
    59    29    34   ar
    60    29    30   ar
    61    30    31   ar
    62    30    63    1
    63    31    32   ar
    64    31    64    1
    65    32    33   ar
    66    32    35    1
    67    33    34   ar
    68    33    65    1
    69    34    66    1
    70    15    67    1
    71    15    18    1
