@<TRIPOS>MOLECULE
ZINC00002042
 35 37 0 0 0
SMALL
GASTEIGER

@<TRIPOS>ATOM
      1 C           0.6767   -0.1516    0.1482 C.3     1  UNL1       -0.0471
      2 C           0.3643   -0.7005   -1.2376 C.3     1  UNL1        0.0205
      3 N           0.8734   -2.0699   -1.3939 N.ar    1  UNL1       -0.3459
      4 C           0.0432   -3.1554   -1.1408 C.ar    1  UNL1        0.0229
      5 C           0.3578   -4.4558   -1.2208 C.ar    1  UNL1        0.1263
      6 C           1.7525   -4.7835   -1.5791 C.ar    1  UNL1        0.2035
      7 O           2.2394   -5.9090   -1.5329 O.2     1  UNL1       -0.2863
      8 C           2.6418   -3.6463   -1.9539 C.ar    1  UNL1        0.0460
      9 C           2.1959   -2.3177   -1.8194 C.ar    1  UNL1        0.0533
     10 C           3.1214   -1.2981   -2.1294 C.ar    1  UNL1       -0.0298
     11 C           4.4460   -1.5568   -2.5572 C.ar    1  UNL1       -0.0158
     12 C           4.8257   -2.8989   -2.7037 C.ar    1  UNL1       -0.0532
     13 C           3.9381   -3.9326   -2.4039 C.ar    1  UNL1       -0.0484
     14 C           5.4051   -0.4549   -2.8172 C.ar    1  UNL1       -0.0150
     15 C           6.3916   -0.5516   -3.8092 C.ar    1  UNL1       -0.0359
     16 C           7.2901    0.4918   -3.9866 C.ar    1  UNL1        0.0281
     17 N           7.2744    1.6302   -3.2655 N.ar    1  UNL1       -0.2632
     18 C           6.3184    1.7218   -2.3205 C.ar    1  UNL1        0.0281
     19 C           5.3861    0.7268   -2.0622 C.ar    1  UNL1       -0.0359
     20 C          -0.7232   -5.5014   -0.9538 C.2     1  UNL1        0.3916
     21 O          -0.6140   -6.6081   -1.5479 O.co2   1  UNL1       -0.2404
     22 H           0.2064   -0.7615    0.9265 H       1  UNL1        0.0247
     23 H           0.2938    0.8695    0.2435 H       1  UNL1        0.0247
     24 H           1.7528   -0.1303    0.3429 H       1  UNL1        0.0247
     25 H          -0.7250   -0.6903   -1.3744 H       1  UNL1        0.0489
     26 H           0.7429   -0.0302   -2.0166 H       1  UNL1        0.0489
     27 H          -0.9701   -2.8746   -0.8584 H       1  UNL1        0.0818
     28 H           2.8162   -0.2622   -2.0377 H       1  UNL1        0.0644
     29 H           5.8287   -3.1690   -3.0241 H       1  UNL1        0.0624
     30 H           4.2572   -4.9671   -2.5129 H       1  UNL1        0.0625
     31 H           6.4705   -1.4251   -4.4482 H       1  UNL1        0.0639
     32 H           8.0713    0.4308   -4.7387 H       1  UNL1        0.0830
     33 H           6.3194    2.6442   -1.7471 H       1  UNL1        0.0830
     34 H           4.6690    0.8775   -1.2620 H       1  UNL1        0.0639
     35 O          -1.6775   -5.1131   -0.2091 O.co2   1  UNL1       -0.2404
@<TRIPOS>BOND
     1     1     2    1
     2     1    22    1
     3     1    23    1
     4     1    24    1
     5     2     3    1
     6     2    25    1
     7     2    26    1
     8     3     9   ar
     9     3     4   ar
    10     4     5   ar
    11     4    27    1
    12     5     6   ar
    13     5    20    1
    14     6     7    2
    15     6     8   ar
    16     8    13   ar
    17     8     9   ar
    18     9    10   ar
    19    10    11   ar
    20    10    28    1
    21    11    12   ar
    22    11    14    1
    23    12    13   ar
    24    12    29    1
    25    13    30    1
    26    14    19   ar
    27    14    15   ar
    28    15    16   ar
    29    15    31    1
    30    16    17   ar
    31    16    32    1
    32    17    18   ar
    33    18    19   ar
    34    18    33    1
    35    19    34    1
    36    20    21   ar
    37    20    35   ar
