@<TRIPOS>MOLECULE
ZINC00643138
 65 69 0 0 0
SMALL
GASTEIGER

@<TRIPOS>ATOM
      1 H          -4.7177   -1.7763    4.3821 H       1  UNL1        0.0479
      2 C          -3.8040   -1.5632    4.9486 C.3     1  UNL1        0.0280
      3 C          -3.9833   -0.2909    5.8027 C.3     1  UNL1        0.0304
      4 N          -2.7232    0.1156    6.4492 N.am    1  UNL1       -0.2987
      5 C          -1.5847    0.2304    5.5320 C.3     1  UNL1        0.0304
      6 C          -1.3659   -1.0899    4.7737 C.3     1  UNL1        0.0280
      7 N          -2.6162   -1.4640    4.0866 N.pl3   1  UNL1       -0.3269
      8 C          -2.6681   -1.4988    2.7121 C.ar    1  UNL1        0.0300
      9 C          -1.6578   -2.1463    1.9979 C.ar    1  UNL1       -0.0372
     10 C          -1.7119   -2.2960    0.6143 C.ar    1  UNL1       -0.0182
     11 C          -2.8024   -1.8170   -0.1114 C.ar    1  UNL1        0.1207
     12 C          -3.7675   -1.0704    0.5623 C.ar    1  UNL1       -0.0182
     13 C          -3.7050   -0.9293    1.9623 C.ar    1  UNL1       -0.0372
     14 O          -3.0124   -2.0645   -1.4540 O.3     1  UNL1       -0.4893
     15 C          -2.2174   -3.1574   -1.9421 C.3     1  UNL1        0.1179
     16 C          -2.5023   -3.5519   -3.3789 C.3     1  UNL1        0.1195
     17 H          -1.7286   -4.2712   -3.6797 H       1  UNL1        0.0654
     18 C          -3.8509   -4.1231   -3.7174 C.3     1  UNL1        0.0808
     19 O          -3.8501   -4.0433   -5.1583 O.3     1  UNL1       -0.3408
     20 C          -3.0336   -2.9054   -5.4931 C.3     1  UNL1        0.2150
     21 O          -2.4128   -2.4297   -4.2660 O.3     1  UNL1       -0.3344
     22 C          -3.9383   -1.7432   -6.0099 C.3     1  UNL1        0.0762
     23 N          -3.1942   -0.5205   -6.4055 N.pl3   1  UNL1       -0.2922
     24 C          -3.1959    0.0680   -7.6628 C.2     1  UNL1        0.0136
     25 C          -2.4015    1.1760   -7.5774 C.2     1  UNL1        0.0167
     26 N          -1.9314    1.2154   -6.2859 N.2     1  UNL1       -0.3542
     27 C          -2.4128    0.1902   -5.5757 C.2     1  UNL1        0.0641
     28 C          -1.9317   -3.2708   -6.4974 C.ar    1  UNL1        0.0311
     29 C          -0.5781   -3.0076   -6.1737 C.ar    1  UNL1       -0.0507
     30 C           0.4535   -3.2227   -7.0889 C.ar    1  UNL1       -0.0429
     31 C           0.1570   -3.7131   -8.3525 C.ar    1  UNL1        0.0424
     32 C          -1.1563   -4.0193   -8.6944 C.ar    1  UNL1       -0.0246
     33 C          -2.1913   -3.8101   -7.7724 C.ar    1  UNL1        0.0506
     34 CL         -3.7822   -4.2235   -8.3028 Cl      1  UNL1       -0.0830
     35 CL          1.4178   -3.9247   -9.4992 Cl      1  UNL1       -0.0835
     36 H          -1.0967   -1.8885    5.4760 H       1  UNL1        0.0479
     37 H          -0.5243   -0.9622    4.0843 H       1  UNL1        0.0479
     38 H          -1.8199    1.0333    4.8238 H       1  UNL1        0.0480
     39 H          -0.6669    0.5073    6.0577 H       1  UNL1        0.0480
     40 C          -2.5154    0.2975    7.8036 C.2     1  UNL1        0.2126
     41 O          -1.4112    0.5822    8.2704 O.2     1  UNL1       -0.2759
     42 C          -3.6971    0.1188    8.7174 C.3     1  UNL1        0.0124
     43 H          -4.7775   -0.4538    6.5342 H       1  UNL1        0.0480
     44 H          -4.2897    0.5423    5.1593 H       1  UNL1        0.0480
     45 H          -3.6550   -2.4198    5.6211 H       1  UNL1        0.0479
     46 H          -0.8285   -2.6101    2.5306 H       1  UNL1        0.0637
     47 H          -0.8885   -2.8316    0.1561 H       1  UNL1        0.0655
     48 H          -4.5944   -0.6199    0.0205 H       1  UNL1        0.0655
     49 H          -4.4812   -0.3542    2.4617 H       1  UNL1        0.0637
     50 H          -1.1680   -2.8374   -1.9257 H       1  UNL1        0.0723
     51 H          -2.3596   -4.0388   -1.3043 H       1  UNL1        0.0723
     52 H          -4.6829   -3.5279   -3.3387 H       1  UNL1        0.0588
     53 H          -3.9666   -5.1656   -3.4034 H       1  UNL1        0.0588
     54 H          -4.5651   -2.0550   -6.8499 H       1  UNL1        0.0525
     55 H          -4.6295   -1.4365   -5.2152 H       1  UNL1        0.0525
     56 H          -3.7726   -0.3759   -8.4565 H       1  UNL1        0.0798
     57 H          -2.1050    1.9491   -8.2636 H       1  UNL1        0.0820
     58 H          -2.2075   -0.0125   -4.5305 H       1  UNL1        0.0982
     59 H          -0.2982   -2.6239   -5.1929 H       1  UNL1        0.0623
     60 H           1.4828   -3.0074   -6.8090 H       1  UNL1        0.0632
     61 H          -1.3734   -4.4170   -9.6838 H       1  UNL1        0.0647
     62 H          -4.5042    0.8002    8.4374 H       1  UNL1        0.0323
     63 H          -4.0372   -0.9197    8.6896 H       1  UNL1        0.0323
     64 H          -3.3950    0.3530    9.7432 H       1  UNL1        0.0323
     65 H          -1.3114    1.9268   -5.9045 H       1  UNL1        0.1660
@<TRIPOS>BOND
     1     1     2    1
     2     2     7    1
     3     2     3    1
     4     2    45    1
     5     3     4    1
     6     3    43    1
     7     3    44    1
     8     4     5    1
     9     4    40   am
    10     5     6    1
    11     5    38    1
    12     5    39    1
    13     6     7    1
    14     6    36    1
    15     6    37    1
    16     7     8    1
    17     8    13   ar
    18     8     9   ar
    19     9    10   ar
    20     9    46    1
    21    10    11   ar
    22    10    47    1
    23    11    12   ar
    24    11    14    1
    25    12    13   ar
    26    12    48    1
    27    13    49    1
    28    14    15    1
    29    15    50    1
    30    15    51    1
    31    16    21    1
    32    16    18    1
    33    18    19    1
    34    18    52    1
    35    18    53    1
    36    19    20    1
    37    20    21    1
    38    22    23    1
    39    22    54    1
    40    22    55    1
    41    23    27    1
    42    23    24    1
    43    24    25    2
    44    24    56    1
    45    25    26    1
    46    25    57    1
    47    26    27    2
    48    26    65    1
    49    27    58    1
    50    28    33   ar
    51    28    29   ar
    52    29    30   ar
    53    29    59    1
    54    30    31   ar
    55    30    60    1
    56    31    32   ar
    57    31    35    1
    58    32    33   ar
    59    32    61    1
    60    33    34    1
    61    40    41    2
    62    40    42    1
    63    42    62    1
    64    42    63    1
    65    42    64    1
    66    16    17    1
    67    16    15    1
    68    20    28    1
    69    20    22    1
