@<TRIPOS>MOLECULE
ZINC02016037
 43 46 0 0 0
SMALL
GASTEIGER

@<TRIPOS>ATOM
      1 C           2.8085   -6.6335   -1.5879 C.ar    1  UNL1       -0.0597
      2 C           2.7102   -5.3259   -1.1102 C.ar    1  UNL1       -0.0531
      3 C           1.6385   -4.4847   -1.5035 C.ar    1  UNL1       -0.0041
      4 C           1.3021   -3.1475   -1.0674 C.ar    1  UNL1       -0.0071
      5 C           0.2431   -2.6384   -1.7957 C.ar    1  UNL1       -0.0178
      6 S          -0.4365   -3.7757   -2.8611 S.2     1  UNL1       -0.0948
      7 C           0.7070   -4.9907   -2.4225 C.ar    1  UNL1        0.0379
      8 C           0.7838   -6.3282   -2.8705 C.ar    1  UNL1        0.0552
      9 C           1.8378   -7.1374   -2.4398 C.ar    1  UNL1       -0.0423
     10 CL         -0.4070   -7.0055   -3.9187 Cl      1  UNL1       -0.0824
     11 C           2.0096   -2.4040    0.0307 C.3     1  UNL1        0.0746
     12 O           1.7166   -2.9998    1.3056 O.3     1  UNL1       -0.3657
     13 C           2.1202   -2.2618    2.4934 C.3     1  UNL1        0.1014
     14 H           3.2054   -2.1078    2.4269 H       1  UNL1        0.0663
     15 C           1.3940   -0.8854    2.5098 C.3     1  UNL1        0.0480
     16 N          -0.0721   -0.9495    2.6659 N.pl3   1  UNL1       -0.2949
     17 C          -0.9513   -1.8863    2.1235 C.2     1  UNL1        0.0135
     18 C          -2.2085   -1.5119    2.4953 C.2     1  UNL1        0.0167
     19 N          -2.0671   -0.3803    3.2555 N.2     1  UNL1       -0.3542
     20 C          -0.7735   -0.0497    3.3771 C.2     1  UNL1        0.0640
     21 C           1.8665   -3.1451    3.7444 C.ar    1  UNL1        0.0010
     22 C           1.8061   -4.5494    3.5725 C.ar    1  UNL1       -0.0533
     23 C           1.5326   -5.4194    4.6393 C.ar    1  UNL1       -0.0430
     24 C           1.3119   -4.9118    5.9127 C.ar    1  UNL1        0.0424
     25 C           1.4235   -3.5438    6.1378 C.ar    1  UNL1       -0.0247
     26 C           1.7302   -2.6776    5.0726 C.ar    1  UNL1        0.0480
     27 CL          1.9773   -1.0398    5.5682 Cl      1  UNL1       -0.0831
     28 CL          0.9239   -5.9596    7.2121 Cl      1  UNL1       -0.0835
     29 H           3.6409   -7.2615   -1.2790 H       1  UNL1        0.0618
     30 H           3.4717   -4.9533   -0.4294 H       1  UNL1        0.0624
     31 H          -0.1941   -1.6507   -1.7427 H       1  UNL1        0.0697
     32 H           1.9044   -8.1693   -2.7775 H       1  UNL1        0.0632
     33 H           3.0907   -2.3824   -0.1314 H       1  UNL1        0.0610
     34 H           1.6388   -1.3783   -0.0093 H       1  UNL1        0.0610
     35 H           1.8073   -0.2211    3.2659 H       1  UNL1        0.0497
     36 H           1.5736   -0.3258    1.5856 H       1  UNL1        0.0497
     37 H          -0.5911   -2.7086    1.5345 H       1  UNL1        0.0798
     38 H          -3.1944   -1.9087    2.3154 H       1  UNL1        0.0820
     39 H          -0.3790    0.7908    3.9277 H       1  UNL1        0.0982
     40 H           1.9724   -4.9991    2.5939 H       1  UNL1        0.0622
     41 H           1.4891   -6.4931    4.4676 H       1  UNL1        0.0632
     42 H           1.2869   -3.1609    7.1435 H       1  UNL1        0.0647
     43 H          -2.8261    0.1384    3.6846 H       1  UNL1        0.1660
@<TRIPOS>BOND
     1     1     9   ar
     2     1     2   ar
     3     1    29    1
     4     2     3   ar
     5     2    30    1
     6     3     7   ar
     7     3     4   ar
     8     4     5   ar
     9     4    11    1
    10     5     6   ar
    11     5    31    1
    12     6     7   ar
    13     7     8   ar
    14     8     9   ar
    15     8    10    1
    16     9    32    1
    17    11    12    1
    18    11    33    1
    19    11    34    1
    20    12    13    1
    21    13    14    1
    22    13    15    1
    23    13    21    1
    24    15    16    1
    25    15    35    1
    26    15    36    1
    27    16    20    1
    28    16    17    1
    29    17    18    2
    30    17    37    1
    31    18    19    1
    32    18    38    1
    33    19    20    2
    34    19    43    1
    35    20    39    1
    36    21    26   ar
    37    21    22   ar
    38    22    23   ar
    39    22    40    1
    40    23    24   ar
    41    23    41    1
    42    24    25   ar
    43    24    28    1
    44    25    26   ar
    45    25    42    1
    46    26    27    1
