@<TRIPOS>MOLECULE
ZINC03813083
 51 53 0 0 0
SMALL
GASTEIGER

@<TRIPOS>ATOM
      1 C          -0.7551   -2.0614    0.7334 C.3     1  UNL1       -0.0414
      2 N          -0.3534   -1.1536   -0.4333 N.4     1  UNL1        0.2416
      3 C          -0.4966   -1.9312   -1.7408 C.3     1  UNL1       -0.0304
      4 C           0.0343   -1.1349   -2.9279 C.3     1  UNL1       -0.0089
      5 C           1.4561   -0.6274   -2.7156 C.3     1  UNL1       -0.0058
      6 C           1.6588    0.1296   -1.3976 C.3     1  UNL1        0.1427
      7 H           2.7372    0.2600   -1.2406 H       1  UNL1        0.0788
      8 C           1.1229   -0.7298   -0.2311 C.3     1  UNL1        0.0074
      9 O           1.0805    1.4482   -1.2339 O.3     1  UNL1       -0.4535
     10 C           1.2546    2.4333   -2.1634 C.2     1  UNL1        0.3489
     11 O           1.3152    2.2118   -3.3667 O.2     1  UNL1       -0.2468
     12 C           1.4560    3.8503   -1.4789 C.3     1  UNL1        0.2134
     13 C           2.7805    4.4498   -2.0147 C.ar    1  UNL1       -0.0008
     14 C           3.9772    3.7222   -1.8167 C.ar    1  UNL1       -0.0550
     15 C           5.1947    4.1643   -2.3382 C.ar    1  UNL1       -0.0614
     16 C           5.2478    5.3460   -3.0664 C.ar    1  UNL1       -0.0617
     17 C           4.0921    6.1001   -3.2449 C.ar    1  UNL1       -0.0614
     18 C           2.8730    5.6649   -2.7128 C.ar    1  UNL1       -0.0550
     19 C           0.2037    4.7374   -1.6365 C.ar    1  UNL1       -0.0008
     20 C          -0.3125    5.0719   -2.9029 C.ar    1  UNL1       -0.0550
     21 C          -1.3435    6.0091   -3.0412 C.ar    1  UNL1       -0.0614
     22 C          -1.9112    6.6047   -1.9185 C.ar    1  UNL1       -0.0617
     23 C          -1.4624    6.2480   -0.6520 C.ar    1  UNL1       -0.0614
     24 C          -0.4179    5.3275   -0.5131 C.ar    1  UNL1       -0.0550
     25 O           1.6567    3.6506   -0.0564 O.3     1  UNL1       -0.3698
     26 C          -1.3024    0.0490   -0.4061 C.3     1  UNL1       -0.0414
     27 H          -1.7720   -2.4246    0.5562 H       1  UNL1        0.0778
     28 H          -0.0544   -2.9002    0.7840 H       1  UNL1        0.0778
     29 H          -0.7146   -1.4735    1.6557 H       1  UNL1        0.0778
     30 H           0.0665   -2.8645   -1.6223 H       1  UNL1        0.0815
     31 H          -1.5564   -2.1774   -1.8712 H       1  UNL1        0.0815
     32 H          -0.6280   -0.2992   -3.1643 H       1  UNL1        0.0318
     33 H           0.0238   -1.7876   -3.8135 H       1  UNL1        0.0318
     34 H           1.7638   -0.0364   -3.5805 H       1  UNL1        0.0305
     35 H           2.1231   -1.5014   -2.7054 H       1  UNL1        0.0305
     36 H           1.1705   -0.1913    0.7223 H       1  UNL1        0.0852
     37 H           1.7022   -1.6582   -0.1488 H       1  UNL1        0.0852
     38 H           3.9706    2.7901   -1.2555 H       1  UNL1        0.0621
     39 H           6.1001    3.5831   -2.1834 H       1  UNL1        0.0618
     40 H           6.1895    5.6835   -3.4935 H       1  UNL1        0.0618
     41 H           4.1361    7.0302   -3.8081 H       1  UNL1        0.0618
     42 H           2.0078    6.3025   -2.8767 H       1  UNL1        0.0621
     43 H           0.1302    4.6589   -3.8100 H       1  UNL1        0.0621
     44 H          -1.6842    6.3042   -4.0335 H       1  UNL1        0.0618
     45 H          -2.6936    7.3517   -2.0288 H       1  UNL1        0.0618
     46 H          -1.9043    6.7071    0.2289 H       1  UNL1        0.0618
     47 H          -0.0775    5.1069    0.4958 H       1  UNL1        0.0621
     48 H           2.4259    4.1903    0.1982 H       1  UNL1        0.2117
     49 H          -1.1642    0.6559   -1.3007 H       1  UNL1        0.0778
     50 H          -2.3292   -0.3281   -0.3891 H       1  UNL1        0.0778
     51 H          -1.0927    0.6328    0.4939 H       1  UNL1        0.0778
@<TRIPOS>UNITY_ATOM_ATTR
2 1
charge 1
@<TRIPOS>BOND
     1     1     2    1
     2     1    27    1
     3     1    28    1
     4     1    29    1
     5     2     8    1
     6     2     3    1
     7     2    26    1
     8     3     4    1
     9     3    30    1
    10     3    31    1
    11     4     5    1
    12     4    32    1
    13     4    33    1
    14     5     6    1
    15     5    34    1
    16     5    35    1
    17     6     8    1
    18     8    36    1
    19     8    37    1
    20     9    10    1
    21    10    11    2
    22    10    12    1
    23    12    13    1
    24    12    19    1
    25    12    25    1
    26    13    18   ar
    27    13    14   ar
    28    14    15   ar
    29    14    38    1
    30    15    16   ar
    31    15    39    1
    32    16    17   ar
    33    16    40    1
    34    17    18   ar
    35    17    41    1
    36    18    42    1
    37    19    24   ar
    38    19    20   ar
    39    20    21   ar
    40    20    43    1
    41    21    22   ar
    42    21    44    1
    43    22    23   ar
    44    22    45    1
    45    23    24   ar
    46    23    46    1
    47    24    47    1
    48    25    48    1
    49    26    49    1
    50    26    50    1
    51    26    51    1
    52     6     9    1
    53     6     7    1
