@<TRIPOS>MOLECULE
ZINC00537891
 46 49 0 0 0
SMALL
GASTEIGER

@<TRIPOS>ATOM
      1 C           0.9626    0.1510    0.0696 C.3     1  UNL1       -0.0410
      2 C           0.4583    0.2995   -1.3774 C.3     1  UNL1        0.0658
      3 H          -0.6329    0.1752   -1.3626 H       1  UNL1        0.0559
      4 C           1.0481   -0.8468   -2.2105 C.3     1  UNL1        0.1101
      5 O           1.5356   -0.5840   -3.5212 O.3     1  UNL1       -0.4859
      6 C           2.0421    0.6751   -3.7441 C.ar    1  UNL1        0.1684
      7 C           1.5715    1.7792   -3.0083 C.ar    1  UNL1        0.0974
      8 N           0.7487    1.6419   -1.8840 N.ar    1  UNL1       -0.3367
      9 C           0.2249    2.7803   -1.2932 C.ar    1  UNL1        0.0235
     10 C           0.4811    4.0515   -1.6285 C.ar    1  UNL1        0.1263
     11 C           1.4139    4.2762   -2.7503 C.ar    1  UNL1        0.2037
     12 O           1.8223    5.3696   -3.1234 O.2     1  UNL1       -0.2863
     13 C           1.9290    3.0661   -3.4529 C.ar    1  UNL1        0.0524
     14 C           2.7743    3.2450   -4.5487 C.ar    1  UNL1       -0.0116
     15 C           3.2828    2.1361   -5.2057 C.ar    1  UNL1        0.1487
     16 C           2.9390    0.8148   -4.8408 C.ar    1  UNL1        0.1100
     17 N           3.4637   -0.2899   -5.5254 N.pl3   1  UNL1       -0.3147
     18 C           3.8687   -1.4975   -4.7957 C.3     1  UNL1        0.0527
     19 C           5.3669   -1.7898   -5.0142 C.3     1  UNL1       -0.0160
     20 N           5.7230   -1.7963   -6.5002 N.4     1  UNL1        0.2353
     21 C           5.3124   -0.4698   -7.1563 C.3     1  UNL1       -0.0160
     22 C           3.8032   -0.2329   -6.9520 C.3     1  UNL1        0.0527
     23 C           7.1662   -2.1191   -6.7226 C.3     1  UNL1       -0.0430
     24 F           4.1674    2.3538   -6.1942 F       1  UNL1       -0.2034
     25 C          -0.1889    5.1655   -0.8320 C.2     1  UNL1        0.3916
     26 O          -0.4387    6.2375   -1.4444 O.co2   1  UNL1       -0.2404
     27 O          -0.4860    4.8590    0.3659 O.co2   1  UNL1       -0.2404
     28 H           0.7106   -0.8375    0.4685 H       1  UNL1        0.0251
     29 H           0.5225    0.8952    0.7401 H       1  UNL1        0.0251
     30 H           2.0519    0.2702    0.1193 H       1  UNL1        0.0251
     31 H           1.8508   -1.3644   -1.6697 H       1  UNL1        0.0717
     32 H           0.2626   -1.6038   -2.3342 H       1  UNL1        0.0717
     33 H          -0.4583    2.5785   -0.4675 H       1  UNL1        0.0819
     34 H           3.0447    4.2405   -4.8827 H       1  UNL1        0.0654
     35 H           3.2690   -2.3420   -5.1543 H       1  UNL1        0.0516
     36 H           3.7273   -1.4216   -3.7135 H       1  UNL1        0.0516
     37 H           5.6242   -2.7790   -4.6186 H       1  UNL1        0.0830
     38 H           5.9931   -1.0277   -4.5397 H       1  UNL1        0.0830
     39 H           5.9193    0.3172   -6.6963 H       1  UNL1        0.0830
     40 H           5.5515   -0.5553   -8.2210 H       1  UNL1        0.0830
     41 H           3.2490   -1.0327   -7.4607 H       1  UNL1        0.0516
     42 H           3.4906    0.6921   -7.4454 H       1  UNL1        0.0516
     43 H           7.3656   -3.0985   -6.2792 H       1  UNL1        0.0778
     44 H           7.3460   -2.1562   -7.7998 H       1  UNL1        0.0778
     45 H           7.7773   -1.3465   -6.2486 H       1  UNL1        0.0778
     46 H           5.1568   -2.5317   -6.9409 H       1  UNL1        0.2032
@<TRIPOS>UNITY_ATOM_ATTR
20 1
charge 1
@<TRIPOS>BOND
     1     1     2    1
     2     1    28    1
     3     1    29    1
     4     1    30    1
     5     2     3    1
     6     2     8    1
     7     2     4    1
     8     4     5    1
     9     4    31    1
    10     4    32    1
    11     5     6    1
    12     6    16   ar
    13     6     7   ar
    14     7    13   ar
    15     7     8   ar
    16     8     9   ar
    17     9    10   ar
    18     9    33    1
    19    10    11   ar
    20    10    25    1
    21    11    12    2
    22    11    13   ar
    23    13    14   ar
    24    14    15   ar
    25    14    34    1
    26    15    16   ar
    27    15    24    1
    28    16    17    1
    29    17    22    1
    30    17    18    1
    31    18    19    1
    32    18    35    1
    33    18    36    1
    34    19    20    1
    35    19    37    1
    36    19    38    1
    37    20    21    1
    38    20    23    1
    39    20    46    1
    40    21    22    1
    41    21    39    1
    42    21    40    1
    43    22    41    1
    44    22    42    1
    45    23    43    1
    46    23    44    1
    47    23    45    1
    48    25    26   ar
    49    25    27   ar
