@<TRIPOS>MOLECULE
ZINC01530613
 58 59 0 0 0
SMALL
GASTEIGER

@<TRIPOS>ATOM
      1 C           1.5531    3.1811    0.6625 C.3     1  UNL1       -0.0245
      2 C           0.8486    2.5609   -0.5324 C.3     1  UNL1       -0.0347
      3 N           1.0282    1.0535   -0.5535 N.4     1  UNL1        0.2372
      4 C           0.4990    0.3286    0.6761 C.3     1  UNL1       -0.0347
      5 C          -0.9900    0.5387    0.8884 C.3     1  UNL1       -0.0245
      6 C           0.5369    0.3912   -1.8407 C.3     1  UNL1        0.0032
      7 C           1.3727    0.7977   -3.0695 C.3     1  UNL1        0.1320
      8 O           2.7838    0.6443   -2.8472 O.3     1  UNL1       -0.4589
      9 C           3.2505   -0.6401   -2.9106 C.2     1  UNL1        0.3138
     10 O           2.5026   -1.6006   -2.9449 O.2     1  UNL1       -0.2502
     11 C           4.7954   -0.7094   -2.9205 C.3     1  UNL1        0.0706
     12 C           5.3568    0.5624   -2.2152 C.3     1  UNL1       -0.0370
     13 C           6.8289    0.4956   -1.8158 C.3     1  UNL1       -0.0520
     14 C           7.1685   -0.7532   -1.0153 C.3     1  UNL1       -0.0530
     15 C           6.6492   -2.0244   -1.6724 C.3     1  UNL1       -0.0520
     16 C           5.1683   -1.9265   -2.0254 C.3     1  UNL1       -0.0370
     17 C           5.3052   -0.8577   -4.4204 C.3     1  UNL1       -0.0253
     18 C           4.9343   -2.2231   -5.0634 C.3     1  UNL1       -0.0492
     19 C           5.2398   -2.3419   -6.5583 C.3     1  UNL1       -0.0528
     20 C           4.7068   -1.1595   -7.3567 C.3     1  UNL1       -0.0530
     21 C           5.2551    0.1385   -6.7882 C.3     1  UNL1       -0.0528
     22 C           4.8351    0.3056   -5.3286 C.3     1  UNL1       -0.0492
     23 H           1.0687    2.9151    1.6065 H       1  UNL1        0.0281
     24 H           1.5278    4.2737    0.5849 H       1  UNL1        0.0281
     25 H           2.6020    2.8715    0.7103 H       1  UNL1        0.0281
     26 H          -0.2206    2.7836   -0.5442 H       1  UNL1        0.0812
     27 H           1.2995    2.9559   -1.4473 H       1  UNL1        0.0812
     28 H           0.7286   -0.7346    0.5447 H       1  UNL1        0.0812
     29 H           1.0772    0.6797    1.5369 H       1  UNL1        0.0812
     30 H          -1.5785    0.1608    0.0470 H       1  UNL1        0.0281
     31 H          -1.3147   -0.0003    1.7841 H       1  UNL1        0.0281
     32 H          -1.2407    1.5918    1.0407 H       1  UNL1        0.0281
     33 H           0.6186   -0.6870   -1.6774 H       1  UNL1        0.0848
     34 H          -0.5154    0.6529   -1.9800 H       1  UNL1        0.0848
     35 H           1.0653    0.2226   -3.9519 H       1  UNL1        0.0752
     36 H           1.2026    1.8518   -3.3215 H       1  UNL1        0.0752
     37 H           5.2043    1.4589   -2.8259 H       1  UNL1        0.0276
     38 H           4.7799    0.7396   -1.2956 H       1  UNL1        0.0276
     39 H           7.0690    1.3768   -1.2076 H       1  UNL1        0.0266
     40 H           7.4621    0.5515   -2.7081 H       1  UNL1        0.0266
     41 H           6.7393   -0.6670   -0.0094 H       1  UNL1        0.0265
     42 H           8.2543   -0.8223   -0.8870 H       1  UNL1        0.0265
     43 H           6.7958   -2.8637   -0.9828 H       1  UNL1        0.0266
     44 H           7.2377   -2.2490   -2.5698 H       1  UNL1        0.0266
     45 H           4.6014   -1.8606   -1.0863 H       1  UNL1        0.0276
     46 H           4.8450   -2.8687   -2.4797 H       1  UNL1        0.0276
     47 H           6.4022   -0.8174   -4.4019 H       1  UNL1        0.0311
     48 H           5.4772   -3.0303   -4.5580 H       1  UNL1        0.0268
     49 H           3.8653   -2.4216   -4.9261 H       1  UNL1        0.0268
     50 H           4.7995   -3.2685   -6.9479 H       1  UNL1        0.0265
     51 H           6.3227   -2.4191   -6.7067 H       1  UNL1        0.0265
     52 H           3.6098   -1.1516   -7.3245 H       1  UNL1        0.0265
     53 H           4.9964   -1.2579   -8.4085 H       1  UNL1        0.0265
     54 H           4.8846    0.9848   -7.3761 H       1  UNL1        0.0265
     55 H           6.3494    0.1499   -6.8634 H       1  UNL1        0.0265
     56 H           3.7427    0.3855   -5.3037 H       1  UNL1        0.0268
     57 H           5.2346    1.2587   -4.9675 H       1  UNL1        0.0268
     58 H           2.0457    0.8919   -0.5537 H       1  UNL1        0.2034
@<TRIPOS>UNITY_ATOM_ATTR
3 1
charge 1
@<TRIPOS>BOND
     1     1     2    1
     2     1    23    1
     3     1    24    1
     4     1    25    1
     5     2     3    1
     6     2    26    1
     7     2    27    1
     8     3     4    1
     9     3     6    1
    10     3    58    1
    11     4     5    1
    12     4    28    1
    13     4    29    1
    14     5    30    1
    15     5    31    1
    16     5    32    1
    17     6     7    1
    18     6    33    1
    19     6    34    1
    20     7     8    1
    21     7    35    1
    22     7    36    1
    23     8     9    1
    24     9    10    2
    25     9    11    1
    26    11    16    1
    27    11    12    1
    28    11    17    1
    29    12    13    1
    30    12    37    1
    31    12    38    1
    32    13    14    1
    33    13    39    1
    34    13    40    1
    35    14    15    1
    36    14    41    1
    37    14    42    1
    38    15    16    1
    39    15    43    1
    40    15    44    1
    41    16    45    1
    42    16    46    1
    43    17    22    1
    44    17    18    1
    45    17    47    1
    46    18    19    1
    47    18    48    1
    48    18    49    1
    49    19    20    1
    50    19    50    1
    51    19    51    1
    52    20    21    1
    53    20    52    1
    54    20    53    1
    55    21    22    1
    56    21    54    1
    57    21    55    1
    58    22    56    1
    59    22    57    1
