@<TRIPOS>MOLECULE
ZINC00057062
 31 31 0 0 0
SMALL
GASTEIGER

@<TRIPOS>ATOM
      1 C           3.2205    3.8346    3.2646 C.3     1  UNL1       -0.0362
      2 C           2.7665    2.7876    4.2437 C.ar    1  UNL1       -0.0085
      3 C           2.6963    3.1906    5.5926 C.ar    1  UNL1       -0.0554
      4 C           2.4592    2.2741    6.6107 C.ar    1  UNL1       -0.0610
      5 C           2.3173    0.9279    6.3001 C.ar    1  UNL1       -0.0554
      6 C           2.3515    0.4993    4.9641 C.ar    1  UNL1       -0.0085
      7 C           2.4999    1.4422    3.9194 C.ar    1  UNL1        0.1266
      8 O           2.4242    0.9033    2.6529 O.3     1  UNL1       -0.4859
      9 C           1.9132    1.7437    1.6151 C.3     1  UNL1        0.1316
     10 C           1.3360    0.8732    0.4838 C.3     1  UNL1        0.0076
     11 H           2.0722    0.1272    0.1465 H       1  UNL1        0.0881
     12 C           0.8571    1.7143   -0.6938 C.3     1  UNL1       -0.0185
     13 N           0.1911    0.0640    1.0098 N.4     1  UNL1        0.2230
     14 C           2.2722   -0.9773    4.6840 C.3     1  UNL1       -0.0362
     15 H           4.0031    3.4298    2.6155 H       1  UNL1        0.0279
     16 H           2.3841    4.2147    2.6727 H       1  UNL1        0.0279
     17 H           3.6722    4.6918    3.7775 H       1  UNL1        0.0279
     18 H           2.8738    4.2314    5.8692 H       1  UNL1        0.0621
     19 H           2.4381    2.6026    7.6482 H       1  UNL1        0.0618
     20 H           2.1984    0.2139    7.1131 H       1  UNL1        0.0621
     21 H           1.1220    2.4046    1.9965 H       1  UNL1        0.0754
     22 H           2.7313    2.3325    1.1948 H       1  UNL1        0.0754
     23 H           0.0818    1.2122   -1.2824 H       1  UNL1        0.0285
     24 H           0.4605    2.6827   -0.3697 H       1  UNL1        0.0285
     25 H           1.6965    1.9166   -1.3686 H       1  UNL1        0.0285
     26 H          -0.4431   -0.2652    0.2660 H       1  UNL1        0.1998
     27 H           0.5542   -0.7721    1.4879 H       1  UNL1        0.1998
     28 H           1.3638   -1.2129    4.1227 H       1  UNL1        0.0279
     29 H           3.1511   -1.2968    4.1145 H       1  UNL1        0.0279
     30 H           2.2594   -1.5619    5.6109 H       1  UNL1        0.0279
     31 H          -0.3669    0.5747    1.7025 H       1  UNL1        0.1998
@<TRIPOS>UNITY_ATOM_ATTR
13 1
charge 1
@<TRIPOS>BOND
     1     1     2    1
     2     1    15    1
     3     1    16    1
     4     1    17    1
     5     2     7   ar
     6     2     3   ar
     7     3     4   ar
     8     3    18    1
     9     4     5   ar
    10     4    19    1
    11     5     6   ar
    12     5    20    1
    13     6     7   ar
    14     6    14    1
    15     7     8    1
    16     8     9    1
    17     9    21    1
    18     9    22    1
    19    10    12    1
    20    10    13    1
    21    12    23    1
    22    12    24    1
    23    12    25    1
    24    13    26    1
    25    13    27    1
    26    13    31    1
    27    14    28    1
    28    14    29    1
    29    14    30    1
    30    10    11    1
    31    10     9    1
