@<TRIPOS>MOLECULE
ZINC03812863
 60 61 0 0 0
SMALL
GASTEIGER

@<TRIPOS>ATOM
      1 C           5.1003    1.9814   -2.4092 C.ar    1  UNK1       -0.0617
      2 C           4.3190    0.8280   -2.4366 C.ar    1  UNK1       -0.0615
      3 C           2.9557    0.8975   -2.1364 C.ar    1  UNK1       -0.0586
      4 C           2.3572    2.1251   -1.8240 C.ar    1  UNK1       -0.0471
      5 C           3.1600    3.2725   -1.7627 C.ar    1  UNK1       -0.0586
      6 C           4.5236    3.2007   -2.0603 C.ar    1  UNK1       -0.0615
      7 C           0.8625    2.2070   -1.5893 C.3     1  UNK1       -0.0220
      8 C           0.4941    1.9725   -0.1183 C.3     1  UNK1        0.0049
      9 C          -0.9886    2.2006    0.1679 C.3     1  UNK1        0.0813
     10 H          -1.2908    3.1356   -0.3225 H       1  UNK1        0.0971
     11 C          -2.0000    1.1230   -0.3330 C.2     1  UNK1        0.4027
     12 O          -3.1023    1.2578    0.2919 O.co2   1  UNK1       -0.2400
     13 O          -1.5791    0.2455   -1.1148 O.co2   1  UNK1       -0.2400
     14 N          -1.2801    2.4928    1.6506 N.4     1  UNK1        0.2460
     15 C          -0.9912    1.5126    2.7762 C.3     1  UNK1        0.0559
     16 H          -1.3894    0.5421    2.4589 H       1  UNK1        0.0949
     17 C           0.5200    1.4195    3.0537 C.3     1  UNK1       -0.0008
     18 C           1.3163    2.7380    3.1736 C.3     1  UNK1       -0.0427
     19 C           1.1701    3.5205    4.4748 C.3     1  UNK1       -0.0124
     20 C           1.6545    2.7508    5.6921 C.3     1  UNK1       -0.0354
     21 N           1.3293    3.5047    6.9059 N.4     1  UNK1        0.2185
     22 C          -1.7855    1.9883    4.0268 C.2     1  UNK1        0.2645
     23 O          -2.1984    3.1566    4.0195 O.2     1  UNK1       -0.2694
     24 N          -2.0137    1.1480    5.0925 N.am    2  PRO2       -0.2833
     25 CD         -1.5363   -0.1986    5.3279 C.3     2  PRO2        0.0158
     26 CG         -2.5839   -0.7994    6.2506 C.3     2  PRO2       -0.0349
     27 CB         -3.0559    0.3702    7.1116 C.3     2  PRO2       -0.0223
     28 CA         -2.7954    1.6290    6.2644 C.3     2  PRO2        0.1274
     29 HA         -3.7338    2.0681    5.9023 H       2  PRO2        0.0618
     30 C          -2.0662    2.6335    7.1856 C.2     2  PRO2        0.3760
     31 O          -0.7957    2.5345    7.2042 O.co2   2  PRO2       -0.2443
     32 OXT        -2.7597    3.4678    7.8162 O.co2   2  PRO2       -0.2443
     33 H           6.1541    1.9309   -2.6726 H       1  UNK1        0.0618
     34 H           4.7647   -0.1246   -2.7111 H       1  UNK1        0.0618
     35 H           2.3553   -0.0091   -2.1767 H       1  UNK1        0.0620
     36 H           2.7257    4.2370   -1.5133 H       1  UNK1        0.0620
     37 H           5.1312    4.1018   -2.0424 H       1  UNK1        0.0618
     38 H           0.5118    3.1963   -1.9103 H       1  UNK1        0.0315
     39 H           0.3624    1.4855   -2.2405 H       1  UNK1        0.0315
     40 H           0.7770    0.9481    0.1482 H       1  UNK1        0.0329
     41 H           1.1033    2.6549    0.4758 H       1  UNK1        0.0329
     42 H          -1.1790    3.4690    1.9481 H       1  UNK1        0.2030
     43 H           0.6996    0.8002    3.9353 H       1  UNK1        0.0325
     44 H           0.9727    0.8417    2.2432 H       1  UNK1        0.0325
     45 H           2.3801    2.4941    3.0382 H       1  UNK1        0.0269
     46 H           1.0627    3.4241    2.3633 H       1  UNK1        0.0269
     47 H           1.7667    4.4372    4.3822 H       1  UNK1        0.0317
     48 H           0.1371    3.8552    4.5967 H       1  UNK1        0.0317
     49 H           1.1713    1.7755    5.7867 H       1  UNK1        0.0813
     50 H           2.7374    2.6064    5.6703 H       1  UNK1        0.0813
     51 H           0.2881    3.3548    7.0478 H       1  UNK1        0.1994
     52 H           1.6735    3.0750    7.7649 H       1  UNK1        0.1994
     53 HD1        -0.5754   -0.1206    5.8473 H       2  PRO2        0.0465
     54 HD2        -1.4001   -0.7608    4.4039 H       2  PRO2        0.0465
     55 HG1        -3.4283   -1.1821    5.6614 H       2  PRO2        0.0281
     56 HG2        -2.1921   -1.6270    6.8516 H       2  PRO2        0.0281
     57 HB1        -4.1201    0.2700    7.3553 H       2  PRO2        0.0289
     58 HB2        -2.5143    0.3827    8.0652 H       2  PRO2        0.0289
     59 H           1.4656    4.5148    6.9020 H       1  UNK1        0.1994
     60 H          -2.3283    2.3994    1.5921 H       1  UNK1        0.2030
@<TRIPOS>UNITY_ATOM_ATTR
14 1
charge 1
21 1
charge 1
@<TRIPOS>BOND
     1     1     6   ar
     2     1     2   ar
     3     1    33    1
     4     2     3   ar
     5     2    34    1
     6     3     4   ar
     7     3    35    1
     8     4     5   ar
     9     4     7    1
    10     5     6   ar
    11     5    36    1
    12     6    37    1
    13     7     8    1
    14     7    38    1
    15     7    39    1
    16     8     9    1
    17     8    40    1
    18     8    41    1
    19     9    10    1
    20     9    11    1
    21     9    14    1
    22    11    12   ar
    23    11    13   ar
    24    14    15    1
    25    14    42    1
    26    14    60    1
    27    15    16    1
    28    15    17    1
    29    15    22    1
    30    17    18    1
    31    17    43    1
    32    17    44    1
    33    18    19    1
    34    18    45    1
    35    18    46    1
    36    19    20    1
    37    19    47    1
    38    19    48    1
    39    20    21    1
    40    20    49    1
    41    20    50    1
    42    21    51    1
    43    21    52    1
    44    21    59    1
    45    22    23    2
    46    22    24   am
    47    24    28    1
    48    24    25    1
    49    25    26    1
    50    25    53    1
    51    25    54    1
    52    26    27    1
    53    26    55    1
    54    26    56    1
    55    27    28    1
    56    27    57    1
    57    27    58    1
    58    28    29    1
    59    28    30    1
    60    30    31   ar
    61    30    32   ar
