@<TRIPOS>MOLECULE
ZINC00597260
 47 48 0 0 0
SMALL
GASTEIGER

@<TRIPOS>ATOM
      1 C           1.4107    0.0950    0.0338 C.3     1  UNL1       -0.0260
      2 C           0.6548    1.3785    0.3028 C.2     1  UNL1        0.0164
      3 C          -0.6655    1.4320    0.6253 C.2     1  UNL1        0.0652
      4 C          -1.3542    2.7695    0.9444 C.3     1  UNL1        0.0517
      5 H          -1.6206    2.7293    2.0095 H       1  UNL1        0.0452
      6 C          -0.4094    3.9642    0.7841 C.2     1  UNL1        0.0800
      7 C           0.8828    3.7884    0.4031 C.2     1  UNL1        0.1203
      8 N           1.4177    2.5416    0.2109 N.pl3   1  UNL1       -0.3088
      9 C           1.6714    5.0341    0.0331 C.1     1  UNL1        0.1152
     10 N           2.3256    6.0674   -0.2738 N.1     1  UNL1       -0.1895
     11 C          -0.9864    5.3401    0.9183 C.2     1  UNL1        0.3383
     12 O          -0.5844    6.3167    0.3070 O.2     1  UNL1       -0.2452
     13 O          -2.0385    5.3690    1.7751 O.3     1  UNL1       -0.4646
     14 C          -2.6986    6.6452    1.8138 C.3     1  UNL1        0.0820
     15 C          -2.6417    2.9926    0.1285 C.ar    1  UNL1       -0.0330
     16 C          -2.6108    3.1865   -1.2655 C.ar    1  UNL1       -0.0575
     17 C          -3.7849    3.4630   -1.9759 C.ar    1  UNL1       -0.0594
     18 C          -5.0136    3.5203   -1.3198 C.ar    1  UNL1       -0.0355
     19 C          -5.0617    3.3065    0.0612 C.ar    1  UNL1        0.0754
     20 C          -3.8852    3.0674    0.7872 C.ar    1  UNL1       -0.0314
     21 N          -6.3586    3.2992    0.7515 N.pl3   1  UNL1       -0.1866
     22 O          -7.3797    3.4405    0.0637 O.2     1  UNL1       -0.1726
     23 O          -6.3566    3.1358    1.9799 O.co2   1  UNL1       -0.7770
     24 C          -1.4903    0.1862    0.6113 C.2     1  UNL1        0.3378
     25 O          -1.2115   -0.7914   -0.0727 O.2     1  UNL1       -0.2452
     26 O          -2.5922    0.2716    1.4025 O.3     1  UNL1       -0.4586
     27 C          -3.4863   -0.8667    1.3297 C.3     1  UNL1        0.0978
     28 C          -3.1183   -1.8855    2.4022 C.3     1  UNL1       -0.0280
     29 C          -4.9203   -0.3824    1.5139 C.3     1  UNL1       -0.0280
     30 H           1.1872   -0.2802   -0.9685 H       1  UNL1        0.0290
     31 H           1.1718   -0.6701    0.7800 H       1  UNL1        0.0290
     32 H           2.4927    0.2535    0.0952 H       1  UNL1        0.0290
     33 H           2.3715    2.4755   -0.1369 H       1  UNL1        0.1525
     34 H          -2.1657    7.3090    2.5010 H       1  UNL1        0.0661
     35 H          -2.7688    7.1041    0.8217 H       1  UNL1        0.0661
     36 H          -3.7147    6.4964    2.1779 H       1  UNL1        0.0661
     37 H          -1.6696    3.1421   -1.8088 H       1  UNL1        0.0621
     38 H          -3.7370    3.6333   -3.0512 H       1  UNL1        0.0618
     39 H          -5.9141    3.7262   -1.8939 H       1  UNL1        0.0639
     40 H          -3.9269    2.9403    1.8683 H       1  UNL1        0.0642
     41 H          -3.4308   -1.3407    0.3417 H       1  UNL1        0.0728
     42 H          -3.2110   -1.4546    3.4045 H       1  UNL1        0.0265
     43 H          -3.7653   -2.7669    2.3420 H       1  UNL1        0.0265
     44 H          -2.0802   -2.2128    2.2892 H       1  UNL1        0.0265
     45 H          -5.2031    0.2789    0.6893 H       1  UNL1        0.0265
     46 H          -5.6232   -1.2219    1.5268 H       1  UNL1        0.0265
     47 H          -5.0348    0.1889    2.4407 H       1  UNL1        0.0265
@<TRIPOS>UNITY_ATOM_ATTR
23 1
charge -1
@<TRIPOS>BOND
     1     1     2    1
     2     1    30    1
     3     1    31    1
     4     1    32    1
     5     2     8    1
     6     2     3    2
     7     3     4    1
     8     3    24    1
     9     4     6    1
    10     6     7    2
    11     6    11    1
    12     7     8    1
    13     7     9    1
    14     8    33    1
    15     9    10    3
    16    11    12    2
    17    11    13    1
    18    13    14    1
    19    14    34    1
    20    14    35    1
    21    14    36    1
    22    15    20   ar
    23    15    16   ar
    24    16    17   ar
    25    16    37    1
    26    17    18   ar
    27    17    38    1
    28    18    19   ar
    29    18    39    1
    30    19    20   ar
    31    19    21    1
    32    20    40    1
    33    21    22    2
    34    21    23    1
    35    24    25    2
    36    24    26    1
    37    26    27    1
    38    27    28    1
    39    27    29    1
    40    27    41    1
    41    28    42    1
    42    28    43    1
    43    28    44    1
    44    29    45    1
    45    29    46    1
    46    29    47    1
    47     4    15    1
    48     4     5    1
