@<TRIPOS>MOLECULE
ZINC01532525
 27 26 0 0 0
SMALL
GASTEIGER

@<TRIPOS>ATOM
      1 CG          0.9803   -0.0437    0.0430 C.3     1  ARG1       -0.0166
      2 CB          0.5862   -0.2703    1.5091 C.3     1  ARG1        0.0037
      3 CA          1.0851   -1.6170    2.0560 C.3     1  ARG1        0.0786
      4 HA          0.6801   -2.4691    1.5029 H       1  ARG1        0.0970
      5 C           2.6454   -1.5930    2.0369 C.2     1  ARG1        0.4026
      6 O           3.0905   -1.1824    3.1522 O.co2   1  ARG1       -0.2400
      7 OXT         3.1993   -1.9497    0.9787 O.co2   1  ARG1       -0.2400
      8 N           0.5960   -1.7524    3.4838 N.4     1  ARG1        0.2289
      9 CD          0.5733    1.3309   -0.4721 C.3     1  ARG1        0.0648
     10 NE          0.9850    1.5513   -1.8709 N.pl3   1  ARG1       -0.2787
     11 CZ          2.2475    1.6280   -2.3296 C.cat   1  ARG1        0.3410
     12 NH1         2.4506    1.8120   -3.6398 N.pl3   1  ARG1       -0.2919
     13 NH2         3.3142    1.5458   -1.5347 N.pl3   1  ARG1       -0.2919
     14 HG1         0.5394   -0.8241   -0.5884 H       1  ARG1        0.0298
     15 HG2         2.0594   -0.1428   -0.0680 H       1  ARG1        0.0298
     16 HB1         0.9896    0.5510    2.1172 H       1  ARG1        0.0326
     17 HB2        -0.5063   -0.2192    1.5956 H       1  ARG1        0.0326
     18 H1          1.1394   -1.0477    4.0183 H       1  ARG1        0.2002
     19 H2         -0.4081   -1.6787    3.6421 H       1  ARG1        0.2002
     20 HD1        -0.5176    1.4272   -0.4421 H       1  ARG1        0.0655
     21 HD2         0.9857    2.1425    0.1363 H       1  ARG1        0.0655
     22 HE          0.2487    1.6966   -2.5491 H       1  ARG1        0.2578
     23 HH11        3.3887    1.8689   -4.0165 H       1  ARG1        0.2545
     24 HH21        3.2380    1.4073   -0.5356 H       1  ARG1        0.2545
     25 HH22        4.2565    1.5290   -1.9020 H       1  ARG1        0.2545
     26 HH12        1.6880    1.8888   -4.2992 H       1  ARG1        0.2545
     27 H3          0.9695   -2.6343    3.8609 H       1  ARG1        0.2002
@<TRIPOS>UNITY_ATOM_ATTR
8 1
charge 1
@<TRIPOS>BOND
     1     1     2    1
     2     1     9    1
     3     1    14    1
     4     1    15    1
     5     2     3    1
     6     2    16    1
     7     2    17    1
     8     3     4    1
     9     3     5    1
    10     3     8    1
    11     5     6   ar
    12     5     7   ar
    13     8    18    1
    14     8    19    1
    15     8    27    1
    16     9    10    1
    17     9    20    1
    18     9    21    1
    19    10    11    1
    20    10    22    1
    21    11    12    2
    22    11    13    1
    23    12    23    1
    24    12    26    1
    25    13    24    1
    26    13    25    1
