@<TRIPOS>MOLECULE
ZINC00897261
 38 38 0 0 0
SMALL
GASTEIGER

@<TRIPOS>ATOM
      1 C           1.4073   -2.6954   -3.7600 C.3     0  UNK0       -0.0193
      2 C           0.7169   -2.3569   -2.4367 C.3     0  UNK0       -0.0203
      3 C          -0.8060   -2.4745   -2.5527 C.3     0  UNK0       -0.0193
      4 C           1.2112   -3.3104   -1.3368 C.3     0  UNK0       -0.0193
      5 C           0.5804    0.2307   -2.7840 C.3     0  UNK0       -0.0009
      6 C           0.9536    1.5951   -2.1338 C.3     0  UNK0        0.1363
      7 H           0.4661    1.6567   -1.1538 H       0  UNK0        0.0713
      8 C           2.4460    1.7561   -1.9192 C.ar    0  UNK0        0.0755
      9 C           2.9870    2.8903   -1.3188 C.ar    1  UNK1       -0.0342
     10 C           4.3685    2.9570   -1.1209 C.ar    1  UNK1       -0.0165
     11 C           5.1724    1.8886   -1.5087 C.ar    1  UNK1        0.1403
     12 C           4.5656    0.7739   -2.0705 C.ar    1  UNK1        0.1081
     13 N           3.2158    0.7008   -2.2731 N.ar    1  UNK1       -0.2477
     14 C           5.3400   -0.4561   -2.4689 C.3     1  UNK1        0.0897
     15 O           4.6907   -1.5908   -1.8747 O.3     1  UNK1       -0.3888
     16 O           6.5173    1.9176   -1.3185 O.3     1  UNK1       -0.5049
     17 O           0.4008    2.6294   -2.9496 O.3     0  UNK0       -0.3803
     18 H           0.9599   -3.5896   -4.2105 H       0  UNK0        0.0287
     19 H           2.4730   -2.9061   -3.6139 H       0  UNK0        0.0287
     20 H           1.3253   -1.8919   -4.4967 H       0  UNK0        0.0287
     21 H          -1.0999   -3.5088   -2.7682 H       0  UNK0        0.0287
     22 H          -1.3016   -2.1801   -1.6207 H       0  UNK0        0.0287
     23 H          -1.2062   -1.8582   -3.3640 H       0  UNK0        0.0287
     24 H           2.2905   -3.2153   -1.1749 H       0  UNK0        0.0287
     25 H           0.7133   -3.1123   -0.3804 H       0  UNK0        0.0287
     26 H           1.0071   -4.3545   -1.6036 H       0  UNK0        0.0287
     27 H           0.9893    0.1604   -3.7977 H       0  UNK0        0.0843
     28 H          -0.5088    0.1532   -2.8456 H       0  UNK0        0.0843
     29 H           2.3560    3.7151   -0.9974 H       1  UNK1        0.0637
     30 H           4.7956    3.8412   -0.6522 H       1  UNK1        0.0655
     31 H           5.3101   -0.5736   -3.5564 H       1  UNK1        0.0624
     32 H           6.3854   -0.4394   -2.1466 H       1  UNK1        0.0624
     33 H           4.9519   -1.5643   -0.9372 H       1  UNK1        0.2099
     34 H           6.7797    2.7840   -0.9611 H       1  UNK1        0.2922
     35 H           0.9844    3.4084   -2.9437 H       0  UNK0        0.2106
     36 N           1.0929   -0.9579   -1.9997 N.4     0  UNK0        0.2329
     37 H           0.8554   -0.8368   -1.0091 H       0  UNK0        0.2020
     38 H           2.1344   -0.8673   -2.0345 H       0  UNK0        0.2020
@<TRIPOS>UNITY_ATOM_ATTR
36 1
charge 1
@<TRIPOS>BOND
     1     1     2    1
     2     1    18    1
     3     1    19    1
     4     1    20    1
     5     2     3    1
     6     2     4    1
     7     2    36    1
     8     3    21    1
     9     3    22    1
    10     3    23    1
    11     4    24    1
    12     4    25    1
    13     4    26    1
    14     5     6    1
    15     5    27    1
    16     5    28    1
    17     5    36    1
    18     6     7    1
    19     6     8    1
    20     6    17    1
    21     8    13   ar
    22     8     9   ar
    23     9    10   ar
    24     9    29    1
    25    10    11   ar
    26    10    30    1
    27    11    12   ar
    28    11    16    1
    29    12    13   ar
    30    12    14    1
    31    14    15    1
    32    14    31    1
    33    14    32    1
    34    15    33    1
    35    16    34    1
    36    17    35    1
    37    36    37    1
    38    36    38    1
