@<TRIPOS>MOLECULE
ZINC00896648
 30 31 0 0 0
SMALL
GASTEIGER

@<TRIPOS>ATOM
      1 C           3.6399   -0.4578    1.7412 C.3     1  UNL1       -0.0626
      2 C           2.5543   -0.4321    2.8054 C.3     1  UNL1       -0.0216
      3 C           1.1252   -0.7728    2.2885 C.3     1  UNL1        0.1376
      4 C           0.3209   -1.0858    3.5735 C.2     1  UNL1        0.2508
      5 O          -0.1097   -0.2651    4.3727 O.2     1  UNL1       -0.2724
      6 N           0.3365   -2.4489    3.7544 N.am    1  UNL1       -0.2271
      7 C           0.8357   -3.0685    2.6528 C.2     1  UNL1        0.3094
      8 O           1.0224   -4.2606    2.4843 O.2     1  UNL1       -0.2522
      9 N           1.1372   -2.1076    1.7144 N.am    1  UNL1       -0.2811
     10 C           0.0028   -3.0956    4.9955 C.3     1  UNL1        0.0124
     11 C           0.4526    0.2539    1.3852 C.ar    1  UNL1       -0.0153
     12 C           0.7984    1.6174    1.4311 C.ar    1  UNL1       -0.0561
     13 C           0.1728    2.5591    0.6077 C.ar    1  UNL1       -0.0614
     14 C          -0.8280    2.1662   -0.2729 C.ar    1  UNL1       -0.0617
     15 C          -1.2021    0.8286   -0.3272 C.ar    1  UNL1       -0.0614
     16 C          -0.5750   -0.1185    0.4945 C.ar    1  UNL1       -0.0561
     17 H           4.5857   -0.1158    2.1745 H       1  UNL1        0.0231
     18 H           3.3996    0.1919    0.8948 H       1  UNL1        0.0231
     19 H           3.8001   -1.4740    1.3681 H       1  UNL1        0.0231
     20 H           2.8521   -1.1499    3.5836 H       1  UNL1        0.0291
     21 H           2.5583    0.5394    3.3130 H       1  UNL1        0.0291
     22 H           1.6197   -2.3616    0.8629 H       1  UNL1        0.1516
     23 H           0.6021   -2.6427    5.7924 H       1  UNL1        0.0434
     24 H          -1.0529   -2.9260    5.2207 H       1  UNL1        0.0434
     25 H           0.2158   -4.1667    4.9486 H       1  UNL1        0.0434
     26 H           1.5617    1.9846    2.1107 H       1  UNL1        0.0621
     27 H           0.4650    3.6068    0.6648 H       1  UNL1        0.0618
     28 H          -1.3185    2.9009   -0.9053 H       1  UNL1        0.0618
     29 H          -1.9909    0.5144   -1.0062 H       1  UNL1        0.0618
     30 H          -0.9052   -1.1502    0.4265 H       1  UNL1        0.0621
@<TRIPOS>BOND
     1     1     2    1
     2     1    17    1
     3     1    18    1
     4     1    19    1
     5     2    20    1
     6     2    21    1
     7     3     9    1
     8     3     4    1
     9     4     5    2
    10     4     6   am
    11     6     7   am
    12     6    10    1
    13     7     8    2
    14     7     9   am
    15     9    22    1
    16    10    23    1
    17    10    24    1
    18    10    25    1
    19    11    16   ar
    20    11    12   ar
    21    12    13   ar
    22    12    26    1
    23    13    14   ar
    24    13    27    1
    25    14    15   ar
    26    14    28    1
    27    15    16   ar
    28    15    29    1
    29    16    30    1
    30     3    11    1
    31     3     2    1
