@<TRIPOS>MOLECULE
ZINC03831540
 39 41 0 0 0
SMALL
GASTEIGER

@<TRIPOS>ATOM
      1 C           2.4798    1.7571   -0.9142 C.3     1  UNL1       -0.0484
      2 C           1.5728    1.1292    0.1492 C.3     1  UNL1        0.0419
      3 CA          0.2000    1.8366    0.2420 C.3     1  UNL1        0.1423
      4 HA         -0.0627    2.2619   -0.7375 H       1  UNL1        0.0632
      5 N          -0.8157    0.8018    0.5358 N.am    1  UNL1       -0.2707
      6 C          -0.3854   -0.6030    0.5561 C.3     1  UNL1        0.1005
      7 H          -0.3013   -0.9887    1.5769 H       1  UNL1        0.0640
      8 S           1.1840   -0.6151   -0.3854 S.3     1  UNL1       -0.1273
      9 CA         -1.6965   -0.9749   -0.1776 C.3     1  UNL1        0.1277
     10 HA         -2.4616   -1.3742    0.5005 H       1  UNL1        0.0622
     11 C          -1.8498    0.5628   -0.3336 C.2     1  UNL1        0.2402
     12 O          -2.5372    1.3139   -0.9874 O.2     1  UNL1       -0.2734
     13 N          -1.5865   -1.7881   -1.4185 N.am    1  UNL1       -0.3008
     14 C          -2.1255   -3.0446   -1.5704 C.2     1  UNL1        0.2321
     15 O          -2.6706   -3.6044   -0.6088 O.2     1  UNL1       -0.2745
     16 C          -1.9226   -3.7768   -2.9046 C.3     1  UNL1        0.1619
     17 H          -1.0718   -4.4495   -2.7179 H       1  UNL1        0.0560
     18 C          -3.1295   -4.6344   -3.2787 C.ar    1  UNL1       -0.0178
     19 C          -4.4834   -4.1617   -3.4186 C.ar    1  UNL1       -0.0503
     20 C          -5.3612   -5.1573   -3.7769 C.ar    1  UNL1       -0.0240
     21 S          -4.5815   -6.6683   -3.9675 S.2     1  UNL1       -0.1048
     22 C          -3.0613   -5.9838   -3.5822 C.ar    1  UNL1       -0.0199
     23 C          -1.5004   -2.9206   -4.1072 C.2     1  UNL1        0.3721
     24 O          -1.2590   -3.5581   -5.1794 O.co2   1  UNL1       -0.2451
     25 O          -1.3690   -1.6768   -3.9136 O.co2   1  UNL1       -0.2451
     26 C           0.2743    3.0298    1.2347 C.2     1  UNL1        0.3774
     27 O          -0.0422    2.7839    2.4388 O.co2   1  UNL1       -0.2442
     28 OXT         0.7088    4.1111    0.7431 O.co2   1  UNL1       -0.2442
     29 C           2.3388    1.0094    1.4776 C.3     1  UNL1       -0.0484
     30 H           2.7735    2.7735   -0.6287 H       1  UNL1        0.0244
     31 H           3.4038    1.1814   -1.0475 H       1  UNL1        0.0244
     32 H           1.9822    1.8218   -1.8886 H       1  UNL1        0.0244
     33 H          -1.3017   -1.3348   -2.3058 H       1  UNL1        0.1496
     34 H          -4.7779   -3.1325   -3.2678 H       1  UNL1        0.0626
     35 H          -6.4233   -5.0660   -3.9444 H       1  UNL1        0.0693
     36 H          -2.1742   -6.6000   -3.6101 H       1  UNL1        0.0696
     37 H           3.1946    0.3283    1.3912 H       1  UNL1        0.0244
     38 H           2.7451    1.9790    1.7886 H       1  UNL1        0.0244
     39 H           1.7030    0.6411    2.2903 H       1  UNL1        0.0244
@<TRIPOS>BOND
     1     1     2    1
     2     1    30    1
     3     1    31    1
     4     1    32    1
     5     2     8    1
     6     2     3    1
     7     2    29    1
     8     3     4    1
     9     3     5    1
    10     3    26    1
    11     5    11   am
    12     5     6    1
    13     6     7    1
    14     6     8    1
    15     6     9    1
    16     9    10    1
    17     9    11    1
    18     9    13    1
    19    11    12    2
    20    13    14   am
    21    13    33    1
    22    14    15    2
    23    14    16    1
    24    16    17    1
    25    16    18    1
    26    16    23    1
    27    18    22   ar
    28    18    19   ar
    29    19    20   ar
    30    19    34    1
    31    20    21   ar
    32    20    35    1
    33    21    22   ar
    34    22    36    1
    35    23    24   ar
    36    23    25   ar
    37    26    27   ar
    38    26    28   ar
    39    29    37    1
    40    29    38    1
    41    29    39    1
