@<TRIPOS>MOLECULE
ZINC03860156
 35 37 0 0 0
SMALL
GASTEIGER

@<TRIPOS>ATOM
      1 C           0.0299   -0.4115   -2.5358 C.ar    1  UNL1        0.1205
      2 N          -0.2974   -1.6356   -2.0660 N.ar    1  UNL1       -0.2188
      3 C           0.0640   -1.9382   -0.8004 C.ar    1  UNL1        0.1472
      4 C           0.7770   -0.9851   -0.0448 C.ar    1  UNL1        0.1473
      5 C           1.0557    0.2214   -0.6615 C.ar    1  UNL1        0.1674
      6 N           0.7302    0.5494   -1.9193 N.ar    1  UNL1       -0.2159
      7 N           1.7280    0.9636    0.2794 N.ar    1  UNL1       -0.2855
      8 C           1.8616    0.1545    1.3879 C.ar    1  UNL1        0.1004
      9 N           1.3104   -1.0329    1.2281 N.ar    1  UNL1       -0.2306
     10 C           2.3233    2.2870    0.1823 C.3     1  UNL1        0.1667
     11 H           3.4002    2.1193    0.3277 H       1  UNL1        0.0866
     12 C           2.0929    3.0657   -1.0984 C.3     1  UNL1        0.1285
     13 H           1.1243    2.8586   -1.5553 H       1  UNL1        0.0665
     14 C           2.0918    4.4941   -0.6061 C.3     1  UNL1        0.1135
     15 H           1.6477    5.1180   -1.3712 H       1  UNL1        0.0647
     16 C           1.4840    4.4197    0.8051 C.3     1  UNL1        0.1134
     17 H           1.9954    5.1455    1.4496 H       1  UNL1        0.0647
     18 O           1.8757    3.0841    1.3119 O.3     1  UNL1       -0.3456
     19 C          -0.0297    4.5608    1.0930 C.3     1  UNL1        0.0880
     20 O          -0.6825    5.8003    0.7711 O.3     1  UNL1       -0.2809
     21 P          -0.6055    6.2476   -0.8983 P.3     1  UNL1        0.5320
     22 O           0.7348    6.9233   -0.5168 O.2     1  UNL1       -0.2224
     23 O          -0.7066    4.7487   -1.2528 O.3     1  UNL1       -0.1145
     24 O          -0.5285    6.6949   -2.5677 O.3     1  UNL1       -0.1145
     25 O           3.4566    4.9882   -0.4865 O.3     1  UNL1       -0.3864
     26 O           3.1196    2.8058   -2.0766 O.3     1  UNL1       -0.3847
     27 N          -0.2524   -3.2081   -0.3180 N.pl3   1  UNL1       -0.3413
     28 H          -0.3077   -0.1764   -3.5408 H       1  UNL1        0.1048
     29 H           2.3784    0.4993    2.2747 H       1  UNL1        0.1030
     30 H          -0.5923    3.7060    0.6956 H       1  UNL1        0.0592
     31 H          -0.1580    4.4433    2.1768 H       1  UNL1        0.0592
     32 H           3.2803    5.9565   -0.4644 H       1  UNL1        0.2100
     33 H           3.0726    3.5853   -2.6631 H       1  UNL1        0.2101
     34 H           0.3511   -3.4663    0.4542 H       1  UNL1        0.1438
     35 H          -0.3456   -3.8563   -1.0880 H       1  UNL1        0.1438
@<TRIPOS>BOND
     1     1     6   ar
     2     1     2   ar
     3     1    28    1
     4     2     3   ar
     5     3     4   ar
     6     3    27    1
     7     4     9   ar
     8     4     5   ar
     9     5     6   ar
    10     5     7   ar
    11     7     8   ar
    12     7    10    1
    13     8     9   ar
    14     8    29    1
    15    10    11    1
    16    10    18    1
    17    10    12    1
    18    12    13    1
    19    12    14    1
    20    12    26    1
    21    14    15    1
    22    14    16    1
    23    14    25    1
    24    16    17    1
    25    16    18    1
    26    16    19    1
    27    19    20    1
    28    19    30    1
    29    19    31    1
    30    20    21    1
    31    21    22    2
    32    21    23    1
    33    21    24    1
    34    25    32    1
    35    26    33    1
    36    27    34    1
    37    27    35    1
