@<TRIPOS>MOLECULE
ZINC01530812
 50 51 0 0 0
SMALL
GASTEIGER

@<TRIPOS>ATOM
      1 C           1.4337   -1.8175   -2.0014 C.3     1  UNL1       -0.0651
      2 C           0.8987   -0.4278   -1.6953 C.3     1  UNL1       -0.0511
      3 C          -0.5939   -0.4671   -1.3718 C.3     1  UNL1       -0.0127
      4 C          -1.1981    0.9093   -1.1024 C.3     1  UNL1       -0.0312
      5 N          -1.1114    1.8506   -2.2859 N.4     1  UNL1        0.2439
      6 C          -1.4421    3.2814   -1.9074 C.3     1  UNL1       -0.0312
      7 C          -2.9453    3.4667   -1.7600 C.3     1  UNL1       -0.0123
      8 C          -3.6947    3.0270   -3.0121 C.3     1  UNL1       -0.0427
      9 C          -3.3402    1.5971   -3.4007 C.3     1  UNL1       -0.0008
     10 C          -1.8414    1.3910   -3.5860 C.3     1  UNL1        0.0570
     11 H          -1.6347    0.3227   -3.6922 H       1  UNL1        0.0950
     12 C          -1.1619    2.0221   -4.8391 C.2     1  UNL1        0.2655
     13 O           0.0287    2.3301   -4.7302 O.2     1  UNL1       -0.2693
     14 N          -1.9285    2.1466   -5.9920 N.am    1  UNL1       -0.2804
     15 C          -1.3677    2.6235   -7.2158 C.ar    1  UNL1        0.0394
     16 C          -1.9865    3.6984   -7.8888 C.ar    1  UNL1       -0.0290
     17 C          -1.3297    4.3025   -8.9796 C.ar    1  UNL1       -0.0571
     18 C          -0.1179    3.8067   -9.4438 C.ar    1  UNL1       -0.0611
     19 C           0.4076    2.6529   -8.8787 C.ar    1  UNL1       -0.0571
     20 C          -0.2301    2.0261   -7.7901 C.ar    1  UNL1       -0.0290
     21 C           0.1944    0.6120   -7.4905 C.3     1  UNL1       -0.0379
     22 C          -3.3353    4.2342   -7.4991 C.3     1  UNL1       -0.0379
     23 H           1.2532   -2.5038   -1.1685 H       1  UNL1        0.0230
     24 H           2.5119   -1.7759   -2.1834 H       1  UNL1        0.0230
     25 H           0.9550   -2.2277   -2.8967 H       1  UNL1        0.0230
     26 H           1.4465   -0.0068   -0.8442 H       1  UNL1        0.0264
     27 H           1.0953    0.2132   -2.5599 H       1  UNL1        0.0264
     28 H          -1.1427   -0.9847   -2.1647 H       1  UNL1        0.0317
     29 H          -0.7403   -1.0777   -0.4708 H       1  UNL1        0.0317
     30 H          -2.2519    0.8164   -0.8234 H       1  UNL1        0.0815
     31 H          -0.6640    1.3866   -0.2724 H       1  UNL1        0.0815
     32 H          -1.0378    3.9267   -2.6934 H       1  UNL1        0.0815
     33 H          -0.9163    3.5138   -0.9742 H       1  UNL1        0.0815
     34 H          -3.1647    4.5214   -1.5575 H       1  UNL1        0.0317
     35 H          -3.3122    2.9025   -0.8934 H       1  UNL1        0.0317
     36 H          -4.7737    3.1018   -2.8383 H       1  UNL1        0.0269
     37 H          -3.4573    3.7064   -3.8390 H       1  UNL1        0.0269
     38 H          -3.6973    0.9212   -2.6124 H       1  UNL1        0.0325
     39 H          -3.8881    1.3091   -4.3032 H       1  UNL1        0.0325
     40 H          -2.9037    2.3832   -5.8614 H       1  UNL1        0.1550
     41 H          -1.7677    5.1630   -9.4809 H       1  UNL1        0.0621
     42 H           0.3818    4.2841  -10.2850 H       1  UNL1        0.0618
     43 H           1.2967    2.2098   -9.3240 H       1  UNL1        0.0621
     44 H          -0.2061    0.2267   -6.5517 H       1  UNL1        0.0278
     45 H          -0.1875   -0.0338   -8.2921 H       1  UNL1        0.0278
     46 H           1.2840    0.5217   -7.4630 H       1  UNL1        0.0278
     47 H          -4.0712    3.4229   -7.5045 H       1  UNL1        0.0278
     48 H          -3.2981    4.6943   -6.5064 H       1  UNL1        0.0278
     49 H          -3.6929    4.9860   -8.2098 H       1  UNL1        0.0278
     50 H          -0.1187    1.8996   -2.5775 H       1  UNL1        0.2041
@<TRIPOS>UNITY_ATOM_ATTR
5 1
charge 1
@<TRIPOS>BOND
     1     1     2    1
     2     1    23    1
     3     1    24    1
     4     1    25    1
     5     2     3    1
     6     2    26    1
     7     2    27    1
     8     3     4    1
     9     3    28    1
    10     3    29    1
    11     4    30    1
    12     4    31    1
    13     5    10    1
    14     5     6    1
    15     6     7    1
    16     6    32    1
    17     6    33    1
    18     7     8    1
    19     7    34    1
    20     7    35    1
    21     8     9    1
    22     8    36    1
    23     8    37    1
    24     9    10    1
    25     9    38    1
    26     9    39    1
    27    10    11    1
    28    10    12    1
    29    12    13    2
    30    12    14   am
    31    14    15    1
    32    14    40    1
    33    15    20   ar
    34    15    16   ar
    35    16    17   ar
    36    16    22    1
    37    17    18   ar
    38    17    41    1
    39    18    19   ar
    40    18    42    1
    41    19    20   ar
    42    19    43    1
    43    20    21    1
    44    21    44    1
    45    21    45    1
    46    21    46    1
    47    22    47    1
    48    22    48    1
    49    22    49    1
    50     5    50    1
    51     5     4    1
