@<TRIPOS>MOLECULE
ZINC03807804
 42 45 0 0 0
SMALL
GASTEIGER

@<TRIPOS>ATOM
      1 C           1.4355   -0.4719    0.4296 C.ar    1  UNL1       -0.0617
      2 C           0.6640   -1.2881   -0.3858 C.ar    1  UNL1       -0.0614
      3 C          -0.6906   -1.0027   -0.5692 C.ar    1  UNL1       -0.0557
      4 C          -1.3285    0.0867    0.0858 C.ar    1  UNL1       -0.0127
      5 C          -0.5190    0.8841    0.9192 C.ar    1  UNL1       -0.0557
      6 C           0.8472    0.6116    1.0778 C.ar    1  UNL1       -0.0614
      7 C          -2.8369    0.4244   -0.2105 C.3     1  UNL1        0.1233
      8 C          -3.4980    1.2248    1.0063 C.ar    1  UNL1       -0.0127
      9 C          -4.1444    0.5804    2.0851 C.ar    1  UNL1       -0.0557
     10 C          -4.8114    1.2995    3.0841 C.ar    1  UNL1       -0.0614
     11 C          -4.8338    2.6870    3.0507 C.ar    1  UNL1       -0.0617
     12 C          -4.1567    3.3572    2.0385 C.ar    1  UNL1       -0.0614
     13 C          -3.4835    2.6398    1.0415 C.ar    1  UNL1       -0.0557
     14 C          -3.0219    1.2747   -1.5614 C.ar    1  UNL1        0.0055
     15 C          -4.3400    1.7449   -1.8518 C.ar    1  UNL1       -0.0543
     16 C          -4.6702    2.4575   -3.0094 C.ar    1  UNL1       -0.0613
     17 C          -3.6846    2.7832   -3.9185 C.ar    1  UNL1       -0.0604
     18 C          -2.3733    2.4190   -3.6483 C.ar    1  UNL1       -0.0430
     19 C          -2.0312    1.6890   -2.4874 C.ar    1  UNL1        0.0470
     20 CL         -0.3202    1.5032   -2.3635 Cl      1  UNL1       -0.0832
     21 N          -3.5830   -0.9029   -0.3199 N.ar    1  UNL1       -0.3186
     22 C          -3.3205   -2.0534    0.4203 C.ar    1  UNL1        0.0256
     23 C          -4.2499   -2.9861    0.0398 C.ar    1  UNL1        0.0454
     24 N          -5.1092   -2.4525   -0.8690 N.ar    1  UNL1       -0.2440
     25 C          -4.7007   -1.2161   -1.0556 C.ar    1  UNL1        0.0971
     26 H           2.4989   -0.6659    0.5412 H       1  UNL1        0.0618
     27 H           1.1180   -2.1239   -0.9124 H       1  UNL1        0.0618
     28 H          -1.2405   -1.6299   -1.2720 H       1  UNL1        0.0621
     29 H          -0.9148    1.7590    1.4282 H       1  UNL1        0.0621
     30 H           1.4614    1.2666    1.6910 H       1  UNL1        0.0618
     31 H          -4.1752   -0.5003    2.1778 H       1  UNL1        0.0621
     32 H          -5.3266    0.7657    3.8799 H       1  UNL1        0.0618
     33 H          -5.3741    3.2416    3.8138 H       1  UNL1        0.0618
     34 H          -4.1633    4.4439    2.0152 H       1  UNL1        0.0618
     35 H          -2.9684    3.2123    0.2725 H       1  UNL1        0.0621
     36 H          -5.1570    1.5612   -1.1511 H       1  UNL1        0.0622
     37 H          -5.6992    2.7589   -3.1905 H       1  UNL1        0.0618
     38 H          -3.9228    3.3390   -4.8223 H       1  UNL1        0.0618
     39 H          -1.5991    2.7213   -4.3509 H       1  UNL1        0.0632
     40 H          -2.5141   -2.1091    1.1397 H       1  UNL1        0.0825
     41 H          -4.3506   -4.0064    0.3861 H       1  UNL1        0.0845
     42 H          -5.2132   -0.5382   -1.7182 H       1  UNL1        0.1029
@<TRIPOS>BOND
     1     1     6   ar
     2     1     2   ar
     3     1    26    1
     4     2     3   ar
     5     2    27    1
     6     3     4   ar
     7     3    28    1
     8     4     5   ar
     9     4     7    1
    10     5     6   ar
    11     5    29    1
    12     6    30    1
    13     7     8    1
    14     7    14    1
    15     7    21    1
    16     8    13   ar
    17     8     9   ar
    18     9    10   ar
    19     9    31    1
    20    10    11   ar
    21    10    32    1
    22    11    12   ar
    23    11    33    1
    24    12    13   ar
    25    12    34    1
    26    13    35    1
    27    14    19   ar
    28    14    15   ar
    29    15    16   ar
    30    15    36    1
    31    16    17   ar
    32    16    37    1
    33    17    18   ar
    34    17    38    1
    35    18    19   ar
    36    18    39    1
    37    19    20    1
    38    21    25   ar
    39    21    22   ar
    40    22    23   ar
    41    22    40    1
    42    23    24   ar
    43    23    41    1
    44    24    25   ar
    45    25    42    1
