@<TRIPOS>MOLECULE
ZINC00119344
 23 23 0 0 0
SMALL
GASTEIGER

@<TRIPOS>ATOM
      1 C          -0.9959    1.2303   -0.0052 C.ar    1  UNL1       -0.0479
      2 C           0.4024    1.1337    0.0265 C.ar    1  UNL1       -0.0403
      3 C           1.0372   -0.1131    0.0071 C.ar    1  UNL1        0.0246
      4 C           0.2501   -1.2666    0.0533 C.ar    1  UNL1       -0.0403
      5 C          -1.1448   -1.1797    0.0096 C.ar    1  UNL1       -0.0479
      6 C          -1.7744    0.0695   -0.0186 C.ar    1  UNL1        0.0368
      7 C          -3.2584    0.1145   -0.1082 C.2     1  UNL1        0.2445
      8 O          -3.8420   -0.7621   -0.7388 O.2     1  UNL1       -0.2702
      9 N          -3.8776    1.1429    0.5504 N.am    1  UNL1       -0.3007
     10 C          -5.3385    1.2596    0.6686 C.3     1  UNL1        0.1135
     11 C          -5.7970    2.0486    1.9236 C.2     1  UNL1        0.3728
     12 O          -4.8464    2.4875    2.6429 O.co2   1  UNL1       -0.2446
     13 O          -7.0438    2.1671    2.0720 O.co2   1  UNL1       -0.2446
     14 N           2.4267   -0.2043    0.1668 N.pl3   1  UNL1       -0.3580
     15 H          -1.4643    2.2109   -0.0333 H       1  UNL1        0.0626
     16 H           0.9916    2.0464    0.0556 H       1  UNL1        0.0636
     17 H           0.7124   -2.2470    0.1168 H       1  UNL1        0.0636
     18 H          -1.7464   -2.0859    0.0146 H       1  UNL1        0.0626
     19 H          -3.3971    1.6860    1.2655 H       1  UNL1        0.1496
     20 H          -5.6894    1.7865   -0.2250 H       1  UNL1        0.0579
     21 H          -5.7806    0.2583    0.6795 H       1  UNL1        0.0579
     22 H           2.8147   -1.0785   -0.1726 H       1  UNL1        0.1423
     23 H           2.9294    0.6057   -0.1798 H       1  UNL1        0.1423
@<TRIPOS>BOND
     1     1     6   ar
     2     1     2   ar
     3     1    15    1
     4     2     3   ar
     5     2    16    1
     6     3     4   ar
     7     3    14    1
     8     4     5   ar
     9     4    17    1
    10     5     6   ar
    11     5    18    1
    12     6     7    1
    13     7     8    2
    14     7     9   am
    15     9    10    1
    16     9    19    1
    17    10    11    1
    18    10    20    1
    19    10    21    1
    20    11    12   ar
    21    11    13   ar
    22    14    22    1
    23    14    23    1
