@<TRIPOS>MOLECULE
ZINC01482039
 45 47 0 0 0
SMALL
GASTEIGER

@<TRIPOS>ATOM
      1 C           1.0621   -0.0446    0.0955 C.3     1  UNL1       -0.0415
      2 N           0.4011   -1.3578   -0.3427 N.4     1  UNL1        0.2395
      3 C           1.3989   -2.5130   -0.0812 C.3     1  UNL1       -0.0268
      4 C           0.7505   -3.8927   -0.2408 C.3     1  UNL1        0.0098
      5 C          -0.4388   -4.0110    0.6947 C.2     1  UNL1       -0.0513
      6 C          -0.5224   -4.8895    1.7281 C.2     1  UNL1       -0.0111
      7 C          -1.7012   -4.8865    2.6209 C.ar    1  UNL1       -0.0174
      8 C          -1.6779   -4.1376    3.8058 C.ar    1  UNL1       -0.0540
      9 C          -2.7585   -4.1844    4.6889 C.ar    1  UNL1       -0.0612
     10 C          -3.8670   -4.9752    4.3960 C.ar    1  UNL1       -0.0617
     11 C          -3.8995   -5.7180    3.2172 C.ar    1  UNL1       -0.0612
     12 C          -2.8207   -5.6762    2.3324 C.ar    1  UNL1       -0.0540
     13 C           0.5867   -5.8349    2.0044 C.ar    1  UNL1       -0.0174
     14 C           0.5519   -7.1284    1.4718 C.ar    1  UNL1       -0.0540
     15 C           1.5641   -8.0414    1.7768 C.ar    1  UNL1       -0.0612
     16 C           2.6144   -7.6692    2.6155 C.ar    1  UNL1       -0.0617
     17 C           2.6546   -6.3814    3.1493 C.ar    1  UNL1       -0.0612
     18 C           1.6442   -5.4674    2.8483 C.ar    1  UNL1       -0.0540
     19 C          -1.4809   -2.9640    0.3457 C.3     1  UNL1        0.0098
     20 C          -0.8906   -1.5541    0.4885 C.3     1  UNL1       -0.0268
     21 C           0.0881   -1.2429   -1.8321 C.3     1  UNL1       -0.0415
     22 H           1.0402    0.0157    1.1873 H       1  UNL1        0.0778
     23 H           0.5054    0.7900   -0.3408 H       1  UNL1        0.0778
     24 H           2.0969   -0.0408   -0.2605 H       1  UNL1        0.0778
     25 H           1.7737   -2.3801    0.9417 H       1  UNL1        0.0818
     26 H           2.2310   -2.3882   -0.7823 H       1  UNL1        0.0818
     27 H           1.5137   -4.6572   -0.0656 H       1  UNL1        0.0362
     28 H           0.4138   -4.0509   -1.2715 H       1  UNL1        0.0362
     29 H          -0.8073   -3.5430    4.0698 H       1  UNL1        0.0624
     30 H          -2.7256   -3.6243    5.6215 H       1  UNL1        0.0618
     31 H          -4.6983   -5.0269    5.0957 H       1  UNL1        0.0618
     32 H          -4.7580   -6.3516    3.0014 H       1  UNL1        0.0618
     33 H          -2.8492   -6.2848    1.4317 H       1  UNL1        0.0624
     34 H          -0.2693   -7.4430    0.8325 H       1  UNL1        0.0624
     35 H           1.5236   -9.0530    1.3784 H       1  UNL1        0.0618
     36 H           3.3905   -8.3882    2.8663 H       1  UNL1        0.0618
     37 H           3.4641   -6.1025    3.8211 H       1  UNL1        0.0618
     38 H           1.6740   -4.4801    3.3012 H       1  UNL1        0.0624
     39 H          -1.8311   -3.1301   -0.6800 H       1  UNL1        0.0362
     40 H          -2.3730   -3.0256    0.9751 H       1  UNL1        0.0362
     41 H          -1.6034   -0.7859    0.1682 H       1  UNL1        0.0818
     42 H          -0.6251   -1.3728    1.5372 H       1  UNL1        0.0818
     43 H          -0.6252   -0.4252   -1.9731 H       1  UNL1        0.0778
     44 H           1.0207   -1.0262   -2.3625 H       1  UNL1        0.0778
     45 H          -0.3434   -2.1791   -2.1900 H       1  UNL1        0.0778
@<TRIPOS>UNITY_ATOM_ATTR
2 1
charge 1
@<TRIPOS>BOND
     1     1     2    1
     2     1    22    1
     3     1    23    1
     4     1    24    1
     5     2    20    1
     6     2     3    1
     7     2    21    1
     8     3     4    1
     9     3    25    1
    10     3    26    1
    11     4     5    1
    12     4    27    1
    13     4    28    1
    14     5     6    2
    15     5    19    1
    16     6     7    1
    17     6    13    1
    18     7    12   ar
    19     7     8   ar
    20     8     9   ar
    21     8    29    1
    22     9    10   ar
    23     9    30    1
    24    10    11   ar
    25    10    31    1
    26    11    12   ar
    27    11    32    1
    28    12    33    1
    29    13    18   ar
    30    13    14   ar
    31    14    15   ar
    32    14    34    1
    33    15    16   ar
    34    15    35    1
    35    16    17   ar
    36    16    36    1
    37    17    18   ar
    38    17    37    1
    39    18    38    1
    40    19    20    1
    41    19    39    1
    42    19    40    1
    43    20    41    1
    44    20    42    1
    45    21    43    1
    46    21    44    1
    47    21    45    1
