@<TRIPOS>MOLECULE
ZINC00010164
 31 33 0 0 0
SMALL
GASTEIGER

@<TRIPOS>ATOM
      1 C           3.5231    0.4487    0.7931 C.3     1  UNL1       -0.0292
      2 C           2.6012   -0.7458    0.5882 C.3     1  UNL1        0.1024
      3 H           2.8802   -1.5571    1.2676 H       1  UNL1        0.0710
      4 O           1.2642   -0.3277    0.9015 O.3     1  UNL1       -0.3536
      5 C           0.4449   -0.1791   -0.2857 C.3     1  UNL1        0.1224
      6 C          -0.5900   -1.3412   -0.2949 C.3     1  UNL1       -0.0010
      7 C          -1.8504   -0.0735    1.4612 C.3     1  UNL1       -0.0314
      8 C          -1.0033    1.1843    1.2729 C.3     1  UNL1       -0.0067
      9 C          -0.3298    1.1624   -0.1168 C.3     1  UNL1        0.0036
     10 C          -1.4521    1.2607   -1.1664 C.3     1  UNL1       -0.0067
     11 C          -2.4856    0.1526   -0.9449 C.3     1  UNL1       -0.0314
     12 C           1.3168   -0.1925   -1.5509 C.3     1  UNL1        0.0305
     13 S           2.6326   -1.3214   -1.1151 S.3     1  UNL1       -0.1269
     14 H           3.1844    1.3252    0.2299 H       1  UNL1        0.0263
     15 H           3.5073    0.7485    1.8476 H       1  UNL1        0.0263
     16 H           4.5574    0.2227    0.5195 H       1  UNL1        0.0263
     17 H          -0.7398   -1.7860   -1.2854 H       1  UNL1        0.0843
     18 H          -0.3474   -2.1333    0.4211 H       1  UNL1        0.0843
     19 H          -2.8689    0.1623    1.7872 H       1  UNL1        0.0814
     20 H          -1.4040   -0.7788    2.1690 H       1  UNL1        0.0814
     21 H          -1.6349    2.0755    1.3682 H       1  UNL1        0.0320
     22 H          -0.2610    1.2569    2.0760 H       1  UNL1        0.0320
     23 H           0.3524    2.0164   -0.1967 H       1  UNL1        0.0334
     24 H          -1.9482    2.2367   -1.0993 H       1  UNL1        0.0320
     25 H          -1.0436    1.1986   -2.1819 H       1  UNL1        0.0320
     26 H          -3.4446    0.5430   -0.5901 H       1  UNL1        0.0814
     27 H          -2.6550   -0.4396   -1.8506 H       1  UNL1        0.0814
     28 H           0.7829   -0.5136   -2.4488 H       1  UNL1        0.0407
     29 H           1.7602    0.7882   -1.7477 H       1  UNL1        0.0407
     30 N          -1.9553   -0.7826    0.1201 N.4     1  UNL1        0.2373
     31 H          -2.6060   -1.5722    0.2269 H       1  UNL1        0.2034
@<TRIPOS>UNITY_ATOM_ATTR
30 1
charge 1
@<TRIPOS>BOND
     1     1     2    1
     2     1    14    1
     3     1    15    1
     4     1    16    1
     5     2     3    1
     6     2    13    1
     7     2     4    1
     8     5     4    1
     9     5     9    1
    10     5     6    1
    11     5    12    1
    12     6    17    1
    13     6    18    1
    14     6    30    1
    15     7     8    1
    16     7    19    1
    17     7    20    1
    18     7    30    1
    19     8     9    1
    20     8    21    1
    21     8    22    1
    22     9    10    1
    23     9    23    1
    24    10    11    1
    25    10    24    1
    26    10    25    1
    27    11    26    1
    28    11    27    1
    29    11    30    1
    30    12    13    1
    31    12    28    1
    32    12    29    1
    33    30    31    1
