@<TRIPOS>MOLECULE
ZINC01530555
 27 28 0 0 0
SMALL
GASTEIGER

@<TRIPOS>ATOM
      1 C           2.2151    0.0196   -0.1173 C.ar    1  UNL1        0.1002
      2 N           1.5081    1.1328   -0.0853 N.ar    1  UNL1       -0.2286
      3 C           0.2053    0.7061   -0.0681 C.ar    1  UNL1        0.1720
      4 C          -1.0339    1.4545   -0.0349 C.ar    1  UNL1        0.2803
      5 O          -1.1355    2.6768   -0.0003 O.2     1  UNL1       -0.2654
      6 N          -2.1474    0.6265   -0.0479 N.ar    1  UNL1       -0.2934
      7 H          -3.0314    1.1057   -0.0572 H       1  UNL1        0.1716
      8 C          -2.1009   -0.7532   -0.1024 C.ar    1  UNL1        0.1950
      9 N          -0.9907   -1.4423   -0.1103 N.ar    1  UNL1       -0.1963
     10 C           0.1202   -0.6676   -0.0940 C.ar    1  UNL1        0.1709
     11 N           1.4147   -1.0962   -0.1019 N.ar    1  UNL1       -0.2907
     12 C           1.8717   -2.4673   -0.0710 C.3     1  UNL1        0.1268
     13 O           2.7630   -2.6718    1.0307 O.3     1  UNL1       -0.3570
     14 C           2.0923   -2.6388    2.2934 C.3     1  UNL1        0.0730
     15 C           3.0778   -3.0005    3.3989 C.3     1  UNL1        0.0676
     16 O           2.4709   -2.8597    4.6772 O.3     1  UNL1       -0.3927
     17 N          -3.2944   -1.3936   -0.1517 N.pl3   1  UNL1       -0.3289
     18 H           3.2956   -0.0426   -0.1359 H       1  UNL1        0.1030
     19 H           1.0233   -3.1574   -0.0211 H       1  UNL1        0.0801
     20 H           2.4206   -2.6469   -0.9999 H       1  UNL1        0.0801
     21 H           1.6903   -1.6373    2.4833 H       1  UNL1        0.0583
     22 H           1.2523   -3.3434    2.2998 H       1  UNL1        0.0583
     23 H           3.4061   -4.0386    3.2860 H       1  UNL1        0.0580
     24 H           3.9750   -2.3734    3.3481 H       1  UNL1        0.0580
     25 H           2.7927   -2.0237    5.0584 H       1  UNL1        0.2095
     26 H          -3.2324   -2.3874    0.0435 H       1  UNL1        0.1451
     27 H          -4.1097   -0.9426    0.2386 H       1  UNL1        0.1451
@<TRIPOS>BOND
     1     1    11   ar
     2     1     2   ar
     3     1    18    1
     4     2     3   ar
     5     3    10   ar
     6     3     4   ar
     7     4     5    2
     8     4     6   ar
     9     6     7    1
    10     6     8   ar
    11     8     9   ar
    12     8    17    1
    13     9    10   ar
    14    10    11   ar
    15    11    12    1
    16    12    13    1
    17    12    19    1
    18    12    20    1
    19    13    14    1
    20    14    15    1
    21    14    21    1
    22    14    22    1
    23    15    16    1
    24    15    23    1
    25    15    24    1
    26    16    25    1
    27    17    26    1
    28    17    27    1
