@<TRIPOS>MOLECULE
ZINC01530951
 42 41 0 0 0
SMALL
GASTEIGER

@<TRIPOS>ATOM
      1 C           5.0533   -2.9138   -2.5584 C.3     1  UNL1       -0.0653
      2 C           4.5875   -2.6349   -1.1378 C.3     1  UNL1       -0.0552
      3 C           3.0662   -2.7795   -0.9958 C.3     1  UNL1       -0.0416
      4 C           2.4951   -2.4776    0.4252 C.3     1  UNL1        0.0363
      5 C           0.9514   -2.5771    0.3366 C.3     1  UNL1       -0.0533
      6 C           2.8566   -1.0318    0.8429 C.3     1  UNL1        0.1025
      7 O           2.2531   -0.6744    2.0973 O.3     1  UNL1       -0.4499
      8 C           3.0847   -0.1553    3.0306 C.2     1  UNL1        0.3977
      9 O           4.2956   -0.0406    2.9463 O.2     1  UNL1       -0.2267
     10 N           2.3749    0.2650    4.0963 N.am    1  UNL1       -0.2950
     11 C           3.0414   -3.4902    1.4771 C.3     1  UNL1        0.1025
     12 O           2.7616   -4.8523    1.0871 O.3     1  UNL1       -0.4497
     13 C           1.5612   -5.3266    1.5034 C.2     1  UNL1        0.4005
     14 O           0.8524   -4.8253    2.3705 O.2     1  UNL1       -0.2265
     15 N           1.0850   -6.3271    0.7109 N.am    1  UNL1       -0.2788
     16 C           1.8246   -7.5583    0.4891 C.3     1  UNL1        0.0206
     17 C           1.3073   -8.6042    1.4798 C.3     1  UNL1       -0.0468
     18 C           1.6356   -8.0396   -0.9446 C.3     1  UNL1       -0.0468
     19 H           4.7642   -3.9186   -2.8799 H       1  UNL1        0.0230
     20 H           6.1442   -2.8377   -2.6151 H       1  UNL1        0.0230
     21 H           4.6282   -2.1877   -3.2586 H       1  UNL1        0.0230
     22 H           5.1011   -3.3236   -0.4599 H       1  UNL1        0.0263
     23 H           4.9047   -1.6203   -0.8787 H       1  UNL1        0.0263
     24 H           2.5844   -2.1081   -1.7197 H       1  UNL1        0.0273
     25 H           2.7818   -3.7970   -1.2955 H       1  UNL1        0.0273
     26 H           0.6332   -3.5053   -0.1533 H       1  UNL1        0.0237
     27 H           0.4891   -2.5354    1.3255 H       1  UNL1        0.0237
     28 H           0.5330   -1.7555   -0.2546 H       1  UNL1        0.0237
     29 H           3.9397   -0.8962    0.8656 H       1  UNL1        0.0704
     30 H           2.4616   -0.3279    0.0994 H       1  UNL1        0.0704
     31 H           1.3676    0.2433    4.0651 H       1  UNL1        0.1482
     32 H           2.8587    0.7609    4.8294 H       1  UNL1        0.1482
     33 H           4.1300   -3.4032    1.5623 H       1  UNL1        0.0704
     34 H           2.6522   -3.2823    2.4827 H       1  UNL1        0.0704
     35 H           0.0994   -6.4597    0.8917 H       1  UNL1        0.1523
     36 H           2.8898   -7.3878    0.6817 H       1  UNL1        0.0494
     37 H           0.2348   -8.7836    1.3320 H       1  UNL1        0.0247
     38 H           1.8310   -9.5564    1.3667 H       1  UNL1        0.0247
     39 H           1.4359   -8.2578    2.5111 H       1  UNL1        0.0247
     40 H           2.0985   -7.3407   -1.6497 H       1  UNL1        0.0247
     41 H           2.0949   -9.0224   -1.0928 H       1  UNL1        0.0247
     42 H           0.5741   -8.1155   -1.2059 H       1  UNL1        0.0247
@<TRIPOS>BOND
     1     1     2    1
     2     1    19    1
     3     1    20    1
     4     1    21    1
     5     2     3    1
     6     2    22    1
     7     2    23    1
     8     3    24    1
     9     3    25    1
    10     4     6    1
    11     4    11    1
    12     5    26    1
    13     5    27    1
    14     5    28    1
    15     6     7    1
    16     6    29    1
    17     6    30    1
    18     7     8    1
    19     8     9    2
    20     8    10   am
    21    10    31    1
    22    10    32    1
    23    11    12    1
    24    11    33    1
    25    11    34    1
    26    12    13    1
    27    13    14    2
    28    13    15   am
    29    15    16    1
    30    15    35    1
    31    16    17    1
    32    16    18    1
    33    16    36    1
    34    17    37    1
    35    17    38    1
    36    17    39    1
    37    18    40    1
    38    18    41    1
    39    18    42    1
    40     4     5    1
    41     4     3    1
