@<TRIPOS>MOLECULE
ZINC03871978
 44 46 0 0 0
SMALL
GASTEIGER

@<TRIPOS>ATOM
      1 C           2.5939    6.7252    1.5102 C.3     1  UNL1        0.1072
      2 O           1.9971    5.7133    2.3139 O.2     1  UNL1       -0.3964
      3 N           2.8926    4.6444    2.4056 N.2     1  UNL1       -0.0763
      4 C           2.4186    3.6253    3.0726 C.2     1  UNL1        0.2059
      5 C           3.2966    2.4809    3.1864 C.ar    1  UNL1        0.1612
      6 C           4.5604    2.2790    2.6509 C.ar    1  UNL1       -0.0141
      7 C           5.0047    1.0168    3.0996 C.ar    1  UNL1       -0.0232
      8 C           3.9851    0.5102    3.8660 C.ar    1  UNL1        0.0926
      9 O           2.9434    1.3823    3.9202 O.2     1  UNL1       -0.4611
     10 C           1.0060    3.5500    3.6764 C.2     1  UNL1        0.2699
     11 O           0.0564    3.9965    3.0405 O.2     1  UNL1       -0.2683
     12 N           0.8432    2.9147    4.9040 N.am    1  UNL1       -0.2963
     13 CA         -0.5268    2.8055    5.5111 C.3     1  UNL1        0.1286
     14 HA         -1.2881    2.7631    4.7195 H       1  UNL1        0.0622
     15 C          -0.8087    1.7384    6.6035 C.3     1  UNL1        0.1042
     16 H          -1.4977    0.9547    6.2697 H       1  UNL1        0.0644
     17 N          -1.4710    2.7964    7.3443 N.am    1  UNL1       -0.2488
     18 C          -0.9158    3.8189    6.6300 C.2     1  UNL1        0.2440
     19 O          -0.6768    4.9879    6.8172 O.2     1  UNL1       -0.2731
     20 CA         -1.8909    2.6809    8.6529 C.2     1  UNL1        0.1295
     21 C          -1.4466    1.6482    9.4162 C.2     1  UNL1        0.0058
     22 C          -0.4693    0.5932    8.9441 C.3     1  UNL1        0.0220
     23 S           0.5997    1.1190    7.5634 S.3     1  UNL1       -0.1310
     24 C          -1.8769    1.4190   10.8634 C.3     1  UNL1        0.1182
     25 O          -1.5164    2.5240   11.7019 O.3     1  UNL1       -0.4460
     26 C          -0.2773    2.5166   12.2239 C.2     1  UNL1        0.3980
     27 O           0.5895    1.6730   12.0596 O.2     1  UNL1       -0.2267
     28 N          -0.1089    3.6202   12.9872 N.am    1  UNL1       -0.2950
     29 C          -3.0029    3.6970    9.1909 C.2     1  UNL1        0.4007
     30 O          -2.9954    4.8481    8.6778 O.co2   1  UNL1       -0.2392
     31 OXT        -3.8531    3.1953    9.9863 O.co2   1  UNL1       -0.2392
     32 H           1.9135    7.5786    1.4553 H       1  UNL1        0.0687
     33 H           2.7731    6.3524    0.4958 H       1  UNL1        0.0687
     34 H           3.5381    7.0546    1.9559 H       1  UNL1        0.0687
     35 H           5.0911    2.9827    2.0220 H       1  UNL1        0.0656
     36 H           5.9548    0.5418    2.8938 H       1  UNL1        0.0649
     37 H           3.8529   -0.4091    4.4206 H       1  UNL1        0.1029
     38 H           1.6362    2.4610    5.3487 H       1  UNL1        0.1499
     39 H          -1.0332   -0.2952    8.6344 H       1  UNL1        0.0424
     40 H           0.1991    0.2850    9.7538 H       1  UNL1        0.0424
     41 H          -2.9568    1.2579   10.9392 H       1  UNL1        0.0747
     42 H          -1.4494    0.4941   11.2726 H       1  UNL1        0.0747
     43 H          -0.8174    4.3343   12.9002 H       1  UNL1        0.1482
     44 H           0.8294    3.8619   13.2552 H       1  UNL1        0.1482
@<TRIPOS>BOND
     1     1     2    1
     2     1    32    1
     3     1    33    1
     4     1    34    1
     5     2     3    1
     6     3     4    2
     7     4     5    1
     8     4    10    1
     9     5     9   ar
    10     5     6   ar
    11     6     7   ar
    12     6    35    1
    13     7     8   ar
    14     7    36    1
    15     8     9   ar
    16     8    37    1
    17    10    11    2
    18    10    12   am
    19    12    38    1
    20    13    18    1
    21    13    15    1
    22    15    16    1
    23    15    23    1
    24    15    17    1
    25    17    18   am
    26    17    20    1
    27    18    19    2
    28    20    21    2
    29    20    29    1
    30    21    22    1
    31    21    24    1
    32    22    23    1
    33    22    39    1
    34    22    40    1
    35    24    25    1
    36    24    41    1
    37    24    42    1
    38    25    26    1
    39    26    27    2
    40    26    28   am
    41    28    43    1
    42    28    44    1
    43    29    30   ar
    44    29    31   ar
    45    13    14    1
    46    13    12    1
