@<TRIPOS>MOLECULE
ZINC00002151
 21 22 0 0 0
SMALL
GASTEIGER

@<TRIPOS>ATOM
      1 C          -3.3321   -0.4199    0.0451 C.3     1  UNL1        0.0135
      2 N          -2.1066    0.3370    0.0096 N.ar    1  UNL1       -0.3277
      3 C          -2.0044    1.7035   -0.0078 C.ar    1  UNL1        0.0986
      4 N          -0.7469    2.0986   -0.0155 N.ar    1  UNL1       -0.2177
      5 C          -0.0269    0.9429   -0.0070 C.ar    1  UNL1        0.1678
      6 C          -0.8358   -0.1579    0.0004 C.ar    1  UNL1        0.1510
      7 C          -0.3262   -1.4848    0.0001 C.ar    1  UNL1        0.2798
      8 O          -1.0104   -2.5018   -0.0103 O.2     1  UNL1       -0.2654
      9 N           1.0510   -1.5178    0.0082 N.ar    1  UNL1       -0.2731
     10 H           1.4832   -2.4277    0.0072 H       1  UNL1        0.1735
     11 C           1.9158   -0.4374    0.0039 C.ar    1  UNL1        0.3307
     12 O           3.1302   -0.6400    0.0069 O.2     1  UNL1       -0.2464
     13 N           1.3460    0.8323   -0.0063 N.ar    1  UNL1       -0.2797
     14 C           2.2103    1.9931   -0.0224 C.3     1  UNL1        0.0181
     15 H          -3.3627   -1.0793   -0.8254 H       1  UNL1        0.0456
     16 H          -3.3560   -0.9982    0.9722 H       1  UNL1        0.0456
     17 H          -4.1833    0.2658    0.0174 H       1  UNL1        0.0456
     18 H          -2.8672    2.3579   -0.0118 H       1  UNL1        0.1029
     19 H           2.8614    1.9657    0.8570 H       1  UNL1        0.0458
     20 H           2.8357    1.9561   -0.9200 H       1  UNL1        0.0458
     21 H           1.6390    2.9251   -0.0192 H       1  UNL1        0.0458
@<TRIPOS>BOND
     1     1     2    1
     2     1    15    1
     3     1    16    1
     4     1    17    1
     5     2     6   ar
     6     2     3   ar
     7     3     4   ar
     8     3    18    1
     9     4     5   ar
    10     5    13   ar
    11     5     6   ar
    12     6     7   ar
    13     7     8    2
    14     7     9   ar
    15     9    10    1
    16     9    11   ar
    17    11    12    2
    18    11    13   ar
    19    13    14    1
    20    14    19    1
    21    14    20    1
    22    14    21    1
