@<TRIPOS>MOLECULE
ZINC00000431
 31 33 0 0 0
SMALL
GASTEIGER

@<TRIPOS>ATOM
      1 C           2.3060    0.2133    0.4914 C.ar    1  UNL1       -0.0611
      2 C           1.6733    1.4076    0.1743 C.ar    1  UNL1       -0.0603
      3 C           0.3129    1.4063   -0.1302 C.ar    1  UNL1       -0.0427
      4 C          -0.4163    0.2068   -0.1763 C.ar    1  UNL1        0.0501
      5 C           0.2248   -1.0149    0.0937 C.ar    1  UNL1        0.0190
      6 C           1.5822   -0.9809    0.4813 C.ar    1  UNL1       -0.0512
      7 C          -0.4508   -2.3656   -0.0497 C.2     1  UNL1        0.0793
      8 N          -1.7106   -2.4525    0.2049 N.2     1  UNL1       -0.2428
      9 C          -2.3916   -3.7292    0.0225 C.3     1  UNL1        0.2246
     10 H          -3.4629   -3.5395    0.1625 H       1  UNL1        0.0952
     11 C          -1.9559   -4.6843    1.1576 C.2     1  UNL1        0.2686
     12 O          -2.7572   -5.1765    1.9536 O.2     1  UNL1       -0.2705
     13 N          -0.6421   -5.0926    1.1967 N.am    1  UNL1       -0.2812
     14 C           0.3663   -4.7424    0.2843 C.ar    1  UNL1        0.0428
     15 C           0.4007   -3.5370   -0.4411 C.ar    1  UNL1        0.0232
     16 C           1.3653   -3.3584   -1.4474 C.ar    1  UNL1       -0.0324
     17 C           2.3529   -4.3191   -1.6417 C.ar    1  UNL1        0.0417
     18 C           2.3810   -5.4697   -0.8608 C.ar    1  UNL1       -0.0416
     19 C           1.3858   -5.6837    0.0966 C.ar    1  UNL1       -0.0385
     20 CL          3.5836   -4.0498   -2.8115 Cl      1  UNL1       -0.0835
     21 O          -2.2602   -4.3269   -1.2622 O.3     1  UNL1       -0.3636
     22 CL         -2.0791    0.3621   -0.6244 Cl      1  UNL1       -0.0829
     23 H           3.3653    0.2059    0.7401 H       1  UNL1        0.0618
     24 H           2.2333    2.3396    0.1696 H       1  UNL1        0.0618
     25 H          -0.1783    2.3520   -0.3520 H       1  UNL1        0.0632
     26 H           2.1100   -1.8889    0.7640 H       1  UNL1        0.0625
     27 H          -0.4957   -5.8707    1.8268 H       1  UNL1        0.1550
     28 H           1.3733   -2.4504   -2.0449 H       1  UNL1        0.0639
     29 H           3.1628   -6.2122   -1.0010 H       1  UNL1        0.0633
     30 H           1.3993   -6.6101    0.6656 H       1  UNL1        0.0637
     31 H          -2.8403   -5.1061   -1.2519 H       1  UNL1        0.2125
@<TRIPOS>BOND
     1     1     6   ar
     2     1     2   ar
     3     1    23    1
     4     2     3   ar
     5     2    24    1
     6     3     4   ar
     7     3    25    1
     8     4     5   ar
     9     4    22    1
    10     5     6   ar
    11     5     7    1
    12     6    26    1
    13     7    15    1
    14     7     8    2
    15     8     9    1
    16     9    11    1
    17    11    12    2
    18    11    13   am
    19    13    14    1
    20    13    27    1
    21    14    19   ar
    22    14    15   ar
    23    15    16   ar
    24    16    17   ar
    25    16    28    1
    26    17    18   ar
    27    17    20    1
    28    18    19   ar
    29    18    29    1
    30    19    30    1
    31    21    31    1
    32     9    21    1
    33     9    10    1
