@<TRIPOS>MOLECULE
ZINC00621853
 54 56 0 0 0
SMALL
GASTEIGER

@<TRIPOS>ATOM
      1 C          -2.2839   -1.1921    4.0928 C.3     1  UNL1        0.0122
      2 C          -1.5326    0.0756    3.8228 C.2     1  UNL1        0.2104
      3 O          -1.8771    1.1730    4.2249 O.2     1  UNL1       -0.2761
      4 N          -0.4861   -0.0655    2.9531 N.am    1  UNL1       -0.3087
      5 C           0.4772   -1.2442    2.8061 C.3     1  UNL1        0.0493
      6 H          -0.2744   -1.7200    2.1922 H       1  UNL1        0.0548
      7 C           1.5484   -1.9061    1.6396 C.3     1  UNL1       -0.0263
      8 C           1.0749   -1.8075    0.2552 C.3     1  UNL1       -0.0249
      9 C           0.5967   -0.4108   -0.0417 C.ar    1  UNL1       -0.0324
     10 C          -0.4460   -0.6284   -0.9888 C.ar    1  UNL1       -0.0123
     11 C          -1.3691    0.3108   -1.3157 C.ar    1  UNL1        0.1655
     12 C          -1.1130    1.5922   -0.8625 C.ar    1  UNL1        0.2041
     13 C           0.0047    1.9048    0.0779 C.ar    1  UNL1        0.1731
     14 C           0.8857    0.8766    0.6115 C.ar    1  UNL1        0.0312
     15 C           1.7582    0.8530    2.1004 C.ar    1  UNL1       -0.0088
     16 C           1.6812   -0.3898    2.9542 C.ar    1  UNL1       -0.0157
     17 C           2.6637   -0.9040    3.7547 C.ar    1  UNL1       -0.0057
     18 C           2.2766   -0.4563    5.1105 C.ar    1  UNL1        0.2206
     19 O           1.5399   -1.0739    5.8670 O.2     1  UNL1       -0.2840
     20 C           2.8696    0.9134    5.3073 C.ar    1  UNL1        0.1665
     21 C           2.1912    1.7850    4.5034 C.ar    1  UNL1       -0.0155
     22 C           2.1703    1.8833    2.9409 C.ar    1  UNL1       -0.0500
     23 O           4.2639    0.8589    5.2766 O.3     1  UNL1       -0.4913
     24 C           4.7916    1.1288    6.5713 C.3     1  UNL1        0.0790
     25 O          -0.1130    3.2203    0.4481 O.3     1  UNL1       -0.4907
     26 C           1.0021    4.0120    0.7708 C.3     1  UNL1        0.0790
     27 O          -2.1011    2.5177   -1.1440 O.3     1  UNL1       -0.4885
     28 C          -1.6904    3.5391   -2.0482 C.3     1  UNL1        0.0791
     29 O          -2.4737   -0.2712   -1.8570 O.3     1  UNL1       -0.4913
     30 C          -3.2037    0.3762   -2.8721 C.3     1  UNL1        0.0790
     31 H          -2.9784   -1.0294    4.9176 H       1  UNL1        0.0322
     32 H          -1.5997   -2.0016    4.3517 H       1  UNL1        0.0322
     33 H          -2.8405   -1.4445    3.1850 H       1  UNL1        0.0322
     34 H          -0.1739    0.8938    2.8329 H       1  UNL1        0.1493
     35 H           2.5783   -1.5016    1.4908 H       1  UNL1        0.0289
     36 H           1.7570   -2.9457    1.9342 H       1  UNL1        0.0289
     37 H           1.8345   -2.1086   -0.4787 H       1  UNL1        0.0314
     38 H           0.2685   -2.5557    0.1920 H       1  UNL1        0.0314
     39 H          -0.6553   -1.6425   -1.3465 H       1  UNL1        0.0658
     40 H           3.6992   -0.6338    3.5509 H       1  UNL1        0.0660
     41 H           1.1280    1.8644    4.7926 H       1  UNL1        0.0655
     42 H           2.2393    2.9165    2.6627 H       1  UNL1        0.0625
     43 H           4.0472    1.4975    7.2884 H       1  UNL1        0.0660
     44 H           5.2733    0.2350    6.9860 H       1  UNL1        0.0660
     45 H           5.5565    1.8944    6.4335 H       1  UNL1        0.0660
     46 H           0.9741    4.1647    1.8488 H       1  UNL1        0.0660
     47 H           1.9589    3.6189    0.4181 H       1  UNL1        0.0660
     48 H           0.8626    5.0088    0.3352 H       1  UNL1        0.0660
     49 H          -1.8130    4.5008   -1.5437 H       1  UNL1        0.0660
     50 H          -0.6624    3.4385   -2.4110 H       1  UNL1        0.0660
     51 H          -2.3636    3.5332   -2.9140 H       1  UNL1        0.0660
     52 H          -3.9563    1.0376   -2.4408 H       1  UNL1        0.0660
     53 H          -2.5538    0.8860   -3.5848 H       1  UNL1        0.0660
     54 H          -3.7386   -0.4126   -3.4196 H       1  UNL1        0.0660
@<TRIPOS>BOND
     1     1     2    1
     2     1    31    1
     3     1    32    1
     4     1    33    1
     5     2     3    2
     6     2     4   am
     7     4    34    1
     8     5    16    1
     9     5     7    1
    10     7     8    1
    11     7    35    1
    12     7    36    1
    13     8     9    1
    14     8    37    1
    15     8    38    1
    16     9    14   ar
    17     9    10   ar
    18    10    11   ar
    19    10    39    1
    20    11    12   ar
    21    11    29    1
    22    12    13   ar
    23    12    27    1
    24    13    14   ar
    25    13    25    1
    26    14    15    1
    27    15    22   ar
    28    15    16   ar
    29    16    17   ar
    30    17    18   ar
    31    17    40    1
    32    18    19    2
    33    18    20   ar
    34    20    21   ar
    35    20    23    1
    36    21    22   ar
    37    21    41    1
    38    22    42    1
    39    23    24    1
    40    24    43    1
    41    24    44    1
    42    24    45    1
    43    25    26    1
    44    26    46    1
    45    26    47    1
    46    26    48    1
    47    27    28    1
    48    28    49    1
    49    28    50    1
    50    28    51    1
    51    29    30    1
    52    30    52    1
    53    30    53    1
    54    30    54    1
    55     5     6    1
    56     5     4    1
