@<TRIPOS>MOLECULE
ZINC00896755
 40 42 0 0 0
SMALL
GASTEIGER

@<TRIPOS>ATOM
      1 C          -0.0547    1.8547    2.1215 C.3     1  UNL1       -0.0379
      2 C          -0.0784    1.4393    0.6789 C.ar    1  UNL1       -0.0290
      3 C          -1.1066    0.5298    0.3353 C.ar    1  UNL1       -0.0571
      4 C          -1.2239    0.0067   -0.9445 C.ar    1  UNL1       -0.0614
      5 C          -0.3540    0.4542   -1.9338 C.ar    1  UNL1       -0.0600
      6 C           0.6259    1.4045   -1.6196 C.ar    1  UNL1       -0.0399
      7 C           0.8279    1.8911   -0.3158 C.ar    1  UNL1        0.0413
      8 N           2.0234    2.6767    0.0301 N.am    1  UNL1       -0.2485
      9 C           3.2311    1.9079    0.2867 C.3     1  UNL1        0.0921
     10 H           4.0275    2.6392    0.5136 H       1  UNL1        0.0709
     11 N           3.6192    1.2191   -0.9556 N.pl3   1  UNL1       -0.3250
     12 C           3.7102    2.1403   -2.0353 C.ar    1  UNL1        0.0422
     13 C           4.0586    1.7535   -3.3221 C.ar    1  UNL1       -0.0198
     14 C           4.4886    2.7198   -4.2407 C.ar    1  UNL1        0.0690
     15 C           4.6781    4.0340   -3.8094 C.ar    1  UNL1        0.1241
     16 C           4.0835    4.4624   -2.6118 C.ar    1  UNL1       -0.0200
     17 C           3.4654    3.4999   -1.8109 C.ar    1  UNL1        0.0600
     18 C           2.4030    3.7842   -0.7809 C.2     1  UNL1        0.2541
     19 O           1.9309    4.9109   -0.6702 O.2     1  UNL1       -0.2695
     20 S           5.9110    5.0420   -4.5936 S.O2    1  UNL1        0.0574
     21 O           6.1239    6.2143   -3.7804 O.2     1  UNL1       -0.1532
     22 O           7.0120    4.2117   -5.0117 O.2     1  UNL1       -0.1532
     23 N           5.1827    5.6124   -5.9904 N.3     1  UNL1       -0.2035
     24 CL          4.6752    2.2484   -5.8894 Cl      1  UNL1       -0.0815
     25 C           3.2166    1.0444    1.5305 C.3     1  UNL1       -0.0294
     26 H          -1.0575    2.1900    2.4179 H       1  UNL1        0.0278
     27 H           0.2120    0.9926    2.7435 H       1  UNL1        0.0278
     28 H           0.6399    2.6719    2.3209 H       1  UNL1        0.0278
     29 H          -1.7977    0.1778    1.1045 H       1  UNL1        0.0621
     30 H          -2.0040   -0.7111   -1.1749 H       1  UNL1        0.0618
     31 H          -0.4237    0.0386   -2.9367 H       1  UNL1        0.0618
     32 H           1.2667    1.6962   -2.4425 H       1  UNL1        0.0636
     33 H           3.0479    0.4060   -1.1678 H       1  UNL1        0.1479
     34 H           3.9929    0.7124   -3.6232 H       1  UNL1        0.0651
     35 H           4.1433    5.4940   -2.2753 H       1  UNL1        0.0646
     36 H           5.0627    6.6231   -5.9119 H       1  UNL1        0.1442
     37 H           5.7633    5.3477   -6.7894 H       1  UNL1        0.1442
     38 H           4.2340    0.7144    1.7701 H       1  UNL1        0.0264
     39 H           2.8707    1.6395    2.3851 H       1  UNL1        0.0264
     40 H           2.5816    0.1624    1.4372 H       1  UNL1        0.0264
@<TRIPOS>BOND
     1     1     2    1
     2     1    26    1
     3     1    27    1
     4     1    28    1
     5     2     7   ar
     6     2     3   ar
     7     3     4   ar
     8     3    29    1
     9     4     5   ar
    10     4    30    1
    11     5     6   ar
    12     5    31    1
    13     6     7   ar
    14     6    32    1
    15     7     8    1
    16     8    18   am
    17     8     9    1
    18     9    11    1
    19    11    12    1
    20    11    33    1
    21    12    17   ar
    22    12    13   ar
    23    13    14   ar
    24    13    34    1
    25    14    15   ar
    26    14    24    1
    27    15    16   ar
    28    15    20    1
    29    16    17   ar
    30    16    35    1
    31    17    18    1
    32    18    19    2
    33    20    21    2
    34    20    22    2
    35    20    23    1
    36    23    36    1
    37    23    37    1
    38    25    38    1
    39    25    39    1
    40    25    40    1
    41     9    25    1
    42     9    10    1
