@<TRIPOS>MOLECULE
ZINC00001728
 31 32 0 0 0
SMALL
GASTEIGER

@<TRIPOS>ATOM
      1 C           1.1785    0.0873   -0.0030 C.3     1  UNL1       -0.0486
      2 C           0.4808    1.4351   -0.3090 C.3     1  UNL1        0.0543
      3 C           1.0573    1.9190   -1.6607 C.3     1  UNL1       -0.0486
      4 C          -1.0435    1.3379   -0.4624 C.ar    1  UNL1       -0.0162
      5 C          -1.6831    0.1648   -0.8874 C.ar    1  UNL1       -0.0548
      6 C          -3.0742    0.0785   -0.8861 C.ar    1  UNL1       -0.0433
      7 C          -3.8002    1.1807   -0.4781 C.ar    1  UNL1        0.0276
      8 N          -3.2348    2.3535   -0.1340 N.ar    1  UNL1       -0.2630
      9 C          -1.8828    2.4155   -0.1599 C.ar    1  UNL1        0.0317
     10 C           0.9054    2.4323    0.8099 C.2     1  UNL1        0.1745
     11 O           1.6297    3.3970    0.5657 O.2     1  UNL1       -0.2911
     12 C           0.4400    2.2635    2.2278 C.ar    1  UNL1        0.0363
     13 C          -0.4205    1.2539    2.6735 C.ar    1  UNL1       -0.0483
     14 C          -0.8402    1.2265    3.9993 C.ar    1  UNL1       -0.0429
     15 C          -0.3854    2.2129    4.8553 C.ar    1  UNL1        0.0276
     16 N           0.4598    3.1929    4.4761 N.ar    1  UNL1       -0.2626
     17 C           0.8500    3.1981    3.1736 C.ar    1  UNL1        0.0380
     18 H           1.0335   -0.6436   -0.8059 H       1  UNL1        0.0242
     19 H           0.8257   -0.3810    0.9190 H       1  UNL1        0.0242
     20 H           2.2608    0.2275    0.1106 H       1  UNL1        0.0242
     21 H           0.7951    1.2338   -2.4766 H       1  UNL1        0.0242
     22 H           0.6887    2.9149   -1.9314 H       1  UNL1        0.0242
     23 H           2.1525    1.9771   -1.6238 H       1  UNL1        0.0242
     24 H          -1.1178   -0.7027   -1.2155 H       1  UNL1        0.0621
     25 H          -3.5778   -0.8336   -1.1867 H       1  UNL1        0.0633
     26 H          -4.8846    1.1505   -0.4199 H       1  UNL1        0.0829
     27 H          -1.4910    3.3932    0.1142 H       1  UNL1        0.0832
     28 H          -0.8080    0.4876    2.0182 H       1  UNL1        0.0625
     29 H          -1.5213    0.4585    4.3509 H       1  UNL1        0.0633
     30 H          -0.7060    2.2466    5.8927 H       1  UNL1        0.0829
     31 H           1.5180    4.0162    2.9133 H       1  UNL1        0.0836
@<TRIPOS>BOND
     1     1     2    1
     2     1    18    1
     3     1    19    1
     4     1    20    1
     5     2     3    1
     6     2     4    1
     7     2    10    1
     8     3    21    1
     9     3    22    1
    10     3    23    1
    11     4     9   ar
    12     4     5   ar
    13     5     6   ar
    14     5    24    1
    15     6     7   ar
    16     6    25    1
    17     7     8   ar
    18     7    26    1
    19     8     9   ar
    20     9    27    1
    21    10    11    2
    22    10    12    1
    23    12    17   ar
    24    12    13   ar
    25    13    14   ar
    26    13    28    1
    27    14    15   ar
    28    14    29    1
    29    15    16   ar
    30    15    30    1
    31    16    17   ar
    32    17    31    1
