@<TRIPOS>MOLECULE
ZINC02036972
 30 29 0 0 0
SMALL
GASTEIGER

@<TRIPOS>ATOM
      1 C           0.9873   -0.1421   -0.0905 C.3     1  UNL1       -0.0216
      2 C           0.4657    0.5390   -1.3528 C.3     1  UNL1       -0.0255
      3 H           0.7504   -0.0739   -2.2170 H       1  UNL1        0.0848
      4 C          -1.0586    0.7270   -1.3670 C.3     1  UNL1       -0.0066
      5 C          -1.6564    1.5792   -0.2414 C.3     1  UNL1       -0.0295
      6 C          -3.1563    1.6221   -0.3644 C.2     1  UNL1       -0.0851
      7 C          -3.9356    2.7045   -0.5411 C.2     1  UNL1       -0.0796
      8 C          -5.4392    2.5682   -0.6186 C.3     1  UNL1       -0.0440
      9 C          -3.4196    4.1096   -0.6513 C.3     1  UNL1       -0.0440
     10 C           0.8859    2.6482   -2.7195 C.3     1  UNL1       -0.0446
     11 H           0.5364   -1.1330    0.0265 H       1  UNL1        0.0284
     12 H           0.7727    0.4399    0.8112 H       1  UNL1        0.0284
     13 H           2.0735   -0.2786   -0.1417 H       1  UNL1        0.0284
     14 H          -1.3622    1.1498   -2.3339 H       1  UNL1        0.0323
     15 H          -1.5146   -0.2718   -1.3304 H       1  UNL1        0.0323
     16 H          -1.4146    1.1411    0.7339 H       1  UNL1        0.0309
     17 H          -1.2241    2.5840   -0.2560 H       1  UNL1        0.0309
     18 H          -3.6472    0.6501   -0.2787 H       1  UNL1        0.0571
     19 H          -5.9173    3.1915    0.1451 H       1  UNL1        0.0274
     20 H          -5.7950    2.8845   -1.6026 H       1  UNL1        0.0274
     21 H          -5.7707    1.5363   -0.4569 H       1  UNL1        0.0274
     22 H          -2.9419    4.4188    0.2854 H       1  UNL1        0.0274
     23 H          -2.6993    4.1968   -1.4705 H       1  UNL1        0.0274
     24 H          -4.2288    4.8175   -0.8544 H       1  UNL1        0.0274
     25 H           0.0875    3.3413   -2.4464 H       1  UNL1        0.0777
     26 H           1.7884    3.1975   -2.9984 H       1  UNL1        0.0777
     27 H           0.5817    1.9853   -3.5324 H       1  UNL1        0.0777
     28 N           1.2156    1.8315   -1.5164 N.4     1  UNL1        0.2268
     29 H           1.1222    2.4154   -0.6732 H       1  UNL1        0.2013
     30 H           2.2178    1.5999   -1.5700 H       1  UNL1        0.2013
@<TRIPOS>UNITY_ATOM_ATTR
28 1
charge 1
@<TRIPOS>BOND
     1     1     2    1
     2     1    11    1
     3     1    12    1
     4     1    13    1
     5     2     3    1
     6     2     4    1
     7     2    28    1
     8     4     5    1
     9     4    14    1
    10     4    15    1
    11     5     6    1
    12     5    16    1
    13     5    17    1
    14     6     7    2
    15     6    18    1
    16     7     8    1
    17     7     9    1
    18     8    19    1
    19     8    20    1
    20     8    21    1
    21     9    22    1
    22     9    23    1
    23     9    24    1
    24    10    25    1
    25    10    26    1
    26    10    27    1
    27    10    28    1
    28    28    29    1
    29    28    30    1
