@<TRIPOS>MOLECULE
ZINC00643046
 76 79 0 0 0
SMALL
GASTEIGER

@<TRIPOS>ATOM
      1 C          -1.3424   -0.5283   -0.2832 C.3     1  UNL1       -0.0502
      2 C          -0.9088    0.5644    0.6943 C.3     1  UNL1       -0.0371
      3 C           0.5122    1.0415    0.4084 C.3     1  UNL1        0.0136
      4 N           1.4063   -0.1083    0.3815 N.pl3   1  UNL1       -0.3134
      5 C           1.0934   -1.1424   -0.6062 C.3     1  UNL1        0.0136
      6 C          -0.3208   -1.6603   -0.3455 C.3     1  UNL1       -0.0371
      7 C           2.5631   -0.0969    1.1478 C.ar    1  UNL1        0.1528
      8 C           3.7671   -0.6866    0.7200 C.ar    1  UNL1        0.1360
      9 C           4.7933   -0.6262    1.6397 C.ar    1  UNL1        0.1360
     10 C           5.9812   -1.2641    1.2306 C.ar    1  UNL1        0.1528
     11 N           6.1014   -1.8542    0.0090 N.ar    1  UNL1       -0.1972
     12 C           5.0755   -1.8109   -0.8304 C.ar    1  UNL1        0.2204
     13 N           3.9188   -1.2455   -0.5039 N.ar    1  UNL1       -0.2092
     14 N           5.1189   -2.4393   -2.0679 N.pl3   1  UNL1       -0.2952
     15 C           6.2279   -3.3707   -2.3182 C.3     1  UNL1        0.0381
     16 C           6.0483   -4.6859   -1.5450 C.3     1  UNL1        0.0600
     17 O           4.8032   -5.3123   -1.8587 O.3     1  UNL1       -0.3935
     18 C           4.7119   -1.5777   -3.1927 C.3     1  UNL1        0.0381
     19 C           3.6652   -2.3094   -4.0452 C.3     1  UNL1        0.0600
     20 O           2.5277   -2.6407   -3.2487 O.3     1  UNL1       -0.3935
     21 N           7.0990   -1.3601    2.0453 N.pl3   1  UNL1       -0.3134
     22 C           8.4266   -1.2338    1.4568 C.3     1  UNL1        0.0136
     23 C           9.2941   -2.4012    1.9180 C.3     1  UNL1       -0.0371
     24 C           9.3023   -2.5310    3.4424 C.3     1  UNL1       -0.0502
     25 C           7.8853   -2.5640    4.0060 C.3     1  UNL1       -0.0371
     26 C           7.0419   -1.3900    3.5052 C.3     1  UNL1        0.0136
     27 N           4.6738    0.0201    2.8266 N.ar    1  UNL1       -0.2092
     28 C           3.5131    0.5743    3.1506 C.ar    1  UNL1        0.2204
     29 N           2.4485    0.5146    2.3586 N.ar    1  UNL1       -0.1972
     30 N           3.4435    1.1521    4.4120 N.pl3   1  UNL1       -0.2952
     31 C           2.1080    1.3951    4.9736 C.3     1  UNL1        0.0381
     32 C           1.4525    0.0881    5.4430 C.3     1  UNL1        0.0600
     33 O           2.2902   -0.6095    6.3675 O.3     1  UNL1       -0.3935
     34 C           4.4525    2.2052    4.6313 C.3     1  UNL1        0.0381
     35 C           5.1778    1.9359    5.9570 C.3     1  UNL1        0.0600
     36 O           5.8082    0.6556    5.9164 O.3     1  UNL1       -0.3935
     37 H          -2.3153   -0.9299    0.0204 H       1  UNL1        0.0266
     38 H          -1.4676   -0.0974   -1.2836 H       1  UNL1        0.0266
     39 H          -1.6024    1.4098    0.6328 H       1  UNL1        0.0280
     40 H          -0.9600    0.1746    1.7183 H       1  UNL1        0.0280
     41 H           0.5465    1.5426   -0.5681 H       1  UNL1        0.0464
     42 H           0.7996    1.7987    1.1470 H       1  UNL1        0.0464
     43 H           1.7457   -2.0158   -0.5443 H       1  UNL1        0.0464
     44 H           1.1702   -0.7257   -1.6190 H       1  UNL1        0.0464
     45 H          -0.3285   -2.2025    0.6091 H       1  UNL1        0.0280
     46 H          -0.6023   -2.3787   -1.1239 H       1  UNL1        0.0280
     47 H           6.2389   -3.6215   -3.3877 H       1  UNL1        0.0487
     48 H           7.1997   -2.9150   -2.0940 H       1  UNL1        0.0487
     49 H           6.8418   -5.3854   -1.8239 H       1  UNL1        0.0573
     50 H           6.0939   -4.5402   -0.4616 H       1  UNL1        0.0573
     51 H           4.1254   -4.8106   -1.3704 H       1  UNL1        0.2095
     52 H           4.2696   -0.6321   -2.8509 H       1  UNL1        0.0487
     53 H           5.5790   -1.3122   -3.8087 H       1  UNL1        0.0487
     54 H           3.3311   -1.6771   -4.8728 H       1  UNL1        0.0573
     55 H           4.0700   -3.2374   -4.4604 H       1  UNL1        0.0573
     56 H           2.9044   -2.8706   -2.3760 H       1  UNL1        0.2095
     57 H           8.8741   -0.2875    1.7868 H       1  UNL1        0.0464
     58 H           8.4158   -1.1992    0.3605 H       1  UNL1        0.0464
     59 H          10.3182   -2.2709    1.5533 H       1  UNL1        0.0280
     60 H           8.9100   -3.3318    1.4800 H       1  UNL1        0.0280
     61 H           9.8333   -3.4448    3.7308 H       1  UNL1        0.0266
     62 H           9.8495   -1.6876    3.8794 H       1  UNL1        0.0266
     63 H           7.4023   -3.5019    3.7036 H       1  UNL1        0.0280
     64 H           7.9165   -2.5582    5.1012 H       1  UNL1        0.0280
     65 H           6.0341   -1.5547    3.8945 H       1  UNL1        0.0464
     66 H           7.4200   -0.4445    3.9095 H       1  UNL1        0.0464
     67 H           2.2154    2.0385    5.8584 H       1  UNL1        0.0487
     68 H           1.4575    1.9333    4.2746 H       1  UNL1        0.0487
     69 H           0.5129    0.3096    5.9570 H       1  UNL1        0.0573
     70 H           1.2344   -0.5856    4.6094 H       1  UNL1        0.0573
     71 H           3.0557   -0.9144    5.8476 H       1  UNL1        0.2095
     72 H           5.2036    2.2313    3.8304 H       1  UNL1        0.0487
     73 H           3.9799    3.1946    4.6529 H       1  UNL1        0.0487
     74 H           5.9471    2.6918    6.1376 H       1  UNL1        0.0573
     75 H           4.4796    1.9431    6.7996 H       1  UNL1        0.0573
     76 H           5.2117    0.1087    5.3669 H       1  UNL1        0.2095
@<TRIPOS>BOND
     1     1     6    1
     2     1     2    1
     3     1    37    1
     4     1    38    1
     5     2     3    1
     6     2    39    1
     7     2    40    1
     8     3     4    1
     9     3    41    1
    10     3    42    1
    11     4     5    1
    12     4     7    1
    13     5     6    1
    14     5    43    1
    15     5    44    1
    16     6    45    1
    17     6    46    1
    18     7    29   ar
    19     7     8   ar
    20     8    13   ar
    21     8     9   ar
    22     9    10   ar
    23     9    27   ar
    24    10    11   ar
    25    10    21    1
    26    11    12   ar
    27    12    13   ar
    28    12    14    1
    29    14    15    1
    30    14    18    1
    31    15    16    1
    32    15    47    1
    33    15    48    1
    34    16    17    1
    35    16    49    1
    36    16    50    1
    37    17    51    1
    38    18    19    1
    39    18    52    1
    40    18    53    1
    41    19    20    1
    42    19    54    1
    43    19    55    1
    44    20    56    1
    45    21    26    1
    46    21    22    1
    47    22    23    1
    48    22    57    1
    49    22    58    1
    50    23    24    1
    51    23    59    1
    52    23    60    1
    53    24    25    1
    54    24    61    1
    55    24    62    1
    56    25    26    1
    57    25    63    1
    58    25    64    1
    59    26    65    1
    60    26    66    1
    61    27    28   ar
    62    28    29   ar
    63    28    30    1
    64    30    31    1
    65    30    34    1
    66    31    32    1
    67    31    67    1
    68    31    68    1
    69    32    33    1
    70    32    69    1
    71    32    70    1
    72    33    71    1
    73    34    35    1
    74    34    72    1
    75    34    73    1
    76    35    36    1
    77    35    74    1
    78    35    75    1
    79    36    76    1
