@<TRIPOS>MOLECULE
ZINC01996784
 53 55 0 0 0
SMALL
GASTEIGER

@<TRIPOS>ATOM
      1 C           1.1162   -0.7952   -5.3526 C.ar    1  UNL1       -0.0617
      2 C           0.9764   -0.4815   -4.0049 C.ar    1  UNL1       -0.0614
      3 C          -0.0715    0.3397   -3.5767 C.ar    1  UNL1       -0.0559
      4 C          -0.9948    0.8649   -4.4939 C.ar    1  UNL1       -0.0141
      5 C          -0.8007    0.5834   -5.8600 C.ar    1  UNL1       -0.0559
      6 C           0.2381   -0.2498   -6.2828 C.ar    1  UNL1       -0.0614
      7 C          -2.2880    1.5226   -4.0634 C.3     1  UNL1        0.1197
      8 H          -2.8531    1.8006   -4.9626 H       1  UNL1        0.0698
      9 C          -2.2482    2.7792   -3.1661 C.3     1  UNL1       -0.0028
     10 C          -2.2602    3.5330   -0.7588 C.3     1  UNL1       -0.0295
     11 C          -1.9245    3.1204    0.6755 C.3     1  UNL1        0.0126
     12 C          -0.4977    2.6773    0.8968 C.ar    1  UNL1       -0.0422
     13 C          -0.2446    1.4098    1.4313 C.ar    1  UNL1       -0.0566
     14 C           1.0601    1.0073    1.7369 C.ar    1  UNL1       -0.0402
     15 C           2.1411    1.8590    1.5198 C.ar    1  UNL1        0.0334
     16 C           1.8970    3.1155    0.9575 C.ar    1  UNL1       -0.0402
     17 C           0.5897    3.5272    0.6566 C.ar    1  UNL1       -0.0566
     18 N           3.4691    1.5379    1.8643 N.am    1  UNL1       -0.2852
     19 C           3.9312    0.4035    2.5025 C.2     1  UNL1        0.2230
     20 O           3.2321   -0.5714    2.7967 O.2     1  UNL1       -0.2751
     21 C           5.4181    0.3578    2.8488 C.3     1  UNL1        0.0671
     22 C           6.2370    1.5872    2.6088 C.ar    1  UNL1        0.0593
     23 C           7.3246    1.9946    3.3601 C.ar    1  UNL1        0.0007
     24 S           7.9943    3.4277    2.7038 S.2     1  UNL1       -0.0608
     25 C           6.7991    3.4134    1.4760 C.ar    1  UNL1        0.1557
     26 N           5.9526    2.4127    1.5249 N.ar    1  UNL1       -0.2296
     27 N           6.7473    4.3633    0.5286 N.pl3   1  UNL1       -0.3375
     28 O          -3.0597    0.5277   -3.3689 O.3     1  UNL1       -0.3819
     29 H           1.8964   -1.4814   -5.6744 H       1  UNL1        0.0618
     30 H           1.6609   -0.9149   -3.2783 H       1  UNL1        0.0618
     31 H          -0.1763    0.4765   -2.5070 H       1  UNL1        0.0621
     32 H          -1.4900    0.9580   -6.6164 H       1  UNL1        0.0621
     33 H           0.3416   -0.5055   -7.3358 H       1  UNL1        0.0618
     34 H          -1.5040    3.5188   -3.4703 H       1  UNL1        0.0843
     35 H          -3.2478    3.2323   -3.1749 H       1  UNL1        0.0843
     36 H          -1.6504    4.3838   -1.0846 H       1  UNL1        0.0817
     37 H          -3.3197    3.7998   -0.8377 H       1  UNL1        0.0817
     38 H          -2.1250    3.9627    1.3498 H       1  UNL1        0.0365
     39 H          -2.6123    2.3211    0.9808 H       1  UNL1        0.0365
     40 H          -1.0571    0.7239    1.6665 H       1  UNL1        0.0621
     41 H           1.1873    0.0224    2.1774 H       1  UNL1        0.0636
     42 H           2.7196    3.8094    0.7918 H       1  UNL1        0.0636
     43 H           0.4446    4.5386    0.2819 H       1  UNL1        0.0621
     44 H           4.1881    2.2292    1.6320 H       1  UNL1        0.1548
     45 H           5.4739    0.1060    3.9172 H       1  UNL1        0.0423
     46 H           5.8600   -0.4730    2.2880 H       1  UNL1        0.0423
     47 H           7.7537    1.5266    4.2356 H       1  UNL1        0.0712
     48 H           7.5906    4.9028    0.3673 H       1  UNL1        0.1442
     49 H           6.2611    4.1108   -0.3233 H       1  UNL1        0.1442
     50 H          -2.9440   -0.3069   -3.8701 H       1  UNL1        0.2105
     51 N          -2.0075    2.4203   -1.7217 N.4     1  UNL1        0.2293
     52 H          -2.6080    1.5991   -1.5240 H       1  UNL1        0.2015
     53 H          -1.0421    2.0931   -1.6028 H       1  UNL1        0.2015
@<TRIPOS>UNITY_ATOM_ATTR
51 1
charge 1
@<TRIPOS>BOND
     1     1     6   ar
     2     1     2   ar
     3     1    29    1
     4     2     3   ar
     5     2    30    1
     6     3     4   ar
     7     3    31    1
     8     4     5   ar
     9     5     6   ar
    10     5    32    1
    11     6    33    1
    12     7     9    1
    13     7    28    1
    14     9    34    1
    15     9    35    1
    16     9    51    1
    17    10    11    1
    18    10    36    1
    19    10    37    1
    20    10    51    1
    21    11    12    1
    22    11    38    1
    23    11    39    1
    24    12    17   ar
    25    12    13   ar
    26    13    14   ar
    27    13    40    1
    28    14    15   ar
    29    14    41    1
    30    15    16   ar
    31    15    18    1
    32    16    17   ar
    33    16    42    1
    34    17    43    1
    35    18    19   am
    36    18    44    1
    37    19    20    2
    38    19    21    1
    39    21    22    1
    40    21    45    1
    41    21    46    1
    42    22    26   ar
    43    22    23   ar
    44    23    24   ar
    45    23    47    1
    46    24    25   ar
    47    25    26   ar
    48    25    27    1
    49    27    48    1
    50    27    49    1
    51    28    50    1
    52    51    52    1
    53    51    53    1
    54     7     8    1
    55     7     4    1
