@<TRIPOS>MOLECULE
ZINC03813042
 19 19 0 0 0
SMALL
GASTEIGER

@<TRIPOS>ATOM
      1 C           0.0728   -2.2837   -1.1804 C.3     1  UNL1        0.0125
      2 C           0.9887   -1.0911   -1.2365 C.2     1  UNL1        0.2156
      3 O           1.6576   -0.7757   -0.2582 O.2     1  UNL1       -0.2757
      4 N           0.9399   -0.4419   -2.4506 N.am    1  UNL1       -0.2635
      5 C           1.7170    0.6316   -2.8205 C.ar    1  UNL1        0.1893
      6 N           1.5035    1.3183   -3.9246 N.ar    1  UNL1       -0.1239
      7 N           2.4128    2.3558   -4.0761 N.ar    1  UNL1       -0.1190
      8 C           3.2891    2.3585   -3.0916 C.ar    1  UNL1        0.2556
      9 S           3.0765    1.1405   -1.9250 S.2     1  UNL1       -0.0105
     10 S           4.5957    3.5086   -2.8606 S.O2    1  UNL1        0.0815
     11 O           4.2621    4.2672   -1.6744 O.2     1  UNL1       -0.1512
     12 O           5.8362    2.7766   -2.9801 O.2     1  UNL1       -0.1512
     13 N           4.5921    4.6437   -4.1111 N.3     1  UNL1       -0.2015
     14 H           0.2925   -2.8645   -0.2780 H       1  UNL1        0.0323
     15 H           0.2337   -2.9285   -2.0491 H       1  UNL1        0.0323
     16 H          -0.9687   -1.9529   -1.1450 H       1  UNL1        0.0323
     17 H           0.2225   -0.6852   -3.1202 H       1  UNL1        0.1568
     18 H           3.8407    5.3196   -3.9668 H       1  UNL1        0.1443
     19 H           5.5072    5.0946   -4.1509 H       1  UNL1        0.1443
@<TRIPOS>BOND
     1     1     2    1
     2     1    14    1
     3     1    15    1
     4     1    16    1
     5     2     3    2
     6     2     4   am
     7     4     5    1
     8     4    17    1
     9     5     9   ar
    10     5     6   ar
    11     6     7   ar
    12     7     8   ar
    13     8     9   ar
    14     8    10    1
    15    10    11    2
    16    10    12    2
    17    10    13    1
    18    13    18    1
    19    13    19    1
