@<TRIPOS>MOLECULE
ZINC01530569
 55 55 0 0 0
SMALL
GASTEIGER

@<TRIPOS>ATOM
      1 C           3.9103    3.9627    4.0750 C.3     1  UNL1       -0.0219
      2 C           3.5574    4.0990    5.5518 C.3     1  UNL1       -0.0283
      3 C           4.0778    5.4253    6.1008 C.3     1  UNL1       -0.0219
      4 N           2.0666    4.0663    5.7357 N.4     1  UNL1        0.2307
      5 C           1.3407    2.8063    5.3120 C.3     1  UNL1       -0.0035
      6 C          -0.1514    2.9594    5.6792 C.3     1  UNL1        0.1285
      7 H          -0.5927    3.7252    5.0261 H       1  UNL1        0.0681
      8 C          -0.9099    1.6334    5.5031 C.3     1  UNL1        0.1204
      9 O          -0.8053    1.2316    4.1368 O.3     1  UNL1       -0.4892
     10 C          -1.1501   -0.0618    3.8502 C.ar    1  UNL1        0.1206
     11 C          -1.9676   -0.8855    4.6288 C.ar    1  UNL1       -0.0196
     12 C          -2.2196   -2.2030    4.2285 C.ar    1  UNL1       -0.0529
     13 C          -1.6712   -2.7161    3.0425 C.ar    1  UNL1       -0.0217
     14 C          -0.8726   -1.8754    2.2587 C.ar    1  UNL1       -0.0529
     15 C          -0.6267   -0.5577    2.6554 C.ar    1  UNL1       -0.0196
     16 C          -1.9117   -4.1473    2.6269 C.3     1  UNL1        0.0728
     17 O          -3.2895   -4.4917    2.4990 O.3     1  UNL1       -0.3729
     18 C          -4.0200   -3.8225    1.4666 C.3     1  UNL1        0.0714
     19 C          -3.4507   -3.9872    0.0569 C.3     1  UNL1        0.0713
     20 O          -4.3385   -3.5695   -0.9797 O.3     1  UNL1       -0.3748
     21 C          -4.7091   -2.1885   -1.0159 C.3     1  UNL1        0.0532
     22 C          -3.5059   -1.2555   -1.1172 C.3     1  UNL1       -0.0390
     23 C          -5.6158   -2.0165   -2.2344 C.3     1  UNL1       -0.0390
     24 O          -0.2261    3.4462    7.0259 O.3     1  UNL1       -0.3831
     25 H           3.3241    4.6493    3.4547 H       1  UNL1        0.0284
     26 H           3.7325    2.9429    3.7196 H       1  UNL1        0.0284
     27 H           4.9708    4.1810    3.9060 H       1  UNL1        0.0284
     28 H           3.9739    3.2676    6.1306 H       1  UNL1        0.0845
     29 H           3.6557    6.2780    5.5572 H       1  UNL1        0.0284
     30 H           3.8316    5.5417    7.1615 H       1  UNL1        0.0284
     31 H           5.1678    5.4787    6.0061 H       1  UNL1        0.0284
     32 H           1.8303    4.1808    6.7374 H       1  UNL1        0.2017
     33 H           1.4832    2.6726    4.2376 H       1  UNL1        0.0841
     34 H           1.8049    1.9891    5.8727 H       1  UNL1        0.0841
     35 H          -0.4781    0.8783    6.1732 H       1  UNL1        0.0725
     36 H          -1.9618    1.7776    5.7747 H       1  UNL1        0.0725
     37 H          -2.4320   -0.5345    5.5445 H       1  UNL1        0.0654
     38 H          -2.8518   -2.8433    4.8469 H       1  UNL1        0.0622
     39 H          -0.4321   -2.2412    1.3334 H       1  UNL1        0.0622
     40 H          -0.0103    0.0780    2.0246 H       1  UNL1        0.0654
     41 H          -1.3739   -4.4010    1.7071 H       1  UNL1        0.0610
     42 H          -1.4909   -4.7963    3.4041 H       1  UNL1        0.0610
     43 H          -5.0355   -4.2429    1.4840 H       1  UNL1        0.0583
     44 H          -4.1315   -2.7669    1.7270 H       1  UNL1        0.0583
     45 H          -2.4889   -3.4742   -0.0542 H       1  UNL1        0.0583
     46 H          -3.2385   -5.0485   -0.1209 H       1  UNL1        0.0583
     47 H          -5.2929   -1.9415   -0.1220 H       1  UNL1        0.0590
     48 H          -2.7644   -1.6349   -1.8289 H       1  UNL1        0.0254
     49 H          -3.8029   -0.2460   -1.4175 H       1  UNL1        0.0254
     50 H          -3.0084   -1.1697   -0.1454 H       1  UNL1        0.0254
     51 H          -6.5832   -2.4969   -2.0531 H       1  UNL1        0.0254
     52 H          -5.8010   -0.9614   -2.4623 H       1  UNL1        0.0254
     53 H          -5.1865   -2.4994   -3.1189 H       1  UNL1        0.0254
     54 H          -1.1707    3.4770    7.2836 H       1  UNL1        0.2102
     55 H           1.6345    4.8792    5.2791 H       1  UNL1        0.2017
@<TRIPOS>UNITY_ATOM_ATTR
4 1
charge 1
@<TRIPOS>BOND
     1     1     2    1
     2     1    25    1
     3     1    26    1
     4     1    27    1
     5     2     3    1
     6     2     4    1
     7     2    28    1
     8     3    29    1
     9     3    30    1
    10     3    31    1
    11     4     5    1
    12     4    32    1
    13     4    55    1
    14     5     6    1
    15     5    33    1
    16     5    34    1
    17     6     7    1
    18     6     8    1
    19     6    24    1
    20     8     9    1
    21     8    35    1
    22     8    36    1
    23     9    10    1
    24    10    15   ar
    25    10    11   ar
    26    11    12   ar
    27    11    37    1
    28    12    13   ar
    29    12    38    1
    30    13    14   ar
    31    13    16    1
    32    14    15   ar
    33    14    39    1
    34    15    40    1
    35    16    17    1
    36    16    41    1
    37    16    42    1
    38    17    18    1
    39    18    19    1
    40    18    43    1
    41    18    44    1
    42    19    20    1
    43    19    45    1
    44    19    46    1
    45    20    21    1
    46    21    22    1
    47    21    23    1
    48    21    47    1
    49    22    48    1
    50    22    49    1
    51    22    50    1
    52    23    51    1
    53    23    52    1
    54    23    53    1
    55    24    54    1
