@<TRIPOS>MOLECULE
ZINC03813010
 28 29 0 0 0
SMALL
GASTEIGER

@<TRIPOS>ATOM
      1 C          -0.6249    1.0423   -0.4700 C.ar    1  UNL1        0.0524
      2 C           0.7075    1.0691   -0.4229 C.ar    1  UNL1        0.2036
      3 C           1.4432   -0.1089    0.0661 C.ar    1  UNL1        0.2894
      4 O           2.6666   -0.1707    0.0719 O.2     1  UNL1       -0.2646
      5 N           0.6519   -1.1353    0.5133 N.ar    1  UNL1       -0.2725
      6 H           1.1247   -1.9556    0.8611 H       1  UNL1        0.1735
      7 C          -0.7210   -1.1879    0.4623 C.ar    1  UNL1        0.3315
      8 O          -1.3160   -2.1815    0.8732 O.2     1  UNL1       -0.2464
      9 N          -1.3489   -0.0694   -0.0773 N.ar    1  UNL1       -0.2712
     10 C1*        -2.8034   -0.0982   -0.2162 C.3     1  UNL1        0.1423
     11 H1*        -3.1347   -1.1265   -0.4064 H       1  UNL1        0.0840
     12 C2*        -3.5427    0.4779    0.9842 C.3     1  UNL1        0.0214
     13 C3*        -4.8275    0.9738    0.3608 C.3     1  UNL1        0.0876
     14 H3*        -5.3026    1.7690    0.9431 H       1  UNL1        0.0621
     15 C4*        -4.3995    1.4067   -1.0403 C.3     1  UNL1        0.1100
     16 H4*        -5.1367    1.1367   -1.8046 H       1  UNL1        0.0646
     17 O4*        -3.1878    0.6882   -1.3615 O.3     1  UNL1       -0.3483
     18 C5*        -4.0906    2.9041   -1.1149 C.3     1  UNL1        0.0729
     19 O5*        -3.6579    3.2610   -2.4261 O.3     1  UNL1       -0.3924
     20 O3*        -5.7425   -0.1192    0.2942 O.3     1  UNL1       -0.3890
     21 F           1.4202    2.1333   -0.8307 F       1  UNL1       -0.1983
     22 H          -1.1677    1.9009   -0.8443 H       1  UNL1        0.0842
     23 H2*1       -2.9888    1.3188    1.4170 H       1  UNL1        0.0335
     24 H2*2       -3.6913   -0.2743    1.7660 H       1  UNL1        0.0335
     25 H5*1       -4.9814    3.4948   -0.8832 H       1  UNL1        0.0584
     26 H5*2       -3.2917    3.1864   -0.4228 H       1  UNL1        0.0584
     27 H5*        -2.9429    2.6401   -2.6630 H       1  UNL1        0.2095
     28 H3*        -6.5713    0.2047   -0.1030 H       1  UNL1        0.2099
@<TRIPOS>BOND
     1     1     9   ar
     2     1     2   ar
     3     1    22    1
     4     2     3   ar
     5     2    21    1
     6     3     4    2
     7     3     5   ar
     8     5     6    1
     9     5     7   ar
    10     7     8    2
    11     7     9   ar
    12     9    10    1
    13    10    11    1
    14    10    17    1
    15    10    12    1
    16    12    13    1
    17    12    23    1
    18    12    24    1
    19    13    14    1
    20    13    15    1
    21    13    20    1
    22    15    16    1
    23    15    17    1
    24    15    18    1
    25    18    19    1
    26    18    25    1
    27    18    26    1
    28    19    27    1
    29    20    28    1
