@<TRIPOS>MOLECULE
ZINC00527386
 45 48 0 0 0
SMALL
GASTEIGER

@<TRIPOS>ATOM
      1 C          -1.0808    0.5632    1.5345 C.ar    1  UNL1       -0.0556
      2 C           0.3121    0.6274    1.6986 C.ar    1  UNL1       -0.0262
      3 C           1.1469    0.5155    0.5979 C.ar    1  UNL1        0.1234
      4 C           0.6192    0.3083   -0.6634 C.ar    1  UNL1       -0.0262
      5 C          -0.7689    0.2411   -0.8253 C.ar    1  UNL1       -0.0556
      6 C          -1.6580    0.4282    0.2584 C.ar    1  UNL1       -0.0434
      7 C          -3.1793    0.4353   -0.0091 C.3     1  UNL1       -0.0003
      8 H          -3.4239   -0.6007   -0.2787 H       1  UNL1        0.0356
      9 C          -3.5184    1.3459   -1.2183 C.3     1  UNL1       -0.0052
     10 C          -3.3298    2.8222   -0.8966 C.3     1  UNL1       -0.0331
     11 N          -4.1381    3.1966    0.3028 N.4     1  UNL1        0.2273
     12 C          -3.9158    2.3418    1.5098 C.3     1  UNL1       -0.0271
     13 C          -4.1034    0.8534    1.1826 C.3     1  UNL1        0.0401
     14 H          -3.8279    0.2565    2.0613 H       1  UNL1        0.0392
     15 C          -5.6150    0.5691    0.9319 C.3     1  UNL1        0.0978
     16 O          -5.8361   -0.8148    0.6796 O.3     1  UNL1       -0.4913
     17 C          -7.0859   -1.1775    0.2331 C.ar    1  UNL1        0.1242
     18 C          -7.2028   -2.5330   -0.1395 C.ar    1  UNL1       -0.0162
     19 C          -8.3961   -3.0449   -0.6658 C.ar    1  UNL1       -0.0127
     20 C          -9.4621   -2.1840   -0.7883 C.ar    1  UNL1        0.1665
     21 C          -9.3676   -0.8721   -0.3980 C.ar    1  UNL1        0.1697
     22 C          -8.1991   -0.3355    0.1170 C.ar    1  UNL1        0.0256
     23 O         -10.5370   -0.1948   -0.5842 O.3     1  UNL1       -0.4525
     24 C         -11.3946   -1.2590   -1.0581 C.3     1  UNL1        0.2332
     25 O         -10.6894   -2.4965   -1.2808 O.3     1  UNL1       -0.4526
     26 F           2.4736    0.6046    0.7571 F       1  UNL1       -0.2055
     27 H          -1.6819    0.6222    2.4370 H       1  UNL1        0.0621
     28 H           0.7544    0.7539    2.6839 H       1  UNL1        0.0646
     29 H           1.2874    0.1890   -1.5124 H       1  UNL1        0.0646
     30 H          -1.1345    0.0279   -1.8278 H       1  UNL1        0.0621
     31 H          -2.9221    1.0993   -2.1016 H       1  UNL1        0.0323
     32 H          -4.5537    1.1699   -1.5323 H       1  UNL1        0.0323
     33 H          -2.2885    3.0794   -0.6813 H       1  UNL1        0.0814
     34 H          -3.6869    3.4495   -1.7189 H       1  UNL1        0.0814
     35 H          -5.1351    3.2248    0.0504 H       1  UNL1        0.2013
     36 H          -4.6247    2.6846    2.2708 H       1  UNL1        0.0818
     37 H          -2.9081    2.5714    1.8663 H       1  UNL1        0.0818
     38 H          -6.1849    0.8631    1.8226 H       1  UNL1        0.0701
     39 H          -5.9730    1.1636    0.0851 H       1  UNL1        0.0701
     40 H          -6.3523   -3.2001   -0.0192 H       1  UNL1        0.0655
     41 H          -8.4836   -4.0842   -0.9632 H       1  UNL1        0.0656
     42 H          -8.1964    0.7037    0.4145 H       1  UNL1        0.0692
     43 H         -12.1801   -1.4362   -0.3126 H       1  UNL1        0.1166
     44 H         -11.8691   -0.9430   -1.9953 H       1  UNL1        0.1166
     45 H          -3.9037    4.1700    0.5486 H       1  UNL1        0.2013
@<TRIPOS>UNITY_ATOM_ATTR
11 1
charge 1
@<TRIPOS>BOND
     1     1     6   ar
     2     1     2   ar
     3     1    27    1
     4     2     3   ar
     5     2    28    1
     6     3     4   ar
     7     3    26    1
     8     4     5   ar
     9     4    29    1
    10     5     6   ar
    11     5    30    1
    12     6     7    1
    13     7     8    1
    14     7    13    1
    15     7     9    1
    16     9    10    1
    17     9    31    1
    18     9    32    1
    19    10    11    1
    20    10    33    1
    21    10    34    1
    22    11    12    1
    23    11    35    1
    24    11    45    1
    25    12    13    1
    26    12    36    1
    27    12    37    1
    28    15    16    1
    29    15    38    1
    30    15    39    1
    31    16    17    1
    32    17    22   ar
    33    17    18   ar
    34    18    19   ar
    35    18    40    1
    36    19    20   ar
    37    19    41    1
    38    20    25    1
    39    20    21   ar
    40    21    22   ar
    41    21    23    1
    42    22    42    1
    43    23    24    1
    44    24    25    1
    45    24    43    1
    46    24    44    1
    47    13    15    1
    48    13    14    1
