@<TRIPOS>MOLECULE
ZINC00607971
 40 42 0 0 0
SMALL
GASTEIGER

@<TRIPOS>ATOM
      1 C           1.4371   -7.4159   -0.7358 C.ar    1  UNL1       -0.0430
      2 C           1.6777   -6.0435   -0.6629 C.ar    1  UNL1       -0.0536
      3 C           0.8464   -5.1386   -1.3423 C.ar    1  UNL1       -0.0035
      4 C          -0.2853   -5.6338   -2.0136 C.ar    1  UNL1        0.0477
      5 C          -0.5210   -7.0071   -2.0942 C.ar    1  UNL1       -0.0247
      6 C           0.3624   -7.8917   -1.4829 C.ar    1  UNL1        0.0424
      7 CL          0.1447   -9.5866   -1.6756 Cl      1  UNL1       -0.0835
      8 CL         -1.4302   -4.5714   -2.7583 Cl      1  UNL1       -0.0831
      9 C           1.2238   -3.6848   -1.3829 C.3     1  UNL1        0.0749
     10 O           1.7965   -3.3814   -2.6684 O.3     1  UNL1       -0.3657
     11 C           2.2305   -2.0200   -2.8087 C.3     1  UNL1        0.1014
     12 H           2.8474   -1.7903   -1.9259 H       1  UNL1        0.0663
     13 C           1.0290   -1.0402   -2.7477 C.3     1  UNL1        0.0480
     14 N           1.3790    0.3924   -2.7489 N.pl3   1  UNL1       -0.2949
     15 C           1.9229    1.0800   -1.6715 C.2     1  UNL1        0.0135
     16 C           1.8371    2.4135   -1.9918 C.2     1  UNL1        0.0167
     17 N           1.3127    2.4770   -3.2583 N.2     1  UNL1       -0.3542
     18 C           1.0562    1.2479   -3.7357 C.2     1  UNL1        0.0640
     19 C           3.1639   -1.8657   -4.0167 C.ar    1  UNL1        0.0010
     20 C           4.5554   -1.9833   -3.7781 C.ar    1  UNL1       -0.0533
     21 C           5.4987   -1.6846   -4.7664 C.ar    1  UNL1       -0.0430
     22 C           5.0762   -1.2609   -6.0214 C.ar    1  UNL1        0.0424
     23 C           3.7170   -1.2134   -6.3173 C.ar    1  UNL1       -0.0247
     24 C           2.7777   -1.5601   -5.3366 C.ar    1  UNL1        0.0480
     25 CL          1.1444   -1.6175   -5.8786 Cl      1  UNL1       -0.0831
     26 CL          6.2258   -0.7940   -7.2078 Cl      1  UNL1       -0.0835
     27 H           2.1070   -8.1093   -0.2323 H       1  UNL1        0.0632
     28 H           2.5345   -5.6910   -0.0920 H       1  UNL1        0.0622
     29 H          -1.3756   -7.3873   -2.6479 H       1  UNL1        0.0647
     30 H           0.3286   -3.0861   -1.1919 H       1  UNL1        0.0611
     31 H           1.9444   -3.4462   -0.5913 H       1  UNL1        0.0611
     32 H           0.2805   -1.2399   -3.5166 H       1  UNL1        0.0497
     33 H           0.4782   -1.1807   -1.8109 H       1  UNL1        0.0497
     34 H           2.2353    0.5531   -0.7994 H       1  UNL1        0.0798
     35 H           2.0772    3.3239   -1.4739 H       1  UNL1        0.0820
     36 H           0.5977    1.0183   -4.6867 H       1  UNL1        0.0982
     37 H           4.9253   -2.3009   -2.8037 H       1  UNL1        0.0622
     38 H           6.5658   -1.7719   -4.5509 H       1  UNL1        0.0632
     39 H           3.4022   -0.9241   -7.3085 H       1  UNL1        0.0647
     40 H           1.1180    3.3312   -3.7724 H       1  UNL1        0.1660
@<TRIPOS>BOND
     1     1     6   ar
     2     1     2   ar
     3     1    27    1
     4     2     3   ar
     5     2    28    1
     6     3     4   ar
     7     3     9    1
     8     4     5   ar
     9     4     8    1
    10     5     6   ar
    11     5    29    1
    12     6     7    1
    13     9    10    1
    14     9    30    1
    15     9    31    1
    16    11    13    1
    17    11    19    1
    18    13    14    1
    19    13    32    1
    20    13    33    1
    21    14    18    1
    22    14    15    1
    23    15    16    2
    24    15    34    1
    25    16    17    1
    26    16    35    1
    27    17    18    2
    28    17    40    1
    29    18    36    1
    30    19    24   ar
    31    19    20   ar
    32    20    21   ar
    33    20    37    1
    34    21    22   ar
    35    21    38    1
    36    22    23   ar
    37    22    26    1
    38    23    24   ar
    39    23    39    1
    40    24    25    1
    41    11    12    1
    42    11    10    1
