@<TRIPOS>MOLECULE
ZINC00057146
 32 33 0 0 0
SMALL
GASTEIGER

@<TRIPOS>ATOM
      1 C           1.0789   -0.0037    0.0654 C.3     1  UNL1        0.0181
      2 N           0.6244    1.2930    0.5315 N.ar    1  UNL1       -0.2796
      3 C           1.2301    2.4425    0.0891 C.ar    1  UNL1        0.1678
      4 C           0.8219    3.6799    0.4986 C.ar    1  UNL1        0.1515
      5 C          -0.2580    3.8652    1.4102 C.ar    1  UNL1        0.2822
      6 O          -0.6122    4.9682    1.8151 O.2     1  UNL1       -0.2652
      7 N          -0.8725    2.6702    1.7890 N.ar    1  UNL1       -0.2622
      8 C          -0.4844    1.3800    1.3768 C.ar    1  UNL1        0.3331
      9 O          -1.0962    0.3768    1.7417 O.2     1  UNL1       -0.2462
     10 C          -2.0130    2.7982    2.6742 C.3     1  UNL1        0.0196
     11 N           1.6366    4.5579   -0.1607 N.ar    1  UNL1       -0.3220
     12 C           2.5020    3.8055   -0.9170 C.ar    1  UNL1        0.0990
     13 N           2.2687    2.5159   -0.7863 N.ar    1  UNL1       -0.2177
     14 C           1.6042    6.0029   -0.1238 C.3     1  UNL1        0.0530
     15 C           1.2990    6.6537   -1.4760 C.3     1  UNL1        0.0961
     16 H           2.0893    6.4204   -2.2003 H       1  UNL1        0.0634
     17 C          -0.0598    6.2269   -2.0413 C.3     1  UNL1        0.0718
     18 O          -0.2603    6.8583   -3.3053 O.3     1  UNL1       -0.3924
     19 O           1.3078    8.0799   -1.3085 O.3     1  UNL1       -0.3878
     20 H           0.6886   -0.1703   -0.9425 H       1  UNL1        0.0458
     21 H           0.7264   -0.8061    0.7179 H       1  UNL1        0.0458
     22 H           2.1743   -0.0320    0.0474 H       1  UNL1        0.0458
     23 H          -1.6994    3.3186    3.5864 H       1  UNL1        0.0458
     24 H          -2.7785    3.4054    2.1797 H       1  UNL1        0.0458
     25 H          -2.4497    1.8343    2.9500 H       1  UNL1        0.0458
     26 H           3.2645    4.2438   -1.5490 H       1  UNL1        0.1029
     27 H           0.8769    6.3392    0.6199 H       1  UNL1        0.0518
     28 H           2.5797    6.3374    0.2463 H       1  UNL1        0.0518
     29 H          -0.1018    5.1465   -2.2029 H       1  UNL1        0.0583
     30 H          -0.8821    6.5159   -1.3786 H       1  UNL1        0.0583
     31 H          -0.4962    7.7852   -3.1275 H       1  UNL1        0.2095
     32 H           1.2979    8.4682   -2.2020 H       1  UNL1        0.2100
@<TRIPOS>BOND
     1     1     2    1
     2     1    20    1
     3     1    21    1
     4     1    22    1
     5     2     8   ar
     6     2     3   ar
     7     3    13   ar
     8     3     4   ar
     9     4     5   ar
    10     4    11   ar
    11     5     6    2
    12     5     7   ar
    13     7     8   ar
    14     7    10    1
    15     8     9    2
    16    10    23    1
    17    10    24    1
    18    10    25    1
    19    11    12   ar
    20    11    14    1
    21    12    13   ar
    22    12    26    1
    23    14    15    1
    24    14    27    1
    25    14    28    1
    26    15    16    1
    27    15    17    1
    28    15    19    1
    29    17    18    1
    30    17    29    1
    31    17    30    1
    32    18    31    1
    33    19    32    1
