@<TRIPOS>MOLECULE
ZINC03831006
 31 31 0 0 0
SMALL
GASTEIGER

@<TRIPOS>ATOM
      1 C          -1.5449    0.3429   -0.1925 C.3     1  UNL1       -0.0529
      2 C          -0.5934    1.4514    0.2414 C.3     1  UNL1       -0.0514
      3 C           0.8363    1.1779   -0.2333 C.3     1  UNL1       -0.0345
      4 C           1.3608   -0.2003    0.2051 C.3     1  UNL1        0.0246
      5 C           0.3702   -1.3122   -0.1706 C.3     1  UNL1       -0.0345
      6 C          -1.0610   -1.0223    0.2863 C.3     1  UNL1       -0.0514
      7 N           1.6366   -0.1755    1.6385 N.am    1  UNL1       -0.2950
      8 C           2.5869   -0.9457    2.2783 C.2     1  UNL1        0.3244
      9 O           3.2661   -1.7764    1.6766 O.2     1  UNL1       -0.2508
     10 N           2.7340   -0.6894    3.6493 N.am    1  UNL1       -0.1401
     11 C           3.7053   -1.4505    4.4375 C.3     1  UNL1        0.0557
     12 C           5.1703   -1.1755    4.0966 C.3     1  UNL1        0.0405
     13 CL          5.6027    0.5440    4.2600 Cl      1  UNL1       -0.1237
     14 N           1.9603    0.3199    4.2492 N.2     1  UNL1        0.0527
     15 O           2.1155    0.4419    5.4667 O.2     1  UNL1       -0.1256
     16 H          -1.6284    0.3414   -1.2864 H       1  UNL1        0.0265
     17 H          -2.5482    0.5399    0.2025 H       1  UNL1        0.0265
     18 H          -0.9373    2.4110   -0.1607 H       1  UNL1        0.0266
     19 H          -0.6177    1.5456    1.3339 H       1  UNL1        0.0266
     20 H           1.4956    1.9697    0.1430 H       1  UNL1        0.0283
     21 H           0.8588    1.2383   -1.3284 H       1  UNL1        0.0283
     22 H           2.3116   -0.3959   -0.3050 H       1  UNL1        0.0499
     23 H           0.6946   -2.2742    0.2426 H       1  UNL1        0.0283
     24 H           0.3660   -1.4224   -1.2631 H       1  UNL1        0.0283
     25 H          -1.1155   -1.0665    1.3806 H       1  UNL1        0.0266
     26 H          -1.7323   -1.8001   -0.0959 H       1  UNL1        0.0266
     27 H           0.9430    0.2684    2.2206 H       1  UNL1        0.1506
     28 H           3.5518   -1.2941    5.5112 H       1  UNL1        0.0498
     29 H           3.5041   -2.5136    4.2580 H       1  UNL1        0.0498
     30 H           5.8147   -1.7317    4.7858 H       1  UNL1        0.0446
     31 H           5.4221   -1.4881    3.0805 H       1  UNL1        0.0446
@<TRIPOS>BOND
     1     1     6    1
     2     1     2    1
     3     1    16    1
     4     1    17    1
     5     2     3    1
     6     2    18    1
     7     2    19    1
     8     3     4    1
     9     3    20    1
    10     3    21    1
    11     4     5    1
    12     4     7    1
    13     4    22    1
    14     5     6    1
    15     5    23    1
    16     5    24    1
    17     6    25    1
    18     6    26    1
    19     7     8   am
    20     7    27    1
    21     8     9    2
    22     8    10   am
    23    10    11    1
    24    10    14    1
    25    11    12    1
    26    11    28    1
    27    11    29    1
    28    12    13    1
    29    12    30    1
    30    12    31    1
    31    14    15    2
