@<TRIPOS>MOLECULE
ZINC00601254
 40 42 0 0 0
SMALL
GASTEIGER

@<TRIPOS>ATOM
      1 C           0.2493    1.7702    1.9480 C.3     1  UNL1       -0.0379
      2 C           0.1418    1.2636    0.5315 C.ar    1  UNL1       -0.0290
      3 C          -0.5563    0.0335    0.4077 C.ar    1  UNL1       -0.0571
      4 C          -0.7056   -0.5650   -0.8350 C.ar    1  UNL1       -0.0614
      5 C          -0.1633    0.0672   -1.9494 C.ar    1  UNL1       -0.0600
      6 C           0.5469    1.2931   -1.8321 C.ar    1  UNL1       -0.0399
      7 C           0.7592    1.9015   -0.6078 C.ar    1  UNL1        0.0413
      8 N           1.8266    2.8571   -0.3647 N.am    1  UNL1       -0.2485
      9 C           2.9242    2.1897    0.2969 C.3     1  UNL1        0.0921
     10 H           2.6050    1.3157    0.8741 H       1  UNL1        0.0709
     11 N           3.7491    1.5349   -0.8088 N.pl3   1  UNL1       -0.3250
     12 C           3.7699    2.1885   -2.0685 C.ar    1  UNL1        0.0422
     13 C           4.0625    1.6570   -3.3269 C.ar    1  UNL1       -0.0198
     14 C           4.5286    2.5209   -4.3521 C.ar    1  UNL1        0.0690
     15 C           4.9173    3.8150   -4.0063 C.ar    1  UNL1        0.1241
     16 C           4.3758    4.3566   -2.8334 C.ar    1  UNL1       -0.0200
     17 C           3.5753    3.5354   -2.0388 C.ar    1  UNL1        0.0600
     18 C           2.4342    3.9054   -1.1453 C.2     1  UNL1        0.2541
     19 O           2.3115    5.1069   -0.9105 O.2     1  UNL1       -0.2695
     20 S           6.0135    4.8040   -5.0069 S.O2    1  UNL1        0.0574
     21 O           6.0406    4.3580   -6.3640 O.2     1  UNL1       -0.1532
     22 O           5.7389    6.2025   -4.6965 O.2     1  UNL1       -0.1532
     23 N           7.5159    4.4739   -4.3945 N.3     1  UNL1       -0.2035
     24 CL          4.4071    1.9587   -5.9781 Cl      1  UNL1       -0.0815
     25 C           3.4121    3.1720    1.3735 C.3     1  UNL1       -0.0294
     26 H          -0.6883    1.6153    2.4805 H       1  UNL1        0.0278
     27 H           1.0310    1.2143    2.4821 H       1  UNL1        0.0278
     28 H           0.4521    2.8438    1.9890 H       1  UNL1        0.0278
     29 H          -0.9711   -0.4398    1.2942 H       1  UNL1        0.0621
     30 H          -1.2087   -1.5318   -0.9223 H       1  UNL1        0.0618
     31 H          -0.2409   -0.4284   -2.9149 H       1  UNL1        0.0618
     32 H           1.0311    1.6661   -2.7333 H       1  UNL1        0.0636
     33 H           3.4275    0.5762   -0.9427 H       1  UNL1        0.1479
     34 H           3.8390    0.6185   -3.5650 H       1  UNL1        0.0651
     35 H           4.5796    5.3799   -2.5482 H       1  UNL1        0.0646
     36 H           8.0134    3.8087   -4.9782 H       1  UNL1        0.1442
     37 H           8.0452    5.3499   -4.2883 H       1  UNL1        0.1442
     38 H           2.9715    4.1797    1.2695 H       1  UNL1        0.0264
     39 H           2.9505    2.8736    2.3293 H       1  UNL1        0.0264
     40 H           4.4805    3.2814    1.5180 H       1  UNL1        0.0264
@<TRIPOS>BOND
     1     1     2    1
     2     1    26    1
     3     1    27    1
     4     1    28    1
     5     2     7   ar
     6     2     3   ar
     7     3     4   ar
     8     3    29    1
     9     4     5   ar
    10     4    30    1
    11     5     6   ar
    12     5    31    1
    13     6     7   ar
    14     6    32    1
    15     7     8    1
    16     8    18   am
    17     8     9    1
    18     9    10    1
    19     9    11    1
    20     9    25    1
    21    11    12    1
    22    11    33    1
    23    12    17   ar
    24    12    13   ar
    25    13    14   ar
    26    13    34    1
    27    14    15   ar
    28    14    24    1
    29    15    16   ar
    30    15    20    1
    31    16    17   ar
    32    16    35    1
    33    17    18    1
    34    18    19    2
    35    20    21    2
    36    20    22    2
    37    20    23    1
    38    23    36    1
    39    23    37    1
    40    25    38    1
    41    25    39    1
    42    25    40    1
