@<TRIPOS>MOLECULE
ZINC01530967
 58 59 0 0 0
SMALL
GASTEIGER

@<TRIPOS>ATOM
      1 C           5.3281    7.2524   -5.7205 C.3     1  UNL1       -0.0619
      2 C           4.4117    6.1144   -6.1620 C.3     1  UNL1       -0.0173
      3 C           4.3349    4.9202   -5.1678 C.3     1  UNL1        0.1165
      4 H           4.0820    5.3552   -4.2046 H       1  UNL1        0.0746
      5 C           3.2389    3.8138   -5.5456 C.3     1  UNL1        0.0626
      6 C           3.1495    2.6007   -4.4992 C.3     1  UNL1        0.0071
      7 C           2.6284    2.7773   -3.0386 C.3     1  UNL1       -0.0230
      8 H           1.6068    3.1683   -3.0135 H       1  UNL1        0.0849
      9 C           3.5712    3.6247   -2.1836 C.3     1  UNL1       -0.0216
     10 C           2.0550    1.4374   -0.8936 C.3     1  UNL1       -0.0431
     11 C           1.7122    0.3340   -3.0633 C.3     1  UNL1       -0.0431
     12 C           1.7838    4.3978   -5.6021 C.ar    1  UNL1       -0.0332
     13 C           1.3808    5.4891   -4.8073 C.ar    1  UNL1       -0.0576
     14 C           0.0956    6.0359   -4.9137 C.ar    1  UNL1       -0.0615
     15 C          -0.8222    5.5069   -5.8142 C.ar    1  UNL1       -0.0617
     16 C          -0.4671    4.4087   -6.5860 C.ar    1  UNL1       -0.0615
     17 C           0.8054    3.8419   -6.4566 C.ar    1  UNL1       -0.0576
     18 C           3.7054    3.2199   -6.9453 C.ar    1  UNL1       -0.0332
     19 C           3.3576    3.8495   -8.1617 C.ar    1  UNL1       -0.0576
     20 C           3.7717    3.3456   -9.3988 C.ar    1  UNL1       -0.0615
     21 C           4.5573    2.2042   -9.4593 C.ar    1  UNL1       -0.0617
     22 C           4.9540    1.5842   -8.2813 C.ar    1  UNL1       -0.0615
     23 C           4.5467    2.0913   -7.0425 C.ar    1  UNL1       -0.0576
     24 O           5.6580    4.3257   -5.0915 O.3     1  UNL1       -0.4603
     25 C           6.5061    4.8145   -4.1435 C.2     1  UNL1        0.3042
     26 O           6.1566    5.4139   -3.1367 O.2     1  UNL1       -0.2512
     27 C           7.9319    4.6133   -4.5630 C.3     1  UNL1        0.0332
     28 H           5.0973    7.5875   -4.7056 H       1  UNL1        0.0231
     29 H           5.2088    8.1057   -6.3960 H       1  UNL1        0.0231
     30 H           6.3801    6.9574   -5.7664 H       1  UNL1        0.0231
     31 H           3.4164    6.5391   -6.3216 H       1  UNL1        0.0298
     32 H           4.7955    5.7795   -7.1289 H       1  UNL1        0.0298
     33 H           2.4873    1.8704   -4.9833 H       1  UNL1        0.0333
     34 H           4.1267    2.1163   -4.4083 H       1  UNL1        0.0333
     35 H           3.2741    3.6659   -1.1338 H       1  UNL1        0.0284
     36 H           4.5947    3.2357   -2.2262 H       1  UNL1        0.0284
     37 H           3.5676    4.6648   -2.4942 H       1  UNL1        0.0284
     38 H           1.1462    2.0435   -0.8651 H       1  UNL1        0.0777
     39 H           1.8551    0.4234   -0.5332 H       1  UNL1        0.0777
     40 H           2.8491    1.8583   -0.2744 H       1  UNL1        0.0777
     41 H           2.2047    0.0846   -4.0023 H       1  UNL1        0.0777
     42 H           1.6751   -0.5782   -2.4521 H       1  UNL1        0.0777
     43 H           0.7095    0.7380   -3.2138 H       1  UNL1        0.0777
     44 H           2.0551    5.9724   -4.1055 H       1  UNL1        0.0621
     45 H          -0.1820    6.8988   -4.3112 H       1  UNL1        0.0618
     46 H          -1.8071    5.9563   -5.9223 H       1  UNL1        0.0618
     47 H          -1.1729    4.0048   -7.3095 H       1  UNL1        0.0618
     48 H           1.0324    2.9871   -7.0932 H       1  UNL1        0.0621
     49 H           2.7576    4.7582   -8.1705 H       1  UNL1        0.0621
     50 H           3.4714    3.8453  -10.3168 H       1  UNL1        0.0618
     51 H           4.8759    1.8072  -10.4208 H       1  UNL1        0.0618
     52 H           5.6029    0.7101   -8.3244 H       1  UNL1        0.0618
     53 H           4.9372    1.5840   -6.1676 H       1  UNL1        0.0621
     54 H           8.0627    3.6248   -5.0077 H       1  UNL1        0.0342
     55 H           8.2090    5.3870   -5.2849 H       1  UNL1        0.0342
     56 H           8.5857    4.6881   -3.6902 H       1  UNL1        0.0342
     57 N           2.5459    1.3675   -2.3298 N.4     1  UNL1        0.2329
     58 H           3.5010    0.9890   -2.2923 H       1  UNL1        0.2030
@<TRIPOS>UNITY_ATOM_ATTR
57 1
charge 1
@<TRIPOS>BOND
     1     1     2    1
     2     1    28    1
     3     1    29    1
     4     1    30    1
     5     2     3    1
     6     2    31    1
     7     2    32    1
     8     3     4    1
     9     3     5    1
    10     3    24    1
    11     5     6    1
    12     5    12    1
    13     5    18    1
    14     6    33    1
    15     6    34    1
    16     7     9    1
    17     7    57    1
    18     9    35    1
    19     9    36    1
    20     9    37    1
    21    10    38    1
    22    10    39    1
    23    10    40    1
    24    10    57    1
    25    11    41    1
    26    11    42    1
    27    11    43    1
    28    11    57    1
    29    12    17   ar
    30    12    13   ar
    31    13    14   ar
    32    13    44    1
    33    14    15   ar
    34    14    45    1
    35    15    16   ar
    36    15    46    1
    37    16    17   ar
    38    16    47    1
    39    17    48    1
    40    18    23   ar
    41    18    19   ar
    42    19    20   ar
    43    19    49    1
    44    20    21   ar
    45    20    50    1
    46    21    22   ar
    47    21    51    1
    48    22    23   ar
    49    22    52    1
    50    23    53    1
    51    24    25    1
    52    25    26    2
    53    25    27    1
    54    27    54    1
    55    27    55    1
    56    27    56    1
    57    57    58    1
    58     7     8    1
    59     7     6    1
