@<TRIPOS>MOLECULE
ZINC00538283
 56 57 0 0 0
SMALL
GASTEIGER

@<TRIPOS>ATOM
      1 C          -1.4011    3.3723    1.0568 C.3     1  UNL1       -0.0570
      2 C          -0.0590    3.6329    0.3871 C.3     1  UNL1        0.0217
      3 C           0.9969    2.5440    0.5516 C.2     1  UNL1        0.2205
      4 O           0.6895    1.5174    1.1624 O.2     1  UNL1       -0.2752
      5 N           2.2703    2.7081   -0.0522 N.am    1  UNL1       -0.2544
      6 C           3.2484    1.6635    0.2605 C.ar    1  UNL1        0.0374
      7 C           4.5294    1.9546    0.7585 C.ar    1  UNL1       -0.0402
      8 C           5.5080    0.9577    0.8684 C.ar    1  UNL1       -0.0600
      9 C           5.2178   -0.3513    0.4997 C.ar    1  UNL1       -0.0616
     10 C           3.9405   -0.6692    0.0492 C.ar    1  UNL1       -0.0600
     11 C           2.9616    0.3261   -0.0576 C.ar    1  UNL1       -0.0402
     12 C           2.8263    3.9421   -0.7814 C.3     1  UNL1        0.1480
     13 C           1.8422    4.7709   -1.6439 C.3     1  UNL1        0.0199
     14 C           1.1638    3.9694   -2.7358 C.3     1  UNL1       -0.0294
     15 C           3.2775    2.5949   -2.8946 C.3     1  UNL1       -0.0294
     16 C           3.8902    3.5318   -1.8526 C.3     1  UNL1        0.0199
     17 C           1.4276    2.2748   -4.5567 C.3     1  UNL1       -0.0216
     18 C           0.4092    2.9412   -5.4786 C.3     1  UNL1        0.0849
     19 C           1.0982    3.9557   -6.3422 C.2     1  UNL1        0.3119
     20 O           2.1045    4.5539   -5.9739 O.2     1  UNL1       -0.2506
     21 O           0.4389    4.1309   -7.5078 O.3     1  UNL1       -0.4678
     22 C           1.0419    5.0828   -8.3881 C.3     1  UNL1        0.0817
     23 C           3.3035    4.9214    0.3079 C.2     1  UNL1        0.3315
     24 O           2.6412    5.1968    1.3044 O.2     1  UNL1       -0.2484
     25 O           4.4903    5.5106    0.0060 O.3     1  UNL1       -0.4664
     26 C           4.9004    6.4882    0.9719 C.3     1  UNL1        0.0817
     27 H          -1.6247    2.3097    1.1798 H       1  UNL1        0.0234
     28 H          -2.2014    3.8118    0.4466 H       1  UNL1        0.0234
     29 H          -1.4392    3.8579    2.0348 H       1  UNL1        0.0234
     30 H          -0.3031    3.7039   -0.6674 H       1  UNL1        0.0356
     31 H           0.3226    4.5888    0.7458 H       1  UNL1        0.0356
     32 H           4.8069    2.9513    1.0854 H       1  UNL1        0.0636
     33 H           6.4986    1.2027    1.2484 H       1  UNL1        0.0618
     34 H           5.9781   -1.1256    0.5852 H       1  UNL1        0.0618
     35 H           3.7045   -1.6975   -0.2182 H       1  UNL1        0.0618
     36 H           1.9783    0.0403   -0.4235 H       1  UNL1        0.0636
     37 H           1.1014    5.3104   -1.0500 H       1  UNL1        0.0343
     38 H           2.3988    5.5917   -2.1241 H       1  UNL1        0.0343
     39 H           0.5008    3.1941   -2.3528 H       1  UNL1        0.0815
     40 H           0.5830    4.6536   -3.3629 H       1  UNL1        0.0815
     41 H           4.0199    2.3173   -3.6494 H       1  UNL1        0.0815
     42 H           2.8725    1.6779   -2.4596 H       1  UNL1        0.0815
     43 H           4.2837    4.4220   -2.3634 H       1  UNL1        0.0343
     44 H           4.7788    3.0650   -1.4236 H       1  UNL1        0.0343
     45 H           2.2096    1.7780   -5.1409 H       1  UNL1        0.0820
     46 H           0.9367    1.5323   -3.9154 H       1  UNL1        0.0820
     47 H          -0.0438    2.1719   -6.1135 H       1  UNL1        0.0431
     48 H          -0.3973    3.4325   -4.9250 H       1  UNL1        0.0431
     49 H           1.0359    6.0777   -7.9324 H       1  UNL1        0.0661
     50 H           2.0628    4.7757   -8.6357 H       1  UNL1        0.0661
     51 H           0.4531    5.1133   -9.3083 H       1  UNL1        0.0661
     52 H           4.1503    7.2831    1.0470 H       1  UNL1        0.0661
     53 H           5.0642    6.0225    1.9511 H       1  UNL1        0.0661
     54 H           5.8410    6.9312    0.6351 H       1  UNL1        0.0661
     55 N           2.1403    3.2697   -3.6268 N.4     1  UNL1        0.2358
     56 H           2.5647    3.9818   -4.2584 H       1  UNL1        0.2033
@<TRIPOS>UNITY_ATOM_ATTR
55 1
charge 1
@<TRIPOS>BOND
     1     1     2    1
     2     1    27    1
     3     1    28    1
     4     1    29    1
     5     2     3    1
     6     2    30    1
     7     2    31    1
     8     3     4    2
     9     3     5   am
    10     5     6    1
    11     5    12    1
    12     6    11   ar
    13     6     7   ar
    14     7     8   ar
    15     7    32    1
    16     8     9   ar
    17     8    33    1
    18     9    10   ar
    19     9    34    1
    20    10    11   ar
    21    10    35    1
    22    11    36    1
    23    12    16    1
    24    12    13    1
    25    12    23    1
    26    13    14    1
    27    13    37    1
    28    13    38    1
    29    14    39    1
    30    14    40    1
    31    14    55    1
    32    15    16    1
    33    15    41    1
    34    15    42    1
    35    15    55    1
    36    16    43    1
    37    16    44    1
    38    17    18    1
    39    17    45    1
    40    17    46    1
    41    18    19    1
    42    18    47    1
    43    18    48    1
    44    19    20    2
    45    19    21    1
    46    21    22    1
    47    22    49    1
    48    22    50    1
    49    22    51    1
    50    23    24    2
    51    23    25    1
    52    25    26    1
    53    26    52    1
    54    26    53    1
    55    26    54    1
    56    55    56    1
    57    55    17    1
