@<TRIPOS>MOLECULE
ZINC01532517
 9 8 0 0 0
SMALL
GASTEIGER

@<TRIPOS>ATOM
      1 C           1.0740    0.0104    0.0525 C.3     1  UNL1        0.0053
      2 C           0.5550    1.3159   -0.4731 C.2     1  UNL1        0.2403
      3 O          -0.1549    1.3961   -1.4776 O.2     1  UNL1       -0.2853
      4 C           0.9262    2.6013    0.2743 C.2     1  UNL1        0.4209
      5 O           1.6604    2.4330    1.3015 O.co2   1  UNL1       -0.2374
      6 O           0.4870    3.7066   -0.1730 O.co2   1  UNL1       -0.2374
      7 H           0.7233   -0.8045   -0.5868 H       1  UNL1        0.0312
      8 H           0.7019   -0.1566    1.0667 H       1  UNL1        0.0312
      9 H           2.1670    0.0145    0.0449 H       1  UNL1        0.0312
@<TRIPOS>BOND
     1     1     2    1
     2     1     7    1
     3     1     8    1
     4     1     9    1
     5     2     3    2
     6     2     4    1
     7     4     5   ar
     8     4     6   ar
