@<TRIPOS>MOLECULE
ZINC03782550
 18 17 0 0 0
SMALL
GASTEIGER

@<TRIPOS>ATOM
      1 C           0.9271   -0.0749    0.1185 C.3     1  UNL1        0.0213
      2 C           0.4881    1.2176   -0.5377 C.3     1  UNL1        0.0560
      3 C           1.3032    2.2733    0.1992 C.2     1  UNL1        0.3564
      4 O           2.3948    2.5449   -0.3747 O.co2   1  UNL1       -0.2464
      5 O           0.8085    2.6660    1.2839 O.co2   1  UNL1       -0.2464
      6 C           0.3392   -1.2489   -0.6033 C.2     1  UNL1        0.1778
      7 O          -0.7175   -1.8006   -0.2794 O.2     1  UNL1       -0.2918
      8 C           1.0974   -1.7931   -1.7966 C.3     1  UNL1        0.0242
      9 N           0.3140   -2.9387   -2.3733 N.4     1  UNL1        0.2239
     10 H           0.6164   -0.1246    1.1662 H       1  UNL1        0.0349
     11 H           2.0206   -0.1885    0.1116 H       1  UNL1        0.0349
     12 H           0.7167    1.2358   -1.6099 H       1  UNL1        0.0383
     13 H          -0.5860    1.3910   -0.4203 H       1  UNL1        0.0383
     14 H           1.2101   -1.0524   -2.5874 H       1  UNL1        0.0894
     15 H           2.0578   -2.2026   -1.4757 H       1  UNL1        0.0894
     16 H          -0.5018   -2.5801   -2.8857 H       1  UNL1        0.1998
     17 H           0.8644   -3.5607   -2.9707 H       1  UNL1        0.1998
     18 H          -0.0892   -3.4705   -1.5836 H       1  UNL1        0.1998
@<TRIPOS>UNITY_ATOM_ATTR
9 1
charge 1
@<TRIPOS>BOND
     1     1     2    1
     2     1     6    1
     3     1    10    1
     4     1    11    1
     5     2     3    1
     6     2    12    1
     7     2    13    1
     8     3     4   ar
     9     3     5   ar
    10     6     7    2
    11     6     8    1
    12     8     9    1
    13     8    14    1
    14     8    15    1
    15     9    16    1
    16     9    17    1
    17     9    18    1
