@<TRIPOS>MOLECULE
ZINC00003742
 41 43 0 0 0
SMALL
GASTEIGER

@<TRIPOS>ATOM
      1 C          -1.0519    1.1735   -0.0711 C.3     1  UNL1       -0.0471
      2 C           0.4461    1.3747   -0.2449 C.3     1  UNL1        0.0205
      3 N           0.7764    1.7428   -1.6313 N.ar    1  UNL1       -0.3459
      4 C           0.7419    3.0824   -2.0053 C.ar    1  UNL1        0.0229
      5 C           1.0874    3.6038   -3.1941 C.ar    1  UNL1        0.1263
      6 C           1.5038    2.6595   -4.2418 C.ar    1  UNL1        0.2036
      7 O           1.6604    2.9409   -5.4230 O.2     1  UNL1       -0.2863
      8 C           1.6990    1.2440   -3.8298 C.ar    1  UNL1        0.0488
      9 C           1.2978    0.8039   -2.5480 C.ar    1  UNL1        0.0547
     10 C           1.4769   -0.5668   -2.2572 C.ar    1  UNL1       -0.0136
     11 C           2.1153   -1.4510   -3.1467 C.ar    1  UNL1        0.0677
     12 C           2.4924   -0.9418   -4.4037 C.ar    1  UNL1        0.1451
     13 C           2.2817    0.3770   -4.7560 C.ar    1  UNL1       -0.0118
     14 F           3.0481   -1.7636   -5.3117 F       1  UNL1       -0.2035
     15 N           2.3810   -2.7776   -2.8254 N.pl3   1  UNL1       -0.3175
     16 C           3.7671   -3.2454   -2.9915 C.3     1  UNL1        0.0525
     17 C           3.7357   -4.6729   -3.5581 C.3     1  UNL1       -0.0175
     18 N           2.8888   -5.5629   -2.6667 N.4     1  UNL1        0.2292
     19 C           1.4936   -5.0155   -2.4313 C.3     1  UNL1       -0.0175
     20 C           1.5425   -3.5574   -1.9165 C.3     1  UNL1        0.0525
     21 C           1.0760    5.1179   -3.3808 C.2     1  UNL1        0.3916
     22 O           1.9066    5.5965   -4.1986 O.co2   1  UNL1       -0.2404
     23 O           0.2862    5.7453   -2.6081 O.co2   1  UNL1       -0.2404
     24 H          -1.5799    2.1321   -0.1171 H       1  UNL1        0.0247
     25 H          -1.2606    0.7281    0.9071 H       1  UNL1        0.0247
     26 H          -1.4694    0.5200   -0.8428 H       1  UNL1        0.0247
     27 H           0.7759    2.1690    0.4367 H       1  UNL1        0.0489
     28 H           0.9859    0.4873    0.0972 H       1  UNL1        0.0489
     29 H           0.4201    3.7524   -1.2111 H       1  UNL1        0.0818
     30 H           1.1546   -0.9534   -1.2992 H       1  UNL1        0.0658
     31 H           2.5805    0.7296   -5.7385 H       1  UNL1        0.0654
     32 H           4.2620   -3.2447   -2.0125 H       1  UNL1        0.0516
     33 H           4.3753   -2.6114   -3.6445 H       1  UNL1        0.0516
     34 H           3.2814   -4.7034   -4.5542 H       1  UNL1        0.0829
     35 H           4.7340   -5.1176   -3.5917 H       1  UNL1        0.0829
     36 H           2.8200   -6.4925   -3.0972 H       1  UNL1        0.2015
     37 H           1.0101   -5.6812   -1.7110 H       1  UNL1        0.0829
     38 H           0.9749   -5.0772   -3.3940 H       1  UNL1        0.0829
     39 H           1.9602   -3.5279   -0.9028 H       1  UNL1        0.0516
     40 H           0.5161   -3.1762   -1.8747 H       1  UNL1        0.0516
     41 H           3.3639   -5.6775   -1.7635 H       1  UNL1        0.2015
@<TRIPOS>UNITY_ATOM_ATTR
18 1
charge 1
@<TRIPOS>BOND
     1     1     2    1
     2     1    24    1
     3     1    25    1
     4     1    26    1
     5     2     3    1
     6     2    27    1
     7     2    28    1
     8     3     9   ar
     9     3     4   ar
    10     4     5   ar
    11     4    29    1
    12     5     6   ar
    13     5    21    1
    14     6     7    2
    15     6     8   ar
    16     8    13   ar
    17     8     9   ar
    18     9    10   ar
    19    10    11   ar
    20    10    30    1
    21    11    12   ar
    22    11    15    1
    23    12    13   ar
    24    12    14    1
    25    13    31    1
    26    15    20    1
    27    15    16    1
    28    16    17    1
    29    16    32    1
    30    16    33    1
    31    17    18    1
    32    17    34    1
    33    17    35    1
    34    18    19    1
    35    18    36    1
    36    18    41    1
    37    19    20    1
    38    19    37    1
    39    19    38    1
    40    20    39    1
    41    20    40    1
    42    21    22   ar
    43    21    23   ar
