@<TRIPOS>MOLECULE
ZINC01530907
 38 39 0 0 0
SMALL
GASTEIGER

@<TRIPOS>ATOM
      1 C           1.0229    0.1345   -0.1216 C.3     1  UNL1        0.0110
      2 N           0.5058   -0.9170   -1.0073 N.3     1  UNL1       -0.1586
      3 C          -0.8705   -0.7635   -1.4747 C.3     1  UNL1        0.1029
      4 H          -1.0176    0.2871   -1.7546 H       1  UNL1        0.0692
      5 N          -1.0063   -1.5188   -2.7263 N.pl3   1  UNL1       -0.3250
      6 C          -0.6362   -2.8583   -2.7812 C.ar    1  UNL1        0.0565
      7 C          -1.0964   -3.6556   -3.8394 C.ar    1  UNL1       -0.0186
      8 C          -0.7153   -5.0062   -3.9625 C.ar    1  UNL1        0.0691
      9 C           0.1654   -5.5660   -3.0369 C.ar    1  UNL1        0.1252
     10 C           0.6756   -4.7787   -2.0033 C.ar    1  UNL1       -0.0057
     11 C           0.2762   -3.4380   -1.9022 C.ar    1  UNL1        0.1282
     12 S           0.9656   -2.4736   -0.6083 S.O2    1  UNL1        0.0641
     13 O           2.4070   -2.5520   -0.7132 O.2     1  UNL1       -0.1527
     14 O           0.2839   -2.8563    0.6077 O.2     1  UNL1       -0.1527
     15 S           0.7349   -7.2275   -3.1820 S.O2    1  UNL1        0.0574
     16 O           1.2432   -7.4401   -4.5135 O.2     1  UNL1       -0.1532
     17 O           1.5125   -7.5568   -2.0073 O.2     1  UNL1       -0.1532
     18 N          -0.6668   -8.1420   -3.0332 N.3     1  UNL1       -0.2035
     19 CL         -1.4065   -5.8827   -5.2828 Cl      1  UNL1       -0.0815
     20 C          -2.0072   -1.1569   -0.4862 C.3     1  UNL1        0.0273
     21 S          -2.0919   -0.1304    1.0291 S.3     1  UNL1       -0.1487
     22 C          -3.3797   -1.0606    1.9517 C.3     1  UNL1        0.0892
     23 C          -4.7847   -1.0364    1.3561 C.3     1  UNL1        0.3988
     24 F          -4.8637   -0.3325    0.2048 F       1  UNL1       -0.1698
     25 F          -5.2058   -2.2927    1.0796 F       1  UNL1       -0.1698
     26 F          -5.6693   -0.4916    2.2209 F       1  UNL1       -0.1698
     27 H           0.7840   -0.0707    0.9254 H       1  UNL1        0.0409
     28 H           0.6187    1.1158   -0.3881 H       1  UNL1        0.0409
     29 H           2.1113    0.1969   -0.2159 H       1  UNL1        0.0409
     30 H          -1.8379   -1.2722   -3.2585 H       1  UNL1        0.1477
     31 H          -1.7628   -3.2273   -4.5848 H       1  UNL1        0.0652
     32 H           1.3845   -5.1803   -1.2841 H       1  UNL1        0.0658
     33 H          -0.9884   -8.4425   -3.9540 H       1  UNL1        0.1442
     34 H          -0.4881   -8.9201   -2.3963 H       1  UNL1        0.1442
     35 H          -2.9591   -1.0370   -1.0138 H       1  UNL1        0.0408
     36 H          -1.9477   -2.2113   -0.2052 H       1  UNL1        0.0408
     37 H          -3.0379   -2.0941    2.0774 H       1  UNL1        0.0464
     38 H          -3.4124   -0.6258    2.9565 H       1  UNL1        0.0464
@<TRIPOS>BOND
     1     1     2    1
     2     1    27    1
     3     1    28    1
     4     1    29    1
     5     2    12    1
     6     2     3    1
     7     3     5    1
     8     5     6    1
     9     5    30    1
    10     6    11   ar
    11     6     7   ar
    12     7     8   ar
    13     7    31    1
    14     8     9   ar
    15     8    19    1
    16     9    10   ar
    17     9    15    1
    18    10    11   ar
    19    10    32    1
    20    11    12    1
    21    12    13    2
    22    12    14    2
    23    15    16    2
    24    15    17    2
    25    15    18    1
    26    18    33    1
    27    18    34    1
    28    20    21    1
    29    20    35    1
    30    20    36    1
    31    21    22    1
    32    22    23    1
    33    22    37    1
    34    22    38    1
    35    23    24    1
    36    23    25    1
    37    23    26    1
    38     3    20    1
    39     3     4    1
