@<TRIPOS>MOLECULE
ZINC01849548
 22 23 0 0 0
SMALL
GASTEIGER

@<TRIPOS>ATOM
      1 C           2.0668   -0.2750    0.3784 C.3     1  UNL1        0.0767
      2 C           1.0395   -1.3961    0.2415 C.3     1  UNL1        0.1071
      3 H           0.6860   -1.7229    1.2252 H       1  UNL1        0.0643
      4 C          -0.0806   -0.7890   -0.5904 C.3     1  UNL1        0.1164
      5 H          -0.0509   -1.1376   -1.6277 H       1  UNL1        0.0650
      6 C           0.1437    0.7026   -0.4849 C.3     1  UNL1        0.1287
      7 H          -0.1095    1.1991   -1.4295 H       1  UNL1        0.0662
      8 O           1.5186    0.9296   -0.1887 O.3     1  UNL1       -0.3674
      9 C          -0.8244    1.1444    0.6100 C.3     1  UNL1        0.1804
     10 H          -1.0892    2.2023    0.4895 H       1  UNL1        0.0811
     11 C          -1.9780    0.1811    0.3513 C.3     1  UNL1        0.0903
     12 O          -1.3812   -1.0686   -0.0530 O.3     1  UNL1       -0.3674
     13 O          -0.2286    0.9102    1.8879 O.2     1  UNL1       -0.3785
     14 N          -0.9055    1.5502    2.9482 N.pl3   1  UNL1       -0.0353
     15 O          -2.0220    2.0084    2.7058 O.2     1  UNL1       -0.1384
     16 O          -0.2683    1.5290    4.0008 O.co2   1  UNL1       -0.7493
     17 O           1.6050   -2.5448   -0.3919 O.3     1  UNL1       -0.3869
     18 H           3.0145   -0.4971   -0.1225 H       1  UNL1        0.0586
     19 H           2.2836   -0.0780    1.4330 H       1  UNL1        0.0586
     20 H          -2.6101   -0.0102    1.2165 H       1  UNL1        0.0599
     21 H          -2.6013    0.5298   -0.4821 H       1  UNL1        0.0599
     22 H           1.9839   -2.2729   -1.2468 H       1  UNL1        0.2100
@<TRIPOS>UNITY_ATOM_ATTR
16 1
charge -1
@<TRIPOS>BOND
     1     1     8    1
     2     1     2    1
     3     1    18    1
     4     1    19    1
     5     2     4    1
     6     4     5    1
     7     4    12    1
     8     4     6    1
     9     6     7    1
    10     6     8    1
    11     6     9    1
    12     9    11    1
    13    11    12    1
    14    11    20    1
    15    11    21    1
    16    13    14    1
    17    14    15    2
    18    14    16    1
    19    17    22    1
    20     2    17    1
    21     2     3    1
    22     9    13    1
    23     9    10    1
