@<TRIPOS>MOLECULE
ZINC00896703
 28 29 0 0 0
SMALL
GASTEIGER

@<TRIPOS>ATOM
      1 C           1.0059   -0.0403    0.1871 C.3     1  UNL1       -0.0467
      2 C           2.5361   -0.0001    0.1371 C.3     1  UNL1        0.0778
      3 C           3.0823    1.1013    1.0688 C.3     1  UNL1        0.0423
      4 C           4.3554    0.5102    1.5949 C.2     1  UNL1        0.2229
      5 O           5.2676    1.1501    2.0927 O.2     1  UNL1       -0.2752
      6 N           4.2431   -0.8467    1.5187 N.am    1  UNL1       -0.2445
      7 C           3.1253   -1.2365    0.8314 C.2     1  UNL1        0.2323
      8 O           2.6859   -2.3738    0.7590 O.2     1  UNL1       -0.2742
      9 C           5.1475   -1.7391    2.2008 C.3     1  UNL1        0.0108
     10 C           3.0149    0.1315   -1.3198 C.ar    1  UNL1       -0.0322
     11 C           3.2969   -1.0013   -2.1049 C.ar    1  UNL1       -0.0576
     12 C           3.7876   -0.8757   -3.4093 C.ar    1  UNL1       -0.0615
     13 C           3.9877    0.3834   -3.9645 C.ar    1  UNL1       -0.0617
     14 C           3.6625    1.5165   -3.2292 C.ar    1  UNL1       -0.0615
     15 C           3.1640    1.3908   -1.9297 C.ar    1  UNL1       -0.0576
     16 H           0.5692    0.8765   -0.2245 H       1  UNL1        0.0243
     17 H           0.6057   -0.8866   -0.3823 H       1  UNL1        0.0243
     18 H           0.6448   -0.1503    1.2174 H       1  UNL1        0.0243
     19 H           3.2721    2.0706    0.6085 H       1  UNL1        0.0372
     20 H           2.4278    1.2565    1.9363 H       1  UNL1        0.0372
     21 H           6.1385   -1.6463    1.7488 H       1  UNL1        0.0433
     22 H           5.2177   -1.4350    3.2498 H       1  UNL1        0.0433
     23 H           4.8026   -2.7740    2.1379 H       1  UNL1        0.0433
     24 H           3.1440   -2.0084   -1.7191 H       1  UNL1        0.0621
     25 H           4.0176   -1.7657   -3.9901 H       1  UNL1        0.0618
     26 H           4.3833    0.4816   -4.9714 H       1  UNL1        0.0618
     27 H           3.7952    2.5039   -3.6646 H       1  UNL1        0.0618
     28 H           2.8971    2.3077   -1.4114 H       1  UNL1        0.0621
@<TRIPOS>BOND
     1     1    16    1
     2     1    17    1
     3     1    18    1
     4     2     1    1
     5     2     7    1
     6     2     3    1
     7     2    10    1
     8     3     4    1
     9     3    19    1
    10     3    20    1
    11     4     5    2
    12     4     6   am
    13     6     7   am
    14     6     9    1
    15     7     8    2
    16     9    21    1
    17     9    22    1
    18     9    23    1
    19    10    15   ar
    20    10    11   ar
    21    11    12   ar
    22    11    24    1
    23    12    13   ar
    24    12    25    1
    25    13    14   ar
    26    13    26    1
    27    14    15   ar
    28    14    27    1
    29    15    28    1
