@<TRIPOS>MOLECULE
ZINC00896958
 51 53 0 0 0
SMALL
GASTEIGER

@<TRIPOS>ATOM
      1 C           2.4617    2.1450    1.4728 C.3     1  UNL1       -0.0414
      2 N           3.1427    3.2617    2.2706 N.4     1  UNL1        0.2417
      3 C           2.1056    4.2399    2.8170 C.3     1  UNL1       -0.0269
      4 C           1.8510    5.2065    1.6749 C.3     1  UNL1        0.0298
      5 C           3.2180    5.4020    1.0317 C.3     1  UNL1        0.1473
      6 H           3.7176    6.2489    1.5200 H       1  UNL1        0.0790
      7 C           4.0342    4.1338    1.3537 C.3     1  UNL1        0.0076
      8 O           3.1324    5.7607   -0.3671 O.3     1  UNL1       -0.4535
      9 C           2.6932    4.8396   -1.2726 C.2     1  UNL1        0.3445
     10 O           2.3889    3.6928   -0.9414 O.2     1  UNL1       -0.2472
     11 C           2.6645    5.3584   -2.7437 C.3     1  UNL1        0.1902
     12 C           3.5032    4.4274   -3.6576 C.ar    1  UNL1       -0.0051
     13 C           4.6638    3.7833   -3.1746 C.ar    1  UNL1       -0.0553
     14 C           5.4924    3.0371   -4.0222 C.ar    1  UNL1       -0.0614
     15 C           5.1948    2.9319   -5.3754 C.ar    1  UNL1       -0.0617
     16 C           4.0520    3.5450   -5.8749 C.ar    1  UNL1       -0.0614
     17 C           3.2171    4.2806   -5.0277 C.ar    1  UNL1       -0.0553
     18 C           1.1863    5.5474   -3.2008 C.3     1  UNL1        0.0026
     19 C           0.2893    4.3067   -3.1864 C.3     1  UNL1       -0.0467
     20 C          -1.0867    4.8981   -3.4518 C.3     1  UNL1       -0.0527
     21 C          -1.1107    6.1614   -2.5992 C.3     1  UNL1       -0.0527
     22 C           0.3553    6.5783   -2.4096 C.3     1  UNL1       -0.0467
     23 O           3.2702    6.6569   -2.8452 O.3     1  UNL1       -0.3730
     24 C           3.9469    2.6282    3.3910 C.3     1  UNL1       -0.0414
     25 H           2.0509    1.4180    2.1823 H       1  UNL1        0.0778
     26 H           3.2106    1.6659    0.8351 H       1  UNL1        0.0778
     27 H           1.6394    2.5585    0.8917 H       1  UNL1        0.0778
     28 H           2.5504    4.7550    3.6750 H       1  UNL1        0.0816
     29 H           1.2151    3.6859    3.1350 H       1  UNL1        0.0816
     30 H           1.1173    4.8033    0.9716 H       1  UNL1        0.0355
     31 H           1.4383    6.1540    2.0368 H       1  UNL1        0.0355
     32 H           4.3629    3.5463    0.4931 H       1  UNL1        0.0852
     33 H           4.9218    4.4065    1.9363 H       1  UNL1        0.0852
     34 H           4.9592    3.8552   -2.1320 H       1  UNL1        0.0621
     35 H           6.3837    2.5506   -3.6313 H       1  UNL1        0.0618
     36 H           5.8525    2.3800   -6.0431 H       1  UNL1        0.0618
     37 H           3.8127    3.4635   -6.9327 H       1  UNL1        0.0618
     38 H           2.3483    4.7464   -5.4829 H       1  UNL1        0.0621
     39 H           1.1985    5.9479   -4.2242 H       1  UNL1        0.0337
     40 H           0.5651    3.5664   -3.9421 H       1  UNL1        0.0269
     41 H           0.2820    3.8163   -2.2082 H       1  UNL1        0.0269
     42 H          -1.8963    4.2077   -3.1978 H       1  UNL1        0.0265
     43 H          -1.1863    5.1591   -4.5127 H       1  UNL1        0.0265
     44 H          -1.5627    5.9495   -1.6231 H       1  UNL1        0.0265
     45 H          -1.7071    6.9488   -3.0720 H       1  UNL1        0.0265
     46 H           0.5991    6.5814   -1.3428 H       1  UNL1        0.0269
     47 H           0.5226    7.5933   -2.7880 H       1  UNL1        0.0269
     48 H           3.8113    6.6776   -3.6558 H       1  UNL1        0.2113
     49 H           3.2568    2.0848    4.0440 H       1  UNL1        0.0778
     50 H           4.6766    1.9459    2.9457 H       1  UNL1        0.0778
     51 H           4.4519    3.4176    3.9543 H       1  UNL1        0.0778
@<TRIPOS>UNITY_ATOM_ATTR
2 1
charge 1
@<TRIPOS>BOND
     1     1     2    1
     2     1    25    1
     3     1    26    1
     4     1    27    1
     5     2     7    1
     6     2     3    1
     7     2    24    1
     8     3     4    1
     9     3    28    1
    10     3    29    1
    11     4     5    1
    12     4    30    1
    13     4    31    1
    14     5     7    1
    15     7    32    1
    16     7    33    1
    17     8     9    1
    18     9    10    2
    19    11     9    1
    20    11    12    1
    21    11    18    1
    22    11    23    1
    23    12    17   ar
    24    12    13   ar
    25    13    14   ar
    26    13    34    1
    27    14    15   ar
    28    14    35    1
    29    15    16   ar
    30    15    36    1
    31    16    17   ar
    32    16    37    1
    33    17    38    1
    34    18    22    1
    35    18    19    1
    36    18    39    1
    37    19    20    1
    38    19    40    1
    39    19    41    1
    40    20    21    1
    41    20    42    1
    42    20    43    1
    43    21    22    1
    44    21    44    1
    45    21    45    1
    46    22    46    1
    47    22    47    1
    48    23    48    1
    49    24    49    1
    50    24    50    1
    51    24    51    1
    52     5     8    1
    53     5     6    1
