@<TRIPOS>MOLECULE
ZINC00020230
 39 39 0 0 0
SMALL
GASTEIGER

@<TRIPOS>ATOM
      1 C           4.8435   -0.6278   -0.2451 C.3     1  UNL1       -0.0193
      2 C           4.4011    0.1217    1.0143 C.3     1  UNL1       -0.0203
      3 C           5.3091   -0.2156    2.2011 C.3     1  UNL1       -0.0193
      4 C           4.4431    1.6358    0.7572 C.3     1  UNL1       -0.0193
      5 N           2.9649   -0.2243    1.3523 N.4     1  UNL1        0.2328
      6 C           2.6380   -1.6248    1.8309 C.3     1  UNL1       -0.0023
      7 C           1.1306   -1.7216    2.1861 C.3     1  UNL1        0.1197
      8 H           0.9197   -1.0514    3.0290 H       1  UNL1        0.0698
      9 C           0.6525   -3.1142    2.5785 C.ar    1  UNL1       -0.0135
     10 C           1.5332   -4.0799    3.0959 C.ar    1  UNL1       -0.0525
     11 C           1.0856   -5.3508    3.4735 C.ar    1  UNL1       -0.0195
     12 C          -0.2573   -5.6812    3.3411 C.ar    1  UNL1        0.1222
     13 C          -1.1741   -4.7462    2.8621 C.ar    1  UNL1        0.0195
     14 C          -0.7126   -3.4580    2.5204 C.ar    1  UNL1       -0.0471
     15 C          -2.6312   -5.0861    2.6864 C.3     1  UNL1        0.0727
     16 O          -3.4110   -4.2242    3.5029 O.3     1  UNL1       -0.3903
     17 O          -0.6952   -6.9253    3.6903 O.3     1  UNL1       -0.5064
     18 O           0.4551   -1.1700    1.0416 O.3     1  UNL1       -0.3819
     19 H           5.9100   -0.4599   -0.4378 H       1  UNL1        0.0287
     20 H           4.2961   -0.2835   -1.1292 H       1  UNL1        0.0287
     21 H           4.6991   -1.7096   -0.1590 H       1  UNL1        0.0287
     22 H           6.3333    0.1313    2.0187 H       1  UNL1        0.0287
     23 H           4.9581    0.2613    3.1233 H       1  UNL1        0.0287
     24 H           5.3703   -1.2953    2.3767 H       1  UNL1        0.0287
     25 H           3.7710    1.9224   -0.0614 H       1  UNL1        0.0287
     26 H           4.1517    2.2011    1.6451 H       1  UNL1        0.0287
     27 H           5.4555    1.9551    0.4772 H       1  UNL1        0.0287
     28 H           2.6138    0.4395    2.0559 H       1  UNL1        0.2020
     29 H           2.8828   -2.2989    1.0042 H       1  UNL1        0.0843
     30 H           3.2622   -1.8327    2.7012 H       1  UNL1        0.0843
     31 H           2.5921   -3.8800    3.2405 H       1  UNL1        0.0622
     32 H           1.7988   -6.0681    3.8723 H       1  UNL1        0.0654
     33 H          -1.4641   -2.7274    2.2189 H       1  UNL1        0.0626
     34 H          -2.9138   -4.9237    1.6408 H       1  UNL1        0.0608
     35 H          -2.8715   -6.1263    2.9286 H       1  UNL1        0.0608
     36 H          -3.4569   -4.6564    4.3747 H       1  UNL1        0.2098
     37 H           0.0487   -7.4575    4.0143 H       1  UNL1        0.2921
     38 H          -0.3080   -1.7347    0.8174 H       1  UNL1        0.2105
     39 H           2.3436   -0.0628    0.5396 H       1  UNL1        0.2020
@<TRIPOS>UNITY_ATOM_ATTR
5 1
charge 1
@<TRIPOS>BOND
     1     1     2    1
     2     1    19    1
     3     1    20    1
     4     1    21    1
     5     2     3    1
     6     2     4    1
     7     2     5    1
     8     3    22    1
     9     3    23    1
    10     3    24    1
    11     4    25    1
    12     4    26    1
    13     4    27    1
    14     5     6    1
    15     5    28    1
    16     5    39    1
    17     6    29    1
    18     6    30    1
    19     7     9    1
    20     7    18    1
    21     9    14   ar
    22     9    10   ar
    23    10    11   ar
    24    10    31    1
    25    11    12   ar
    26    11    32    1
    27    12    13   ar
    28    12    17    1
    29    13    14   ar
    30    13    15    1
    31    14    33    1
    32    15    16    1
    33    15    34    1
    34    15    35    1
    35    16    36    1
    36    17    37    1
    37    18    38    1
    38     7     8    1
    39     7     6    1
