@<TRIPOS>MOLECULE
ZINC01542392
 56 58 0 0 0
SMALL
GASTEIGER

@<TRIPOS>ATOM
      1 C           6.3169    0.0614    3.2658 C.3     1  UNL1        0.0500
      2 N           6.8577    1.4035    3.0766 N.pl3   1  UNL1       -0.2196
      3 C           7.5357    1.9904    4.2451 C.3     1  UNL1        0.0624
      4 C           9.0159    1.5855    4.3476 C.3     1  UNL1       -0.0082
      5 C           9.8906    2.0752    3.1972 C.3     1  UNL1        0.0144
      6 N          11.2769    1.7122    3.3647 N.am    1  UNL1       -0.3131
      7 C          12.2449    2.5951    3.7988 C.2     1  UNL1        0.2419
      8 O          12.0002    3.7482    4.1613 O.2     1  UNL1       -0.2730
      9 C          13.6583    2.0094    3.7817 C.3     1  UNL1        0.1343
     10 H          13.9368    1.7827    4.8172 H       1  UNL1        0.0693
     11 C          14.6593    2.9583    3.1416 C.3     1  UNL1       -0.0159
     12 C          15.6758    2.0124    2.5534 C.3     1  UNL1       -0.0266
     13 C          14.8053    0.8621    2.1024 C.3     1  UNL1        0.0487
     14 O          13.7266    0.7720    3.0431 O.3     1  UNL1       -0.3674
     15 C           6.3686    2.1694    2.0219 C.cat   1  UNL1        0.4137
     16 N           7.2003    3.2175    1.7245 N.pl3   1  UNL1       -0.2127
     17 C           7.1572    3.7237    0.4669 C.3     1  UNL1        0.1778
     18 C           8.3814    3.8013   -0.3524 C.2     1  UNL1        0.0078
     19 C           8.1110    3.7636   -1.6894 C.2     1  UNL1        0.1614
     20 C           6.9879    4.6569   -2.0846 C.2     1  UNL1        0.1619
     21 C           5.8112    4.5199   -1.4169 C.2     1  UNL1       -0.0016
     22 C           5.8755    3.6462   -0.2282 C.2     1  UNL1        0.0924
     23 C           5.0176    2.6799    0.2010 C.2     1  UNL1        0.3232
     24 N           5.3203    1.8645    1.2979 N.2     1  UNL1        0.0214
     25 N           3.8948    2.3553   -0.5459 N.pl3   1  UNL1       -0.2461
     26 O           7.3736    5.5960   -2.9998 O.2     1  UNL1       -0.4914
     27 C           6.6582    6.8212   -3.0387 C.3     1  UNL1        0.0790
     28 O           7.9998    2.5843   -2.4249 O.2     1  UNL1       -0.4916
     29 C           8.1217    1.3258   -1.7620 C.3     1  UNL1        0.0789
     30 H           6.8415   -0.4726    4.0661 H       1  UNL1        0.0597
     31 H           6.4466   -0.5278    2.3509 H       1  UNL1        0.0597
     32 H           5.2533    0.0987    3.5196 H       1  UNL1        0.0597
     33 H           7.4467    3.0837    4.2497 H       1  UNL1        0.0635
     34 H           7.0226    1.6595    5.1575 H       1  UNL1        0.0635
     35 H           9.4143    1.9970    5.2840 H       1  UNL1        0.0309
     36 H           9.1034    0.4962    4.4273 H       1  UNL1        0.0309
     37 H           9.5732    1.6294    2.2492 H       1  UNL1        0.0463
     38 H           9.8284    3.1661    3.1106 H       1  UNL1        0.0463
     39 H          11.6223    0.8217    3.0165 H       1  UNL1        0.1488
     40 H          14.1910    3.5462    2.3415 H       1  UNL1        0.0296
     41 H          15.0930    3.6631    3.8579 H       1  UNL1        0.0296
     42 H          16.2622    2.4467    1.7392 H       1  UNL1        0.0288
     43 H          16.3645    1.6767    3.3351 H       1  UNL1        0.0288
     44 H          14.3743    1.0502    1.1132 H       1  UNL1        0.0560
     45 H          15.3473   -0.0872    2.0734 H       1  UNL1        0.0560
     46 H           8.9230    4.6807   -0.0004 H       1  UNL1        0.0650
     47 H           4.9322    5.1383   -1.5687 H       1  UNL1        0.0662
     48 H           3.6809    1.3804   -0.3471 H       1  UNL1        0.2884
     49 H           4.0720    2.4910   -1.5378 H       1  UNL1        0.2884
     50 H           6.3042    7.1450   -2.0536 H       1  UNL1        0.0660
     51 H           7.3456    7.5918   -3.4057 H       1  UNL1        0.0660
     52 H           5.8307    6.7377   -3.7452 H       1  UNL1        0.0660
     53 H           8.7313    1.3541   -0.8553 H       1  UNL1        0.0660
     54 H           7.1282    0.9230   -1.5303 H       1  UNL1        0.0660
     55 H           8.5999    0.6340   -2.4616 H       1  UNL1        0.0660
     56 H           8.1206    3.1639    2.0965 H       1  UNL1        0.2466
@<TRIPOS>BOND
     1     1     2    1
     2     1    30    1
     3     1    31    1
     4     1    32    1
     5     2     3    1
     6     2    15    1
     7     3     4    1
     8     3    33    1
     9     3    34    1
    10     4     5    1
    11     4    35    1
    12     4    36    1
    13     5     6    1
    14     5    37    1
    15     5    38    1
    16     6     7   am
    17     6    39    1
    18     7     8    2
    19     7     9    1
    20     9    10    1
    21     9    14    1
    22     9    11    1
    23    11    12    1
    24    11    40    1
    25    11    41    1
    26    12    13    1
    27    12    42    1
    28    12    43    1
    29    13    14    1
    30    13    44    1
    31    13    45    1
    32    15    24    2
    33    15    16    1
    34    16    17    1
    35    16    56    1
    36    17    22    1
    37    17    18    1
    38    18    19    2
    39    18    46    1
    40    19    20    1
    41    19    28    1
    42    20    21    2
    43    20    26    1
    44    21    22    1
    45    21    47    1
    46    22    23    2
    47    23    24    1
    48    23    25    1
    49    25    48    1
    50    25    49    1
    51    26    27    1
    52    27    50    1
    53    27    51    1
    54    27    52    1
    55    28    29    1
    56    29    53    1
    57    29    54    1
    58    29    55    1
