@<TRIPOS>MOLECULE
ZINC03830428
 51 54 0 0 0
SMALL
GASTEIGER

@<TRIPOS>ATOM
      1 C          -3.3166    9.6635    0.2738 C.ar    1  UNL1       -0.0617
      2 C          -2.5528    8.7027    0.9304 C.ar    1  UNL1       -0.0614
      3 C          -2.7531    7.3449    0.6658 C.ar    1  UNL1       -0.0557
      4 C          -3.7255    6.9256   -0.2570 C.ar    1  UNL1       -0.0103
      5 C          -4.5194    7.9083   -0.8740 C.ar    1  UNL1       -0.0557
      6 C          -4.3094    9.2663   -0.6182 C.ar    1  UNL1       -0.0614
      7 C          -3.8611    5.4684   -0.7032 C.3     1  UNL1        0.1558
      8 H          -4.9258    5.2670   -0.8838 H       1  UNL1        0.0741
      9 C          -3.4612    4.4518    0.3923 C.2     1  UNL1        0.2468
     10 O          -4.0683    4.4223    1.4712 O.2     1  UNL1       -0.2726
     11 N          -2.4296    3.5749    0.2368 N.am    1  UNL1       -0.2993
     12 CA         -1.6720    3.0832   -0.9624 C.3     1  UNL1        0.1284
     13 HA         -2.3495    2.6147   -1.6870 H       1  UNL1        0.0622
     14 C          -0.4607    3.8456   -1.6033 C.3     1  UNL1        0.1042
     15 H          -0.4410    3.7554   -2.6983 H       1  UNL1        0.0644
     16 N           0.4004    2.8817   -0.9896 N.am    1  UNL1       -0.2488
     17 C          -0.5595    2.0793   -0.4803 C.2     1  UNL1        0.2440
     18 O          -0.5921    1.1349    0.2784 O.2     1  UNL1       -0.2731
     19 CA          1.7657    2.9398   -0.8533 C.2     1  UNL1        0.1271
     20 C           2.4125    4.1382   -0.9256 C.2     1  UNL1       -0.0210
     21 C           1.6842    5.4168   -1.3235 C.3     1  UNL1        0.0196
     22 S          -0.0954    5.4894   -0.9748 S.3     1  UNL1       -0.1311
     23 C           3.8713    4.4701   -0.5326 C.3     1  UNL1        0.0253
     24 S           5.1960    3.3482   -0.9929 S.3     1  UNL1       -0.0801
     25 C           6.5035    3.8286    0.0568 C.ar    1  UNL1        0.2112
     26 N           6.5928    3.6364    1.3511 N.ar    1  UNL1       -0.1015
     27 N           7.9178    3.8606    1.6881 N.ar    1  UNL1       -0.0221
     28 N           8.6258    4.1907    0.6186 N.ar    1  UNL1       -0.0416
     29 N           7.7263    4.2369   -0.4028 N.ar    1  UNL1       -0.1961
     30 C           8.1790    4.4410   -1.7505 C.3     1  UNL1        0.1916
     31 S           7.8919    6.0543   -2.4004 S.3     1  UNL1        0.1303
     32 O           8.7357    6.9393   -1.6012 O.2     1  UNL1       -0.1432
     33 O           8.3248    5.9363   -3.7956 O.2     1  UNL1       -0.1432
     34 C           2.4486    1.5199   -0.6164 C.2     1  UNL1        0.4006
     35 O           3.1886    1.4211    0.3918 O.co2   1  UNL1       -0.2392
     36 O          -3.2095    5.3362   -1.9580 O.3     1  UNL1       -0.3779
     37 H          -3.1286   10.7190    0.4503 H       1  UNL1        0.0618
     38 H          -1.7786    9.0057    1.6315 H       1  UNL1        0.0618
     39 H          -2.1148    6.6247    1.1759 H       1  UNL1        0.0621
     40 H          -5.2884    7.6167   -1.5860 H       1  UNL1        0.0621
     41 H          -4.9042   10.0143   -1.1349 H       1  UNL1        0.0618
     42 H          -2.3263    2.9944    1.0684 H       1  UNL1        0.1496
     43 H           1.8507    5.5996   -2.3909 H       1  UNL1        0.0423
     44 H           2.0973    6.2781   -0.7839 H       1  UNL1        0.0423
     45 H           4.1395    5.4120   -1.0268 H       1  UNL1        0.0427
     46 H           3.8875    4.6904    0.5439 H       1  UNL1        0.0427
     47 H           9.2547    4.2464   -1.7948 H       1  UNL1        0.0780
     48 H           7.6805    3.7124   -2.3971 H       1  UNL1        0.0780
     49 H          -2.3964    5.8741   -1.8859 H       1  UNL1        0.2109
     50 O           6.4543    6.2879   -2.2382 O.3     1  UNL1       -0.0457
     51 OXT         2.0878    0.6565   -1.4757 O.co2   1  UNL1       -0.2392
@<TRIPOS>BOND
     1     1     6   ar
     2     1     2   ar
     3     1    37    1
     4     2     3   ar
     5     2    38    1
     6     3     4   ar
     7     3    39    1
     8     4     5   ar
     9     5     6   ar
    10     5    40    1
    11     6    41    1
    12     7     9    1
    13     7    36    1
    14     9    10    2
    15     9    11   am
    16    11    42    1
    17    12    17    1
    18    12    14    1
    19    14    15    1
    20    14    22    1
    21    14    16    1
    22    16    17   am
    23    16    19    1
    24    17    18    2
    25    19    20    2
    26    19    34    1
    27    20    21    1
    28    20    23    1
    29    21    22    1
    30    21    43    1
    31    21    44    1
    32    23    24    1
    33    23    45    1
    34    23    46    1
    35    24    25    1
    36    25    29   ar
    37    25    26   ar
    38    26    27   ar
    39    27    28   ar
    40    28    29   ar
    41    29    30    1
    42    30    31    1
    43    30    47    1
    44    30    48    1
    45    31    32    2
    46    31    33    2
    47    31    50    1
    48    34    35   ar
    49    34    51   ar
    50    36    49    1
    51     7     8    1
    52     7     4    1
    53    12    13    1
    54    12    11    1
