@<TRIPOS>MOLECULE
ZINC00402830
 51 53 0 0 0
SMALL
GASTEIGER

@<TRIPOS>ATOM
      1 C           1.5622   -0.1474    0.4577 C.3     1  UNL1       -0.0274
      2 C           0.9240    1.2692    0.3960 C.3     1  UNL1        0.1165
      3 C           1.3953    1.8179   -0.9889 C.ar    1  UNL1       -0.0117
      4 C           2.6101    2.5320   -1.0810 C.ar    1  UNL1       -0.0555
      5 C           3.2289    2.7930   -2.3034 C.ar    1  UNL1       -0.0614
      6 C           2.6530    2.3654   -3.4865 C.ar    1  UNL1       -0.0617
      7 C           1.4291    1.6995   -3.4399 C.ar    1  UNL1       -0.0614
      8 C           0.7999    1.4331   -2.2075 C.ar    1  UNL1       -0.0555
      9 C          -0.6154    1.1687    0.6234 C.ar    1  UNL1       -0.0116
     10 C          -1.3310   -0.0372    0.4197 C.ar    1  UNL1       -0.0541
     11 C          -2.6455   -0.2196    0.8937 C.ar    1  UNL1       -0.0430
     12 C          -3.2841    0.8137    1.5475 C.ar    1  UNL1        0.0410
     13 C          -2.6521    2.0461    1.6809 C.ar    1  UNL1       -0.0430
     14 C          -1.3350    2.2313    1.2011 C.ar    1  UNL1       -0.0541
     15 CL         -4.8337    0.5599    2.2597 Cl      1  UNL1       -0.0835
     16 O           1.5521    2.1277    1.4424 O.3     1  UNL1       -0.3642
     17 C           1.5523    1.6125    2.7809 C.3     1  UNL1        0.0543
     18 C           1.9488    2.6614    3.8500 C.3     1  UNL1        0.0138
     19 C           3.4074    2.9651    4.2896 C.3     1  UNL1       -0.0188
     20 H           3.3199    3.5993    5.1821 H       1  UNL1        0.0852
     21 C           4.3080    1.7664    4.5996 C.3     1  UNL1       -0.0048
     22 C           5.3062    1.6562    3.4459 C.3     1  UNL1       -0.0074
     23 C           4.8807    2.7043    2.4400 C.3     1  UNL1       -0.0317
     24 N           4.2294    3.7597    3.2925 N.4     1  UNL1        0.2353
     25 C           5.2623    4.6576    3.9682 C.3     1  UNL1       -0.0428
     26 H           1.2778   -0.7670   -0.4038 H       1  UNL1        0.0264
     27 H           1.2530   -0.6911    1.3573 H       1  UNL1        0.0264
     28 H           2.6555   -0.0944    0.4708 H       1  UNL1        0.0264
     29 H           3.1218    2.8570   -0.1831 H       1  UNL1        0.0621
     30 H           4.1936    3.3096   -2.3363 H       1  UNL1        0.0618
     31 H           3.1588    2.5244   -4.4400 H       1  UNL1        0.0618
     32 H           0.9789    1.3601   -4.3720 H       1  UNL1        0.0618
     33 H          -0.1326    0.8732   -2.2309 H       1  UNL1        0.0621
     34 H          -0.8705   -0.8951   -0.0666 H       1  UNL1        0.0622
     35 H          -3.1349   -1.1817    0.7702 H       1  UNL1        0.0632
     36 H          -3.1568    2.8663    2.1900 H       1  UNL1        0.0632
     37 H          -0.8595    3.1975    1.3525 H       1  UNL1        0.0622
     38 H           0.5265    1.3127    3.0224 H       1  UNL1        0.0562
     39 H           2.1870    0.7273    2.8534 H       1  UNL1        0.0562
     40 H           1.4535    3.6107    3.6186 H       1  UNL1        0.0342
     41 H           1.4813    2.2859    4.7743 H       1  UNL1        0.0342
     42 H           4.8688    1.9624    5.5250 H       1  UNL1        0.0322
     43 H           3.7521    0.8418    4.7650 H       1  UNL1        0.0322
     44 H           6.3191    1.8728    3.8062 H       1  UNL1        0.0319
     45 H           5.3226    0.6555    3.0077 H       1  UNL1        0.0319
     46 H           4.1167    2.3219    1.7636 H       1  UNL1        0.0814
     47 H           5.6960    3.1421    1.8565 H       1  UNL1        0.0814
     48 H           4.8391    5.6607    4.0471 H       1  UNL1        0.0778
     49 H           5.4977    4.2649    4.9636 H       1  UNL1        0.0778
     50 H           6.1750    4.6785    3.3648 H       1  UNL1        0.0778
     51 H           3.6237    4.3519    2.7063 H       1  UNL1        0.2033
@<TRIPOS>UNITY_ATOM_ATTR
24 1
charge 1
@<TRIPOS>BOND
     1     1     2    1
     2     1    26    1
     3     1    27    1
     4     1    28    1
     5     2     3    1
     6     2     9    1
     7     2    16    1
     8     3     8   ar
     9     3     4   ar
    10     4     5   ar
    11     4    29    1
    12     5     6   ar
    13     5    30    1
    14     6     7   ar
    15     6    31    1
    16     7     8   ar
    17     7    32    1
    18     8    33    1
    19     9    14   ar
    20     9    10   ar
    21    10    11   ar
    22    10    34    1
    23    11    12   ar
    24    11    35    1
    25    12    13   ar
    26    12    15    1
    27    13    14   ar
    28    13    36    1
    29    14    37    1
    30    16    17    1
    31    17    18    1
    32    17    38    1
    33    17    39    1
    34    18    19    1
    35    18    40    1
    36    18    41    1
    37    19    20    1
    38    19    24    1
    39    19    21    1
    40    21    22    1
    41    21    42    1
    42    21    43    1
    43    22    23    1
    44    22    44    1
    45    22    45    1
    46    23    24    1
    47    23    46    1
    48    23    47    1
    49    25    48    1
    50    25    49    1
    51    25    50    1
    52    24    51    1
    53    24    25    1
