@<TRIPOS>MOLECULE
ZINC01554274
 46 48 0 0 0
SMALL
GASTEIGER

@<TRIPOS>ATOM
      1 C           2.4488    0.7052    1.2604 C.3     1  UNL1       -0.0379
      2 C           1.2162    0.0966    0.6314 C.ar    1  UNL1       -0.0285
      3 C           0.0514    0.8925    0.6936 C.ar    1  UNL1       -0.0499
      4 C          -1.1574    0.4612    0.1537 C.ar    1  UNL1       -0.0238
      5 C          -1.2020   -0.8088   -0.4125 C.ar    1  UNL1       -0.0499
      6 C          -0.0662   -1.6491   -0.4794 C.ar    1  UNL1       -0.0285
      7 C           1.1809   -1.1872    0.0181 C.ar    1  UNL1        0.0383
      8 N           2.3744   -1.9304   -0.0294 N.pl3   1  UNL1       -0.2989
      9 C           2.6827   -3.2894    0.0135 C.ar    1  UNL1        0.1280
     10 C           1.9846   -4.1424    0.8325 C.ar    1  UNL1       -0.0033
     11 C           2.3754   -5.4507    0.8022 C.ar    1  UNL1        0.0344
     12 N           3.3509   -5.9249    0.0099 N.ar    1  UNL1       -0.2225
     13 C           4.0137   -5.0219   -0.7252 C.ar    1  UNL1        0.2212
     14 N           3.7254   -3.7097   -0.7204 N.ar    1  UNL1       -0.1992
     15 N           5.0200   -5.5263   -1.5491 N.pl3   1  UNL1       -0.2836
     16 C           6.2036   -4.9082   -1.9678 C.ar    1  UNL1        0.0336
     17 C           6.8565   -5.3778   -3.1181 C.ar    1  UNL1       -0.0393
     18 C           8.0128   -4.7607   -3.5973 C.ar    1  UNL1       -0.0426
     19 C           8.5504   -3.6696   -2.9122 C.ar    1  UNL1        0.0519
     20 C           7.9122   -3.1795   -1.7718 C.ar    1  UNL1       -0.0426
     21 C           6.7447   -3.7948   -1.3134 C.ar    1  UNL1       -0.0393
     22 C           9.7289   -3.0161   -3.4036 C.1     1  UNL1        0.0992
     23 N          10.6894   -2.4931   -3.7910 N.1     1  UNL1       -0.1909
     24 C          -0.3097   -2.9313   -1.2365 C.3     1  UNL1       -0.0379
     25 C          -2.3912    1.2567    0.1773 C.2     1  UNL1       -0.0444
     26 C          -2.4123    2.5934    0.1133 C.2     1  UNL1        0.0159
     27 C          -3.7153    3.3760    0.1111 C.1     1  UNL1        0.0914
     28 N          -4.7963    4.0252    0.1092 N.1     1  UNL1       -0.1915
     29 H           2.6728    1.6640    0.7787 H       1  UNL1        0.0278
     30 H           2.2664    0.8815    2.3261 H       1  UNL1        0.0278
     31 H           3.3480    0.0914    1.1891 H       1  UNL1        0.0278
     32 H           0.1159    1.8649    1.1783 H       1  UNL1        0.0627
     33 H          -2.1372   -1.1572   -0.8522 H       1  UNL1        0.0627
     34 H           3.2358   -1.4038   -0.0688 H       1  UNL1        0.1536
     35 H           1.1829   -3.7935    1.4689 H       1  UNL1        0.0667
     36 H           1.8820   -6.1935    1.4264 H       1  UNL1        0.0832
     37 H           5.0488   -6.5329   -1.4795 H       1  UNL1        0.1550
     38 H           6.4475   -6.2272   -3.6676 H       1  UNL1        0.0636
     39 H           8.4873   -5.1292   -4.5024 H       1  UNL1        0.0631
     40 H           8.3094   -2.3234   -1.2312 H       1  UNL1        0.0631
     41 H           6.2722   -3.4045   -0.4147 H       1  UNL1        0.0636
     42 H          -1.2815   -3.3513   -0.9443 H       1  UNL1        0.0278
     43 H          -0.3304   -2.7321   -2.3125 H       1  UNL1        0.0278
     44 H           0.4128   -3.7191   -1.0588 H       1  UNL1        0.0278
     45 H          -3.3246    0.6981    0.2095 H       1  UNL1        0.0630
     46 H          -1.5183    3.2020    0.0470 H       1  UNL1        0.0733
@<TRIPOS>BOND
     1     1     2    1
     2     1    29    1
     3     1    30    1
     4     1    31    1
     5     2     7   ar
     6     2     3   ar
     7     3     4   ar
     8     3    32    1
     9     4     5   ar
    10     4    25    1
    11     5     6   ar
    12     5    33    1
    13     6     7   ar
    14     6    24    1
    15     7     8    1
    16     8     9    1
    17     8    34    1
    18     9    14   ar
    19     9    10   ar
    20    10    11   ar
    21    10    35    1
    22    11    12   ar
    23    11    36    1
    24    12    13   ar
    25    13    14   ar
    26    13    15    1
    27    15    16    1
    28    15    37    1
    29    16    21   ar
    30    16    17   ar
    31    17    18   ar
    32    17    38    1
    33    18    19   ar
    34    18    39    1
    35    19    20   ar
    36    19    22    1
    37    20    21   ar
    38    20    40    1
    39    21    41    1
    40    22    23    3
    41    24    42    1
    42    24    43    1
    43    24    44    1
    44    25    26    2
    45    25    45    1
    46    26    27    1
    47    26    46    1
    48    27    28    3
