@<TRIPOS>MOLECULE
ZINC00000507
 37 37 0 0 0
SMALL
GASTEIGER

@<TRIPOS>ATOM
      1 C           1.2270    0.2330    0.3355 C.3     1  UNL1        0.0788
      2 O           0.3678   -0.2856    1.3383 O.3     1  UNL1       -0.4951
      3 C           0.8726   -1.2203    2.1957 C.ar    1  UNL1        0.1207
      4 C          -0.0447   -1.6569    3.1454 C.ar    1  UNL1       -0.0165
      5 C           0.3305   -2.5747    4.1190 C.ar    1  UNL1       -0.0161
      6 C           1.6308   -3.0868    4.1453 C.ar    1  UNL1        0.1260
      7 C           2.5813   -2.6939    3.1727 C.ar    1  UNL1        0.0274
      8 C           2.1740   -1.7362    2.2093 C.ar    1  UNL1       -0.0108
      9 C           4.0230   -3.2088    3.1847 C.3     1  UNL1        0.0991
     10 H           4.6167   -2.5718    3.8502 H       1  UNL1        0.0660
     11 C           4.1937   -4.6853    3.6150 C.3     1  UNL1        0.0421
     12 N           5.5560   -5.1942    3.4413 N.am    1  UNL1       -0.3081
     13 C           6.0088   -6.2170    4.2330 C.2     1  UNL1        0.2582
     14 O           5.3865   -6.7055    5.1762 O.2     1  UNL1       -0.2699
     15 C           7.4027   -6.7459    3.9295 C.3     1  UNL1        0.0425
     16 N           7.7605   -7.7899    4.9441 N.4     1  UNL1        0.2251
     17 O           4.6324   -3.1164    1.8771 O.3     1  UNL1       -0.3855
     18 O           2.0467   -3.9175    5.1506 O.3     1  UNL1       -0.4947
     19 C           1.0589   -4.7680    5.7296 C.3     1  UNL1        0.0788
     20 H           0.6804    1.0223   -0.1904 H       1  UNL1        0.0660
     21 H           1.4836   -0.5424   -0.3925 H       1  UNL1        0.0660
     22 H           2.1242    0.6857    0.7689 H       1  UNL1        0.0660
     23 H          -1.0580   -1.2619    3.1407 H       1  UNL1        0.0655
     24 H          -0.4083   -2.8521    4.8647 H       1  UNL1        0.0655
     25 H           2.8865   -1.3927    1.4672 H       1  UNL1        0.0659
     26 H           3.9554   -4.8245    4.6681 H       1  UNL1        0.0491
     27 H           3.5481   -5.3378    3.0178 H       1  UNL1        0.0491
     28 H           5.9720   -4.9783    2.5402 H       1  UNL1        0.1490
     29 H           7.4309   -7.2243    2.9486 H       1  UNL1        0.0911
     30 H           8.1441   -5.9488    4.0148 H       1  UNL1        0.0911
     31 H           7.0556   -8.5414    4.9210 H       1  UNL1        0.1999
     32 H           8.6968   -8.1874    4.8266 H       1  UNL1        0.1999
     33 H           4.9110   -2.1898    1.7679 H       1  UNL1        0.2103
     34 H           0.4682   -4.2195    6.4687 H       1  UNL1        0.0660
     35 H           0.4177   -5.2268    4.9686 H       1  UNL1        0.0660
     36 H           1.5825   -5.5752    6.2517 H       1  UNL1        0.0660
     37 H           7.6688   -7.3878    5.8890 H       1  UNL1        0.1999
@<TRIPOS>UNITY_ATOM_ATTR
16 1
charge 1
@<TRIPOS>BOND
     1     1     2    1
     2     1    20    1
     3     1    21    1
     4     1    22    1
     5     2     3    1
     6     3     8   ar
     7     3     4   ar
     8     4     5   ar
     9     4    23    1
    10     5     6   ar
    11     5    24    1
    12     6     7   ar
    13     6    18    1
    14     7     8   ar
    15     7     9    1
    16     8    25    1
    17     9    10    1
    18     9    11    1
    19     9    17    1
    20    11    12    1
    21    11    26    1
    22    11    27    1
    23    12    13   am
    24    12    28    1
    25    13    14    2
    26    13    15    1
    27    15    16    1
    28    15    29    1
    29    15    30    1
    30    16    31    1
    31    16    32    1
    32    16    37    1
    33    17    33    1
    34    18    19    1
    35    19    34    1
    36    19    35    1
    37    19    36    1
