@<TRIPOS>MOLECULE
ZINC00896836
 42 43 0 0 0
SMALL
GASTEIGER

@<TRIPOS>ATOM
      1 C          -3.3196   -0.9566   -3.2211 C.3     1  UNL1       -0.0219
      2 C          -2.9325   -2.4232   -3.1283 C.3     1  UNL1       -0.0283
      3 C          -2.2580   -2.8496   -4.4370 C.3     1  UNL1       -0.0219
      4 N          -1.9437   -2.6693   -2.0337 N.4     1  UNL1        0.2301
      5 C          -2.2672   -2.4449   -0.5493 C.3     1  UNL1       -0.0147
      6 C          -0.8737   -2.4834    0.1604 C.3     1  UNL1        0.0608
      7 H          -0.4442   -3.4721   -0.0619 H       1  UNL1        0.0550
      8 C          -0.8124   -2.3285    1.6738 C.3     1  UNL1       -0.0256
      9 C          -0.8654   -0.9010    2.2184 C.3     1  UNL1       -0.0241
     10 C          -0.3576    0.1326    1.2551 C.ar    1  UNL1       -0.0260
     11 C          -0.2187    1.4684    1.6865 C.ar    1  UNL1       -0.0494
     12 C           0.2129    2.4939    0.8207 C.ar    1  UNL1        0.0043
     13 C           0.3953    2.1629   -0.5308 C.ar    1  UNL1        0.0822
     14 C           0.3185    0.8199   -0.9458 C.ar    1  UNL1       -0.0140
     15 C          -0.0181   -0.1992   -0.0621 C.ar    1  UNL1        0.0328
     16 N          -0.0717   -1.4956   -0.5665 N.pl3   1  UNL1       -0.3358
     17 N           0.5969    3.1601   -1.6025 N.pl3   1  UNL1       -0.1862
     18 O           0.6091    4.3613   -1.2887 O.2     1  UNL1       -0.1726
     19 O           0.6921    2.7444   -2.7595 O.co2   1  UNL1       -0.7770
     20 C           0.4216    3.8607    1.4110 C.3     1  UNL1        0.0712
     21 O          -0.8026    4.5665    1.3556 O.3     1  UNL1       -0.3903
     22 H          -2.4581   -0.3241   -3.4718 H       1  UNL1        0.0284
     23 H          -3.7622   -0.5849   -2.2929 H       1  UNL1        0.0284
     24 H          -4.0630   -0.8206   -4.0180 H       1  UNL1        0.0284
     25 H          -3.7978   -3.0579   -2.9213 H       1  UNL1        0.0845
     26 H          -1.4404   -2.1615   -4.7082 H       1  UNL1        0.0284
     27 H          -1.8353   -3.8513   -4.3761 H       1  UNL1        0.0284
     28 H          -2.9795   -2.8370   -5.2672 H       1  UNL1        0.0284
     29 H          -1.6033   -3.6345   -2.1205 H       1  UNL1        0.2017
     30 H          -2.7333   -1.4584   -0.4642 H       1  UNL1        0.0832
     31 H          -2.9402   -3.2388   -0.2262 H       1  UNL1        0.0832
     32 H          -1.5810   -2.9408    2.1666 H       1  UNL1        0.0288
     33 H           0.1480   -2.7544    2.0098 H       1  UNL1        0.0288
     34 H          -1.8950   -0.6539    2.5002 H       1  UNL1        0.0314
     35 H          -0.2673   -0.8558    3.1377 H       1  UNL1        0.0314
     36 H          -0.4502    1.7175    2.7263 H       1  UNL1        0.0625
     37 H           0.4722    0.5589   -1.9901 H       1  UNL1        0.0658
     38 H           0.8039   -1.7970   -0.9978 H       1  UNL1        0.1466
     39 H           0.7239    3.7728    2.4634 H       1  UNL1        0.0608
     40 H           1.2325    4.4269    0.9372 H       1  UNL1        0.0608
     41 H          -0.8413    4.9844    0.4757 H       1  UNL1        0.2098
     42 H          -1.1148   -2.0659   -2.1917 H       1  UNL1        0.2017
@<TRIPOS>UNITY_ATOM_ATTR
4 1
charge 1
19 1
charge -1
@<TRIPOS>BOND
     1     1     2    1
     2     1    22    1
     3     1    23    1
     4     1    24    1
     5     2     3    1
     6     2     4    1
     7     2    25    1
     8     3    26    1
     9     3    27    1
    10     3    28    1
    11     4     5    1
    12     4    29    1
    13     4    42    1
    14     5     6    1
    15     5    30    1
    16     5    31    1
    17     6     7    1
    18     6    16    1
    19     6     8    1
    20     8     9    1
    21     8    32    1
    22     8    33    1
    23     9    10    1
    24     9    34    1
    25     9    35    1
    26    10    15   ar
    27    10    11   ar
    28    11    12   ar
    29    11    36    1
    30    12    13   ar
    31    12    20    1
    32    13    14   ar
    33    13    17    1
    34    14    15   ar
    35    14    37    1
    36    15    16    1
    37    16    38    1
    38    17    18    2
    39    17    19    1
    40    20    21    1
    41    20    39    1
    42    20    40    1
    43    21    41    1
