@<TRIPOS>MOLECULE
ZINC01530860
 50 51 0 0 0
SMALL
GASTEIGER

@<TRIPOS>ATOM
      1 C          -3.4402    2.5361   -2.5074 C.3     1  UNL1       -0.0245
      2 C          -2.4448    1.3992   -2.3355 C.3     1  UNL1       -0.0348
      3 N          -1.1722    1.7963   -1.5653 N.4     1  UNL1        0.2348
      4 C          -1.3554    1.5736   -0.0517 C.3     1  UNL1       -0.0348
      5 C          -2.0034    2.7326    0.6742 C.3     1  UNL1       -0.0245
      6 C           0.0500    0.9641   -2.0239 C.3     1  UNL1       -0.0319
      7 C           1.1326    1.7386   -2.7852 C.3     1  UNL1       -0.0109
      8 C           1.0795    1.6764   -4.3168 C.3     1  UNL1       -0.0300
      9 C          -0.0657    2.4478   -4.9643 C.3     1  UNL1        0.0180
     10 H          -0.9924    2.0979   -4.5211 H       1  UNL1        0.0495
     11 C           0.0048    3.9568   -4.7193 C.3     1  UNL1       -0.0467
     12 N          -0.0772    2.1344   -6.3970 N.pl3   1  UNL1       -0.3409
     13 C          -1.2766    1.9543   -7.0846 C.2     1  UNL1        0.0342
     14 C          -1.4386    2.7111   -8.3347 C.2     1  UNL1       -0.0270
     15 C          -2.6268    2.7270   -8.9544 C.2     1  UNL1       -0.0079
     16 N          -3.7410    2.0976   -8.4331 N.pl3   1  UNL1       -0.3345
     17 C          -3.5951    1.1931   -7.4149 C.3     1  UNL1        0.1080
     18 C          -2.2581    1.0569   -6.7852 C.2     1  UNL1        0.0033
     19 C          -2.0061   -0.2029   -6.0760 C.2     1  UNL1       -0.0530
     20 C          -3.0294   -1.0671   -5.8988 C.2     1  UNL1       -0.0432
     21 C          -4.4117   -0.6713   -6.1553 C.2     1  UNL1        0.0395
     22 C          -4.7051    0.4165   -6.8897 C.2     1  UNL1       -0.0355
     23 CL         -5.6566   -1.6086   -5.4198 Cl      1  UNL1       -0.0838
     24 H          -3.5013    3.2072   -1.6495 H       1  UNL1        0.0281
     25 H          -4.4410    2.1134   -2.6688 H       1  UNL1        0.0281
     26 H          -3.2132    3.1324   -3.3982 H       1  UNL1        0.0281
     27 H          -2.9002    0.5576   -1.8068 H       1  UNL1        0.0812
     28 H          -2.1491    1.0312   -3.3182 H       1  UNL1        0.0812
     29 H          -1.9087    0.6382    0.0887 H       1  UNL1        0.0812
     30 H          -0.3606    1.4495    0.3849 H       1  UNL1        0.0812
     31 H          -3.0945    2.6880    0.6247 H       1  UNL1        0.0281
     32 H          -1.7348    2.6654    1.7372 H       1  UNL1        0.0281
     33 H          -1.6574    3.7032    0.3109 H       1  UNL1        0.0281
     34 H           0.5427    0.6064   -1.1140 H       1  UNL1        0.0814
     35 H          -0.3078    0.0747   -2.5492 H       1  UNL1        0.0814
     36 H           1.2424    2.7612   -2.4134 H       1  UNL1        0.0317
     37 H           2.0831    1.2457   -2.5297 H       1  UNL1        0.0317
     38 H           2.0326    2.0496   -4.7175 H       1  UNL1        0.0285
     39 H           1.0280    0.6218   -4.6211 H       1  UNL1        0.0285
     40 H           0.5138    4.4943   -5.5245 H       1  UNL1        0.0247
     41 H          -1.0090    4.3654   -4.6378 H       1  UNL1        0.0247
     42 H           0.5113    4.2077   -3.7827 H       1  UNL1        0.0247
     43 H           0.5543    2.7381   -6.9234 H       1  UNL1        0.1463
     44 H          -0.5598    3.1242   -8.8277 H       1  UNL1        0.0648
     45 H          -2.7751    3.1645   -9.9370 H       1  UNL1        0.0779
     46 H          -0.9770   -0.5156   -5.9348 H       1  UNL1        0.0622
     47 H          -2.8400   -2.1030   -5.6318 H       1  UNL1        0.0632
     48 H          -5.7208    0.7632   -7.0420 H       1  UNL1        0.0612
     49 H          -0.9767    2.7950   -1.7266 H       1  UNL1        0.2033
     50 H          -4.5602    2.0083   -9.0259 H       1  UNL1        0.1468
@<TRIPOS>UNITY_ATOM_ATTR
3 1
charge 1
@<TRIPOS>BOND
     1     1     2    1
     2     1    24    1
     3     1    25    1
     4     1    26    1
     5     2     3    1
     6     2    27    1
     7     2    28    1
     8     3     4    1
     9     3     6    1
    10     3    49    1
    11     4     5    1
    12     4    29    1
    13     4    30    1
    14     5    31    1
    15     5    32    1
    16     5    33    1
    17     6     7    1
    18     6    34    1
    19     6    35    1
    20     7     8    1
    21     7    36    1
    22     7    37    1
    23     8     9    1
    24     8    38    1
    25     8    39    1
    26     9    10    1
    27     9    11    1
    28     9    12    1
    29    11    40    1
    30    11    41    1
    31    11    42    1
    32    12    13    1
    33    12    43    1
    34    13    18    2
    35    13    14    1
    36    14    15    2
    37    14    44    1
    38    15    16    1
    39    15    45    1
    40    16    17    1
    41    16    50    1
    42    17    22    1
    43    17    18    1
    44    18    19    1
    45    19    20    2
    46    19    46    1
    47    20    21    1
    48    20    47    1
    49    21    22    2
    50    21    23    1
    51    22    48    1
