@<TRIPOS>MOLECULE
ZINC00001145
 31 32 0 0 0
SMALL
GASTEIGER

@<TRIPOS>ATOM
      1 C           0.6700   -0.0563    0.0467 C.3     1  UNL1       -0.0395
      2 C           0.3928    0.2977   -1.3795 C.ar    1  UNL1       -0.0435
      3 C          -0.0280   -0.7459   -2.2924 C.ar    1  UNL1       -0.0354
      4 C          -0.3206   -0.4900   -3.5872 C.ar    1  UNL1        0.0697
      5 N          -0.1838    0.8271   -4.0308 N.ar    1  UNL1       -0.0973
      6 C           0.2217    1.9093   -3.2376 C.ar    1  UNL1        0.2877
      7 O           0.3697    3.0932   -3.5543 O.2     1  UNL1       -0.2645
      8 C           0.4997    1.5589   -1.8225 C.ar    1  UNL1        0.0089
      9 O          -0.4947    1.1046   -5.3543 O.3     1  UNL1       -0.1606
     10 C          -0.8111   -1.6376   -4.4847 C.3     1  UNL1        0.0030
     11 C          -2.3136   -1.5194   -4.8143 C.3     1  UNL1       -0.0447
     12 C          -2.8068   -2.6350   -5.7337 C.3     1  UNL1       -0.0525
     13 C          -1.9396   -2.7582   -6.9788 C.3     1  UNL1       -0.0530
     14 C          -0.4864   -3.0281   -6.6040 C.3     1  UNL1       -0.0525
     15 C           0.0763   -1.9215   -5.7167 C.3     1  UNL1       -0.0447
     16 H           0.1096   -0.9416    0.3656 H       1  UNL1        0.0278
     17 H           0.3851    0.7616    0.7187 H       1  UNL1        0.0278
     18 H           1.7376   -0.2568    0.1860 H       1  UNL1        0.0278
     19 H          -0.1343   -1.7488   -1.8958 H       1  UNL1        0.0639
     20 H           0.7990    2.3861   -1.1937 H       1  UNL1        0.0675
     21 H          -0.7380   -2.5616   -3.8867 H       1  UNL1        0.0364
     22 H          -2.8973   -1.5452   -3.8846 H       1  UNL1        0.0272
     23 H          -2.5433   -0.5586   -5.2905 H       1  UNL1        0.0272
     24 H          -3.8450   -2.4374   -6.0244 H       1  UNL1        0.0265
     25 H          -2.8058   -3.5883   -5.1895 H       1  UNL1        0.0265
     26 H          -2.0060   -1.8347   -7.5672 H       1  UNL1        0.0265
     27 H          -2.3139   -3.5699   -7.6128 H       1  UNL1        0.0265
     28 H           0.1185   -3.1050   -7.5155 H       1  UNL1        0.0265
     29 H          -0.4099   -3.9914   -6.0865 H       1  UNL1        0.0265
     30 H           0.1969   -1.0374   -6.3474 H       1  UNL1        0.0272
     31 H           1.0848   -2.1980   -5.3867 H       1  UNL1        0.0272
@<TRIPOS>BOND
     1     1     2    1
     2     1    16    1
     3     1    17    1
     4     1    18    1
     5     2     8   ar
     6     2     3   ar
     7     3     4   ar
     8     3    19    1
     9     4     5   ar
    10     4    10    1
    11     5     6   ar
    12     5     9    1
    13     6     7    2
    14     6     8   ar
    15     8    20    1
    16    10    15    1
    17    10    11    1
    18    10    21    1
    19    11    12    1
    20    11    22    1
    21    11    23    1
    22    12    13    1
    23    12    24    1
    24    12    25    1
    25    13    14    1
    26    13    26    1
    27    13    27    1
    28    14    15    1
    29    14    28    1
    30    14    29    1
    31    15    30    1
    32    15    31    1
