@<TRIPOS>MOLECULE
ZINC00039089
 27 27 0 0 0
SMALL
GASTEIGER

@<TRIPOS>ATOM
      1 C           1.0406    2.0533   -0.6113 C.3     1  UNL1       -0.0448
      2 N           0.6000    0.6923   -0.9986 N.4     1  UNL1        0.2269
      3 C           1.0537    0.2427   -2.3656 C.3     1  UNL1       -0.0030
      4 C           0.5858   -1.2115   -2.5879 C.3     1  UNL1        0.1198
      5 H          -0.5098   -1.2313   -2.5463 H       1  UNL1        0.0698
      6 C           1.0566   -1.8020   -3.8940 C.ar    1  UNL1       -0.0104
      7 C           0.1059   -2.2637   -4.8262 C.ar    1  UNL1       -0.0523
      8 C           0.5068   -2.7863   -6.0574 C.ar    1  UNL1       -0.0162
      9 C           1.8537   -2.8483   -6.3612 C.ar    1  UNL1        0.1582
     10 C           2.8105   -2.4091   -5.4524 C.ar    1  UNL1        0.1586
     11 C           2.4241   -1.8970   -4.2153 C.ar    1  UNL1       -0.0107
     12 O           4.1206   -2.4936   -5.8287 O.3     1  UNL1       -0.5033
     13 O           2.2373   -3.3507   -7.5714 O.3     1  UNL1       -0.5033
     14 O           1.0385   -1.9916   -1.4756 O.3     1  UNL1       -0.3819
     15 H           2.1191    2.0299   -0.4381 H       1  UNL1        0.0777
     16 H           0.5086    2.3247    0.3032 H       1  UNL1        0.0777
     17 H           0.7835    2.7430   -1.4192 H       1  UNL1        0.0777
     18 H           0.9516   -0.0130   -0.3277 H       1  UNL1        0.2012
     19 H           0.6313    0.9296   -3.1056 H       1  UNL1        0.0843
     20 H           2.1459    0.3211   -2.3557 H       1  UNL1        0.0843
     21 H          -0.9611   -2.2252   -4.6104 H       1  UNL1        0.0622
     22 H          -0.2280   -3.1421   -6.7757 H       1  UNL1        0.0655
     23 H           3.1817   -1.5778   -3.5049 H       1  UNL1        0.0659
     24 H           4.6909   -2.1569   -5.1176 H       1  UNL1        0.2923
     25 H           3.2146   -3.3153   -7.5694 H       1  UNL1        0.2923
     26 H           0.9543   -2.9328   -1.7338 H       1  UNL1        0.2105
     27 H          -0.4242    0.6290   -0.9374 H       1  UNL1        0.2012
@<TRIPOS>UNITY_ATOM_ATTR
2 1
charge 1
@<TRIPOS>BOND
     1     1     2    1
     2     1    15    1
     3     1    16    1
     4     1    17    1
     5     2     3    1
     6     2    18    1
     7     2    27    1
     8     3     4    1
     9     3    19    1
    10     3    20    1
    11     4     5    1
    12     4     6    1
    13     4    14    1
    14     6    11   ar
    15     6     7   ar
    16     7     8   ar
    17     7    21    1
    18     8     9   ar
    19     8    22    1
    20     9    10   ar
    21     9    13    1
    22    10    11   ar
    23    10    12    1
    24    11    23    1
    25    12    24    1
    26    13    25    1
    27    14    26    1
