@<TRIPOS>MOLECULE
ZINC00057254
 41 42 0 0 0
SMALL
GASTEIGER

@<TRIPOS>ATOM
      1 C           7.0999    0.5531   -1.9892 C.3     1  UNL1       -0.0433
      2 C           7.4245   -1.0108   -3.9101 C.3     1  UNL1       -0.0433
      3 C           5.1799    0.1269   -3.5969 C.3     1  UNL1       -0.0291
      4 C           4.5202   -0.9578   -2.7470 C.3     1  UNL1        0.0247
      5 C           2.9603   -0.9569   -2.8630 C.3     1  UNL1        0.1220
      6 C           2.3064   -1.8110   -1.7567 C.ar    1  UNL1       -0.0115
      7 C           0.9255   -1.7103   -1.5193 C.ar    1  UNL1       -0.0555
      8 C           0.3375   -2.3047   -0.3909 C.ar    1  UNL1       -0.0614
      9 C           1.1116   -3.0168    0.5148 C.ar    1  UNL1       -0.0617
     10 C           2.4696   -3.1850    0.2713 C.ar    1  UNL1       -0.0614
     11 C           3.0549   -2.6067   -0.8633 C.ar    1  UNL1       -0.0555
     12 C           2.5456   -1.3532   -4.3029 C.ar    1  UNL1        0.0068
     13 C           2.9844   -2.6027   -4.7908 C.ar    1  UNL1       -0.0541
     14 C           2.8206   -2.9701   -6.1397 C.ar    1  UNL1       -0.0613
     15 C           2.1959   -2.1026   -7.0344 C.ar    1  UNL1       -0.0604
     16 C           1.6859   -0.9020   -6.5611 C.ar    1  UNL1       -0.0430
     17 C           1.8343   -0.5391   -5.2098 C.ar    1  UNL1        0.0472
     18 CL          1.0933    0.9605   -4.7783 Cl      1  UNL1       -0.0832
     19 O           2.6643    0.3947   -2.4804 O.3     1  UNL1       -0.3790
     20 H           6.8902   -0.2871   -1.3229 H       1  UNL1        0.0777
     21 H           8.1727    0.7644   -2.0019 H       1  UNL1        0.0777
     22 H           6.5459    1.4463   -1.6899 H       1  UNL1        0.0777
     23 H           7.2200   -1.8645   -3.2600 H       1  UNL1        0.0777
     24 H           7.0876   -1.2029   -4.9319 H       1  UNL1        0.0777
     25 H           8.4915   -0.7734   -3.9078 H       1  UNL1        0.0777
     26 H           4.8105    1.1293   -3.3535 H       1  UNL1        0.0815
     27 H           5.0242   -0.0402   -4.6683 H       1  UNL1        0.0815
     28 H           4.9388   -1.9407   -2.9884 H       1  UNL1        0.0352
     29 H           4.7811   -0.7449   -1.7036 H       1  UNL1        0.0352
     30 H           0.2899   -1.1173   -2.1763 H       1  UNL1        0.0621
     31 H          -0.7275   -2.1791   -0.2074 H       1  UNL1        0.0618
     32 H           0.6661   -3.4321    1.4126 H       1  UNL1        0.0618
     33 H           3.0812   -3.7424    0.9766 H       1  UNL1        0.0618
     34 H           4.1266   -2.7624   -0.9848 H       1  UNL1        0.0621
     35 H           3.4695   -3.3236   -4.1359 H       1  UNL1        0.0622
     36 H           3.1824   -3.9374   -6.4898 H       1  UNL1        0.0618
     37 H           2.0887   -2.3790   -8.0778 H       1  UNL1        0.0618
     38 H           1.1679   -0.2472   -7.2552 H       1  UNL1        0.0632
     39 H           2.0845    0.7985   -3.1466 H       1  UNL1        0.2111
     40 N           6.6877    0.1887   -3.3902 N.4     1  UNL1        0.2310
     41 H           6.9947    0.9774   -3.9743 H       1  UNL1        0.2028
@<TRIPOS>UNITY_ATOM_ATTR
40 1
charge 1
@<TRIPOS>BOND
     1     1    20    1
     2     1    21    1
     3     1    22    1
     4     1    40    1
     5     2    23    1
     6     2    24    1
     7     2    25    1
     8     2    40    1
     9     3     4    1
    10     3    26    1
    11     3    27    1
    12     3    40    1
    13     4    28    1
    14     4    29    1
    15     5    12    1
    16     5    19    1
    17     6    11   ar
    18     6     7   ar
    19     7     8   ar
    20     7    30    1
    21     8     9   ar
    22     8    31    1
    23     9    10   ar
    24     9    32    1
    25    10    11   ar
    26    10    33    1
    27    11    34    1
    28    12    17   ar
    29    12    13   ar
    30    13    14   ar
    31    13    35    1
    32    14    15   ar
    33    14    36    1
    34    15    16   ar
    35    15    37    1
    36    16    17   ar
    37    16    38    1
    38    17    18    1
    39    19    39    1
    40    40    41    1
    41     5     6    1
    42     5     4    1
