@<TRIPOS>MOLECULE
ZINC01534965
 54 57 0 0 0
SMALL
GASTEIGER

@<TRIPOS>ATOM
      1 C         -14.9441   -0.5122    0.7403 C.ar    1  UNL1       -0.0611
      2 C         -15.2111    0.1069    1.9463 C.ar    1  UNL1       -0.0597
      3 C         -14.1854    0.2401    2.8782 C.ar    1  UNL1       -0.0357
      4 C         -12.9125   -0.2710    2.6589 C.ar    1  UNL1        0.0719
      5 C         -12.6202   -0.9619    1.4655 C.ar    1  UNL1        0.0087
      6 C         -13.6641   -1.0020    0.4897 C.ar    1  UNL1       -0.0520
      7 C         -11.3087   -1.5570    1.3353 C.ar    1  UNL1        0.0001
      8 C         -10.3821   -1.3682    2.4153 C.ar    1  UNL1        0.0046
      9 C         -10.7706   -0.5770    3.5202 C.ar    1  UNL1        0.0527
     10 N         -12.0227   -0.0673    3.6292 N.ar    1  UNL1       -0.2507
     11 C          -9.8481   -0.2858    4.7056 C.3     1  UNL1        0.0020
     12 C          -8.7688    0.7714    4.6102 C.3     1  UNL1       -0.0442
     13 C          -9.9779    1.0280    5.4536 C.3     1  UNL1       -0.0442
     14 C          -9.0140   -1.9388    2.4616 C.2     1  UNL1       -0.0538
     15 C          -8.7161   -3.2180    2.1876 C.2     1  UNL1       -0.0552
     16 C          -7.3236   -3.7863    2.1976 C.3     1  UNL1        0.0760
     17 H          -6.7385   -3.3547    1.3776 H       1  UNL1        0.0638
     18 C          -7.3074   -5.3164    2.1070 C.3     1  UNL1        0.0034
     19 C          -7.7864   -5.8509    0.7474 C.3     1  UNL1        0.0681
     20 H          -8.7599   -5.4282    0.4810 H       1  UNL1        0.0599
     21 C          -7.8592   -7.3714    0.7177 C.3     1  UNL1        0.0752
     22 C          -8.9156   -7.8562    1.7028 C.2     1  UNL1        0.3585
     23 O         -10.0668   -7.3605    1.5603 O.co2   1  UNL1       -0.2463
     24 O          -8.4942   -8.6810    2.5618 O.co2   1  UNL1       -0.2463
     25 O          -6.8667   -5.4051   -0.2647 O.3     1  UNL1       -0.3911
     26 O          -6.6973   -3.3883    3.4223 O.3     1  UNL1       -0.3877
     27 C         -10.9619   -2.3492    0.0983 C.ar    1  UNL1       -0.0165
     28 C         -11.8499   -3.3112   -0.4359 C.ar    1  UNL1       -0.0513
     29 C         -11.5959   -3.9654   -1.6474 C.ar    1  UNL1       -0.0259
     30 C         -10.3858   -3.7642   -2.2879 C.ar    1  UNL1        0.1234
     31 C          -9.4394   -2.9088   -1.7469 C.ar    1  UNL1       -0.0259
     32 C          -9.7449   -2.1759   -0.5917 C.ar    1  UNL1       -0.0513
     33 F         -10.1324   -4.3947   -3.4427 F       1  UNL1       -0.2055
     34 H         -15.7238   -0.6239   -0.0089 H       1  UNL1        0.0618
     35 H         -16.2016    0.4948    2.1634 H       1  UNL1        0.0618
     36 H         -14.3887    0.7472    3.8198 H       1  UNL1        0.0639
     37 H         -13.4936   -1.4425   -0.4854 H       1  UNL1        0.0624
     38 H          -9.6244   -1.1531    5.3232 H       1  UNL1        0.0364
     39 H          -7.8292    0.5791    5.1160 H       1  UNL1        0.0272
     40 H          -8.6683    1.3326    3.6884 H       1  UNL1        0.0272
     41 H         -10.6935    1.7613    5.0964 H       1  UNL1        0.0272
     42 H          -9.8710    1.0050    6.5311 H       1  UNL1        0.0272
     43 H          -8.2159   -1.2668    2.7704 H       1  UNL1        0.0622
     44 H          -9.5115   -3.8984    1.8884 H       1  UNL1        0.0598
     45 H          -6.2825   -5.6615    2.2963 H       1  UNL1        0.0318
     46 H          -7.9187   -5.7221    2.9227 H       1  UNL1        0.0318
     47 H          -8.1215   -7.7196   -0.2884 H       1  UNL1        0.0404
     48 H          -6.8793   -7.8085    0.9476 H       1  UNL1        0.0404
     49 H          -6.1477   -6.0590   -0.2939 H       1  UNL1        0.2098
     50 H          -7.2426   -3.7746    4.1302 H       1  UNL1        0.2102
     51 H         -12.7763   -3.5531    0.0817 H       1  UNL1        0.0624
     52 H         -12.3283   -4.6411   -2.0762 H       1  UNL1        0.0646
     53 H          -8.4664   -2.8199   -2.2186 H       1  UNL1        0.0646
     54 H          -8.9873   -1.4937   -0.2124 H       1  UNL1        0.0624
@<TRIPOS>BOND
     1     1     6   ar
     2     1     2   ar
     3     1    34    1
     4     2     3   ar
     5     2    35    1
     6     3     4   ar
     7     3    36    1
     8     4    10   ar
     9     4     5   ar
    10     5     6   ar
    11     5     7   ar
    12     6    37    1
    13     7     8   ar
    14     7    27    1
    15     8     9   ar
    16     8    14    1
    17     9    10   ar
    18     9    11    1
    19    11    13    1
    20    11    12    1
    21    11    38    1
    22    12    13    1
    23    12    39    1
    24    12    40    1
    25    13    41    1
    26    13    42    1
    27    14    15    2
    28    14    43    1
    29    15    44    1
    30    16    18    1
    31    16    26    1
    32    18    45    1
    33    18    46    1
    34    19    21    1
    35    19    25    1
    36    21    22    1
    37    21    47    1
    38    21    48    1
    39    22    23   ar
    40    22    24   ar
    41    25    49    1
    42    26    50    1
    43    27    32   ar
    44    27    28   ar
    45    28    29   ar
    46    28    51    1
    47    29    30   ar
    48    29    52    1
    49    30    31   ar
    50    30    33    1
    51    31    32   ar
    52    31    53    1
    53    32    54    1
    54    16    17    1
    55    16    15    1
    56    19    20    1
    57    19    18    1
