@<TRIPOS>MOLECULE
ZINC00403609
 46 47 0 0 0
SMALL
GASTEIGER

@<TRIPOS>ATOM
      1 C           4.1122   -0.7042    6.2150 C.3     1  UNL1       -0.0193
      2 C           4.7871   -0.2241    4.9341 C.3     1  UNL1       -0.0203
      3 C           4.8757    1.3053    4.8932 C.3     1  UNL1       -0.0193
      4 C           6.2126   -0.8035    4.9011 C.3     1  UNL1       -0.0193
      5 N           4.0393   -0.7848    3.7284 N.4     1  UNL1        0.2327
      6 C           3.0472    0.0256    2.9226 C.3     1  UNL1       -0.0033
      7 C           1.5822   -0.4219    3.0899 C.3     1  UNL1        0.1285
      8 H           1.0166    0.0340    2.2678 H       1  UNL1        0.0681
      9 C           0.8975   -0.0381    4.4047 C.3     1  UNL1        0.1221
     10 O           1.1266    1.3489    4.7097 O.3     1  UNL1       -0.4708
     11 C           0.8831    1.6907    6.0176 C.ar    1  UNL1        0.2652
     12 C           0.6309    3.0365    6.5546 C.ar    1  UNL1        0.1942
     13 N           0.5502    3.0095    7.8930 N.ar    1  UNL1       -0.1717
     14 S           0.7100    1.4450    8.3914 S.2     1  UNL1        0.1206
     15 N           0.9612    0.7131    6.9235 N.ar    1  UNL1       -0.1530
     16 N           0.4480    4.2167    5.8639 N.pl3   1  UNL1       -0.3060
     17 C           0.9460    4.4931    4.5090 C.3     1  UNL1        0.0372
     18 C           2.1828    5.4323    4.5339 C.3     1  UNL1        0.0634
     19 O           2.0697    6.5475    5.4302 O.3     1  UNL1       -0.3767
     20 C           1.6466    6.1420    6.7412 C.3     1  UNL1        0.0634
     21 C           0.2807    5.4623    6.6390 C.3     1  UNL1        0.0372
     22 O           1.5526   -1.8477    2.9044 O.3     1  UNL1       -0.3831
     23 H           4.6213   -0.3066    7.1008 H       1  UNL1        0.0287
     24 H           4.1191   -1.7960    6.2939 H       1  UNL1        0.0287
     25 H           3.0794   -0.3740    6.2659 H       1  UNL1        0.0287
     26 H           5.4159    1.6860    5.7678 H       1  UNL1        0.0287
     27 H           5.4132    1.6512    4.0026 H       1  UNL1        0.0287
     28 H           3.8911    1.7815    4.9122 H       1  UNL1        0.0287
     29 H           6.1976   -1.8974    4.8394 H       1  UNL1        0.0287
     30 H           6.7813   -0.4254    4.0450 H       1  UNL1        0.0287
     31 H           6.7663   -0.5318    5.8087 H       1  UNL1        0.0287
     32 H           4.7560   -1.0817    3.0512 H       1  UNL1        0.2020
     33 H           3.1998    1.0928    3.0586 H       1  UNL1        0.0841
     34 H           3.3218   -0.2088    1.8861 H       1  UNL1        0.0841
     35 H          -0.1874   -0.1891    4.3040 H       1  UNL1        0.0725
     36 H           1.2349   -0.7316    5.1779 H       1  UNL1        0.0725
     37 H           0.1413    5.0016    3.9657 H       1  UNL1        0.0487
     38 H           1.1883    3.5983    3.9311 H       1  UNL1        0.0487
     39 H           3.0880    4.8727    4.7876 H       1  UNL1        0.0575
     40 H           2.3238    5.8513    3.5330 H       1  UNL1        0.0575
     41 H           1.5799    7.0353    7.3689 H       1  UNL1        0.0575
     42 H           2.4051    5.4777    7.1783 H       1  UNL1        0.0575
     43 H          -0.4117    6.1125    6.0910 H       1  UNL1        0.0487
     44 H          -0.1592    5.2969    7.6267 H       1  UNL1        0.0487
     45 H           0.7453   -2.0663    2.4015 H       1  UNL1        0.2102
     46 H           3.5730   -1.6781    3.9696 H       1  UNL1        0.2020
@<TRIPOS>UNITY_ATOM_ATTR
5 1
charge 1
@<TRIPOS>BOND
     1     1     2    1
     2     1    23    1
     3     1    24    1
     4     1    25    1
     5     2     3    1
     6     2     4    1
     7     2     5    1
     8     3    26    1
     9     3    27    1
    10     3    28    1
    11     4    29    1
    12     4    30    1
    13     4    31    1
    14     5     6    1
    15     5    32    1
    16     5    46    1
    17     6    33    1
    18     6    34    1
    19     7     9    1
    20     7    22    1
    21     9    10    1
    22     9    35    1
    23     9    36    1
    24    10    11    1
    25    11    15   ar
    26    11    12   ar
    27    12    13   ar
    28    12    16    1
    29    13    14   ar
    30    14    15   ar
    31    16    21    1
    32    16    17    1
    33    17    18    1
    34    17    37    1
    35    17    38    1
    36    18    19    1
    37    18    39    1
    38    18    40    1
    39    19    20    1
    40    20    21    1
    41    20    41    1
    42    20    42    1
    43    21    43    1
    44    21    44    1
    45    22    45    1
    46     7     8    1
    47     7     6    1
