@<TRIPOS>MOLECULE
ZINC00057320
 44 45 0 0 0
SMALL
GASTEIGER

@<TRIPOS>ATOM
      1 C           0.8109   -1.3310    2.2761 C.3     1  UNL1       -0.0213
      2 C           0.3886   -1.2491    0.8064 C.3     1  UNL1       -0.0214
      3 H           0.8036   -0.3418    0.3536 H       1  UNL1        0.0851
      4 C          -1.1498   -1.3023    0.6431 C.3     1  UNL1        0.0152
      5 C          -1.8780   -0.1802    1.3520 C.ar    1  UNL1       -0.0418
      6 C          -2.8037   -0.4631    2.3705 C.ar    1  UNL1       -0.0549
      7 C          -3.4303    0.5704    3.0754 C.ar    1  UNL1       -0.0199
      8 C          -3.1372    1.8902    2.7578 C.ar    1  UNL1        0.1169
      9 C          -2.2605    2.1910    1.7237 C.ar    1  UNL1       -0.0199
     10 C          -1.6366    1.1608    1.0163 C.ar    1  UNL1       -0.0549
     11 O          -3.6884    2.9310    3.4418 O.3     1  UNL1       -0.5068
     12 N           1.0525   -2.4149    0.1020 N.4     1  UNL1        0.2313
     13 C           0.8864   -2.5249   -1.3991 C.3     1  UNL1       -0.0025
     14 C           1.7032   -3.7372   -1.9077 C.3     1  UNL1        0.1199
     15 H           1.3103   -4.6529   -1.4479 H       1  UNL1        0.0698
     16 C           1.6387   -3.8793   -3.4094 C.ar    1  UNL1       -0.0072
     17 C           0.6151   -4.6514   -3.9814 C.ar    1  UNL1       -0.0141
     18 C           0.4998   -4.7671   -5.3651 C.ar    1  UNL1        0.1207
     19 C           1.4001   -4.1366   -6.2156 C.ar    1  UNL1        0.0213
     20 C           2.4166   -3.3717   -5.6548 C.ar    1  UNL1        0.1207
     21 C           2.5405   -3.2346   -4.2683 C.ar    1  UNL1       -0.0141
     22 O           3.3324   -2.7262   -6.4294 O.3     1  UNL1       -0.5066
     23 O          -0.5335   -5.5172   -5.8422 O.3     1  UNL1       -0.5066
     24 O           3.0420   -3.6088   -1.4146 O.3     1  UNL1       -0.3819
     25 H           0.3884   -0.5092    2.8631 H       1  UNL1        0.0284
     26 H           1.8998   -1.2703    2.3750 H       1  UNL1        0.0284
     27 H           0.4819   -2.2714    2.7330 H       1  UNL1        0.0284
     28 H          -1.4250   -1.2470   -0.4167 H       1  UNL1        0.0368
     29 H          -1.5196   -2.2706    1.0053 H       1  UNL1        0.0368
     30 H          -3.0478   -1.4899    2.6360 H       1  UNL1        0.0621
     31 H          -4.1390    0.3296    3.8630 H       1  UNL1        0.0654
     32 H          -2.0614    3.2307    1.4747 H       1  UNL1        0.0654
     33 H          -0.9619    1.4308    0.2078 H       1  UNL1        0.0621
     34 H          -4.2009    2.5883    4.1931 H       1  UNL1        0.2921
     35 H           2.0781   -2.3640    0.2441 H       1  UNL1        0.2017
     36 H          -0.1771   -2.6442   -1.6181 H       1  UNL1        0.0843
     37 H           1.2632   -1.5851   -1.8159 H       1  UNL1        0.0843
     38 H          -0.1096   -5.1769   -3.3617 H       1  UNL1        0.0658
     39 H           1.3062   -4.2330   -7.2915 H       1  UNL1        0.0691
     40 H           3.3496   -2.6192   -3.8802 H       1  UNL1        0.0658
     41 H           3.1733   -2.9367   -7.3668 H       1  UNL1        0.2921
     42 H          -0.5168   -5.5136   -6.8151 H       1  UNL1        0.2921
     43 H           3.6028   -4.2105   -1.9477 H       1  UNL1        0.2105
     44 H           0.7804   -3.3008    0.5473 H       1  UNL1        0.2017
@<TRIPOS>UNITY_ATOM_ATTR
12 1
charge 1
@<TRIPOS>BOND
     1     1    25    1
     2     1    26    1
     3     1    27    1
     4     2     4    1
     5     2    12    1
     6     4     5    1
     7     4    28    1
     8     4    29    1
     9     5    10   ar
    10     5     6   ar
    11     6     7   ar
    12     6    30    1
    13     7     8   ar
    14     7    31    1
    15     8     9   ar
    16     8    11    1
    17     9    10   ar
    18     9    32    1
    19    10    33    1
    20    11    34    1
    21    12    13    1
    22    12    35    1
    23    12    44    1
    24    13    14    1
    25    13    36    1
    26    13    37    1
    27    14    15    1
    28    14    16    1
    29    14    24    1
    30    16    21   ar
    31    16    17   ar
    32    17    18   ar
    33    17    38    1
    34    18    19   ar
    35    18    23    1
    36    19    20   ar
    37    19    39    1
    38    20    21   ar
    39    20    22    1
    40    21    40    1
    41    22    41    1
    42    23    42    1
    43    24    43    1
    44     2     3    1
    45     2     1    1
