@<TRIPOS>MOLECULE
ZINC00113410
 39 40 0 0 0
SMALL
GASTEIGER

@<TRIPOS>ATOM
      1 C           0.3986    3.9427    3.7493 C.3     1  UNL1       -0.0433
      2 N           0.0029    2.8753    4.7264 N.4     1  UNL1        0.2309
      3 C           0.3453    3.2480    6.1360 C.3     1  UNL1       -0.0433
      4 C          -1.3830    2.3268    4.5539 C.3     1  UNL1       -0.0315
      5 C          -1.5740    1.5219    3.2597 C.3     1  UNL1       -0.0003
      6 C          -0.6908    0.2725    2.9812 C.3     1  UNL1        0.0312
      7 H          -1.0656   -0.1099    2.0197 H       1  UNL1        0.0414
      8 C          -0.8708   -0.8693    3.9817 C.ar    1  UNL1       -0.0382
      9 C          -1.4611   -2.0759    3.5680 C.ar    1  UNL1       -0.0566
     10 C          -1.4638   -3.1951    4.4087 C.ar    1  UNL1       -0.0431
     11 C          -0.8910   -3.1184    5.6744 C.ar    1  UNL1        0.0410
     12 C          -0.3590   -1.9165    6.1272 C.ar    1  UNL1       -0.0431
     13 C          -0.3583   -0.8033    5.2889 C.ar    1  UNL1       -0.0566
     14 CL         -0.7936   -4.5146    6.6697 Cl      1  UNL1       -0.0835
     15 C           0.7895    0.6064    2.7361 C.ar    1  UNL1        0.0488
     16 C           1.3380    0.5718    1.4656 C.ar    1  UNL1       -0.0398
     17 C           2.6843    0.9170    1.3033 C.ar    1  UNL1       -0.0586
     18 C           3.4543    1.2629    2.4086 C.ar    1  UNL1       -0.0436
     19 C           2.8463    1.2577    3.6399 C.ar    1  UNL1        0.0279
     20 N           1.5284    0.9928    3.8222 N.ar    1  UNL1       -0.2593
     21 H          -0.1580    4.8530    3.9781 H       1  UNL1        0.0777
     22 H           0.1843    3.5972    2.7364 H       1  UNL1        0.0777
     23 H           1.4759    4.1045    3.8498 H       1  UNL1        0.0777
     24 H          -0.1822    4.1679    6.3958 H       1  UNL1        0.0777
     25 H           0.0553    2.4243    6.7930 H       1  UNL1        0.0777
     26 H           1.4289    3.3853    6.1872 H       1  UNL1        0.0777
     27 H          -1.6083    1.7033    5.4241 H       1  UNL1        0.0814
     28 H          -2.0670    3.1828    4.5765 H       1  UNL1        0.0814
     29 H          -2.6234    1.1912    3.2549 H       1  UNL1        0.0326
     30 H          -1.4893    2.2051    2.4047 H       1  UNL1        0.0326
     31 H          -1.8863   -2.1814    2.5707 H       1  UNL1        0.0621
     32 H          -1.8840   -4.1350    4.0579 H       1  UNL1        0.0632
     33 H           0.0953   -1.8512    7.1121 H       1  UNL1        0.0632
     34 H           0.1211    0.0934    5.6649 H       1  UNL1        0.0621
     35 H           0.7565    0.2718    0.5978 H       1  UNL1        0.0636
     36 H           3.1393    0.8957    0.3153 H       1  UNL1        0.0619
     37 H           4.5057    1.5130    2.3096 H       1  UNL1        0.0633
     38 H           3.4046    1.4921    4.5452 H       1  UNL1        0.0829
     39 H           0.6421    2.0834    4.5245 H       1  UNL1        0.2028
@<TRIPOS>UNITY_ATOM_ATTR
2 1
charge 1
@<TRIPOS>BOND
     1     1     2    1
     2     1    21    1
     3     1    22    1
     4     1    23    1
     5     2     3    1
     6     2     4    1
     7     2    39    1
     8     3    24    1
     9     3    25    1
    10     3    26    1
    11     4     5    1
    12     4    27    1
    13     4    28    1
    14     5    29    1
    15     5    30    1
    16     6     8    1
    17     6    15    1
    18     8    13   ar
    19     8     9   ar
    20     9    10   ar
    21     9    31    1
    22    10    11   ar
    23    10    32    1
    24    11    12   ar
    25    11    14    1
    26    12    13   ar
    27    12    33    1
    28    13    34    1
    29    15    20   ar
    30    15    16   ar
    31    16    17   ar
    32    16    35    1
    33    17    18   ar
    34    17    36    1
    35    18    19   ar
    36    18    37    1
    37    19    20   ar
    38    19    38    1
    39     6     7    1
    40     6     5    1
