@<TRIPOS>MOLECULE
ZINC03830635
 88 87 0 0 0
SMALL
GASTEIGER

@<TRIPOS>ATOM
      1 C          -7.4885   -5.8999    5.3055 C.3     1  UNL1        0.0143
      2 C          -7.1841   -6.6768    4.0445 C.2     1  UNL1        0.2349
      3 O          -7.0162   -7.8997    4.0942 O.2     1  UNL1       -0.2738
      4 N          -6.9676   -5.9200    2.8935 N.am    1  UNL1       -0.1841
      5 C          -6.8401   -6.5869    1.5994 C.3     1  UNL1        0.0417
      6 C          -5.9425   -5.8255    0.5976 C.3     1  UNL1       -0.0348
      7 C          -5.7591   -6.6714   -0.6747 C.3     1  UNL1       -0.0501
      8 C          -5.0958   -6.0161   -1.8979 C.3     1  UNL1       -0.0373
      9 C          -3.6425   -5.5371   -1.8060 C.3     1  UNL1        0.0116
     10 N          -2.6185   -6.5779   -1.9201 N.am    1  UNL1       -0.3153
     11 C          -1.6006   -6.6421   -0.9959 C.2     1  UNL1        0.2135
     12 O          -1.6505   -6.0287    0.0725 O.2     1  UNL1       -0.2758
     13 C          -0.3963   -7.5458   -1.2537 C.3     1  UNL1        0.0323
     14 C          -0.1491   -8.1423   -2.6239 C.3     1  UNL1        0.0344
     15 C           0.1959   -7.1343   -3.6993 C.2     1  UNL1        0.2385
     16 O          -0.6908   -6.7552   -4.4760 O.2     1  UNL1       -0.2735
     17 N           1.4984   -6.6534   -3.8097 N.am    1  UNL1       -0.1838
     18 C           2.7113   -7.3431   -3.3605 C.3     1  UNL1        0.0417
     19 C           4.0353   -6.5597   -3.4660 C.3     1  UNL1       -0.0348
     20 C           4.2137   -5.3191   -2.5777 C.3     1  UNL1       -0.0501
     21 C           4.0240   -5.5194   -1.0694 C.3     1  UNL1       -0.0373
     22 C           4.9113   -6.5768   -0.3981 C.3     1  UNL1        0.0116
     23 N           6.3033   -6.1866   -0.1749 N.am    1  UNL1       -0.3153
     24 C           7.3468   -7.0893   -0.3247 C.2     1  UNL1        0.2135
     25 O           7.2097   -8.1871   -0.8637 O.2     1  UNL1       -0.2758
     26 C           8.6650   -6.6616    0.3134 C.3     1  UNL1        0.0323
     27 C           9.8787   -7.3414   -0.3404 C.3     1  UNL1        0.0344
     28 C          11.1801   -7.0357    0.3805 C.2     1  UNL1        0.2385
     29 O          11.3674   -5.9470    0.9397 O.2     1  UNL1       -0.2735
     30 N          12.1804   -8.0142    0.3911 N.am    1  UNL1       -0.1838
     31 C          12.4891   -8.9780   -0.6693 C.3     1  UNL1        0.0417
     32 C          11.7681  -10.3350   -0.6092 C.3     1  UNL1       -0.0346
     33 C          12.2065  -11.3684    0.4430 C.3     1  UNL1       -0.0468
     34 C          11.7476  -11.0807    1.8743 C.3     1  UNL1       -0.0126
     35 C          11.9732  -12.2896    2.7852 C.3     1  UNL1       -0.0354
     36 N          11.5284  -11.9577    4.1623 N.4     1  UNL1        0.2185
     37 O          13.4092   -7.4759    0.8945 O.3     1  UNL1       -0.2925
     38 O           1.7057   -6.0569   -5.0927 O.3     1  UNL1       -0.2925
     39 O          -7.8025   -4.7775    2.7905 O.3     1  UNL1       -0.2925
     40 H          -7.9404   -6.5704    6.0440 H       1  UNL1        0.0323
     41 H          -8.1841   -5.0765    5.1383 H       1  UNL1        0.0323
     42 H          -6.5508   -5.5111    5.7135 H       1  UNL1        0.0323
     43 H          -6.4218   -7.5860    1.7632 H       1  UNL1        0.0489
     44 H          -7.8506   -6.7204    1.1917 H       1  UNL1        0.0489
     45 H          -6.3984   -4.8569    0.3589 H       1  UNL1        0.0281
     46 H          -4.9698   -5.6186    1.0587 H       1  UNL1        0.0281
     47 H          -5.2318   -7.5970   -0.4212 H       1  UNL1        0.0266
     48 H          -6.7656   -6.9690   -1.0023 H       1  UNL1        0.0266
     49 H          -5.1730   -6.7278   -2.7295 H       1  UNL1        0.0280
     50 H          -5.7113   -5.1510   -2.1776 H       1  UNL1        0.0280
     51 H          -3.4614   -4.8910   -2.6759 H       1  UNL1        0.0462
     52 H          -3.4881   -4.9111   -0.9226 H       1  UNL1        0.0462
     53 H          -2.4231   -6.8927   -2.8664 H       1  UNL1        0.1487
     54 H           0.4899   -6.9755   -0.9495 H       1  UNL1        0.0363
     55 H          -0.5007   -8.3789   -0.5460 H       1  UNL1        0.0363
     56 H           0.6628   -8.8781   -2.5635 H       1  UNL1        0.0364
     57 H          -1.0234   -8.7110   -2.9619 H       1  UNL1        0.0364
     58 H           2.5570   -7.6759   -2.3312 H       1  UNL1        0.0489
     59 H           2.7980   -8.2471   -3.9767 H       1  UNL1        0.0489
     60 H           4.8537   -7.2552   -3.2431 H       1  UNL1        0.0281
     61 H           4.1945   -6.2501   -4.5089 H       1  UNL1        0.0281
     62 H           5.2207   -4.9163   -2.7508 H       1  UNL1        0.0266
     63 H           3.5164   -4.5420   -2.9166 H       1  UNL1        0.0266
     64 H           4.1696   -4.5503   -0.5717 H       1  UNL1        0.0280
     65 H           2.9752   -5.7915   -0.8981 H       1  UNL1        0.0280
     66 H           4.5043   -6.7595    0.6049 H       1  UNL1        0.0462
     67 H           4.8598   -7.5277   -0.9339 H       1  UNL1        0.0462
     68 H           6.4564   -5.3879    0.4317 H       1  UNL1        0.1487
     69 H           8.7643   -5.5721    0.2877 H       1  UNL1        0.0363
     70 H           8.6109   -6.9616    1.3697 H       1  UNL1        0.0363
     71 H           9.7162   -8.4177   -0.3605 H       1  UNL1        0.0364
     72 H           9.9818   -6.9959   -1.3746 H       1  UNL1        0.0364
     73 H          12.2484   -8.4922   -1.6218 H       1  UNL1        0.0489
     74 H          13.5718   -9.1627   -0.6728 H       1  UNL1        0.0489
     75 H          10.6867  -10.2047   -0.5470 H       1  UNL1        0.0281
     76 H          11.9563  -10.8100   -1.5826 H       1  UNL1        0.0281
     77 H          11.7639  -12.3282    0.1396 H       1  UNL1        0.0268
     78 H          13.2928  -11.5134    0.4134 H       1  UNL1        0.0268
     79 H          12.2889  -10.2147    2.2689 H       1  UNL1        0.0317
     80 H          10.6801  -10.8300    1.8737 H       1  UNL1        0.0317
     81 H          11.3867  -13.1590    2.4701 H       1  UNL1        0.0813
     82 H          13.0287  -12.5700    2.8530 H       1  UNL1        0.0813
     83 H          10.5307  -11.7089    4.1911 H       1  UNL1        0.1994
     84 H          11.6623  -12.7515    4.8032 H       1  UNL1        0.1994
     85 H          13.2377   -6.5054    0.8921 H       1  UNL1        0.2417
     86 H           0.8217   -6.1338   -5.5171 H       1  UNL1        0.2417
     87 H          -7.1471   -4.0575    2.7443 H       1  UNL1        0.2417
     88 H          12.0585  -11.1636    4.5464 H       1  UNL1        0.1994
@<TRIPOS>UNITY_ATOM_ATTR
36 1
charge 1
@<TRIPOS>BOND
     1     1     2    1
     2     1    40    1
     3     1    41    1
     4     1    42    1
     5     2     3    2
     6     2     4   am
     7     4     5    1
     8     4    39    1
     9     5     6    1
    10     5    43    1
    11     5    44    1
    12     6     7    1
    13     6    45    1
    14     6    46    1
    15     7     8    1
    16     7    47    1
    17     7    48    1
    18     8     9    1
    19     8    49    1
    20     8    50    1
    21     9    10    1
    22     9    51    1
    23     9    52    1
    24    10    11   am
    25    10    53    1
    26    11    12    2
    27    11    13    1
    28    13    14    1
    29    13    54    1
    30    13    55    1
    31    14    15    1
    32    14    56    1
    33    14    57    1
    34    15    16    2
    35    15    17   am
    36    17    18    1
    37    17    38    1
    38    18    19    1
    39    18    58    1
    40    18    59    1
    41    19    20    1
    42    19    60    1
    43    19    61    1
    44    20    21    1
    45    20    62    1
    46    20    63    1
    47    21    22    1
    48    21    64    1
    49    21    65    1
    50    22    23    1
    51    22    66    1
    52    22    67    1
    53    23    24   am
    54    23    68    1
    55    24    25    2
    56    24    26    1
    57    26    27    1
    58    26    69    1
    59    26    70    1
    60    27    28    1
    61    27    71    1
    62    27    72    1
    63    28    29    2
    64    28    30   am
    65    30    31    1
    66    30    37    1
    67    31    32    1
    68    31    73    1
    69    31    74    1
    70    32    33    1
    71    32    75    1
    72    32    76    1
    73    33    34    1
    74    33    77    1
    75    33    78    1
    76    34    35    1
    77    34    79    1
    78    34    80    1
    79    35    36    1
    80    35    81    1
    81    35    82    1
    82    36    83    1
    83    36    84    1
    84    36    88    1
    85    37    85    1
    86    38    86    1
    87    39    87    1
