@<TRIPOS>MOLECULE
ZINC03873296
 39 41 0 0 0
SMALL
GASTEIGER

@<TRIPOS>ATOM
      1 C           0.7933    0.1929    1.6182 C.ar    1  UNL1       -0.0429
      2 C           1.4142   -0.5694    0.6269 C.ar    1  UNL1       -0.0525
      3 C           2.1095   -1.7497    0.9507 C.ar    1  UNL1        0.0106
      4 C           2.1136   -2.1734    2.2892 C.ar    1  UNL1        0.0488
      5 C           1.4907   -1.4118    3.2818 C.ar    1  UNL1       -0.0247
      6 C           0.8400   -0.2288    2.9396 C.ar    1  UNL1        0.0424
      7 CL          0.0889    0.7186    4.1631 Cl      1  UNL1       -0.0835
      8 CL          2.8797   -3.6436    2.7777 Cl      1  UNL1       -0.0831
      9 C           2.7764   -2.5385   -0.1499 C.3     1  UNL1        0.1443
     10 O           3.2690   -1.6528   -1.1708 O.2     1  UNL1       -0.3887
     11 N           2.7478   -2.0135   -2.4190 N.2     1  UNL1       -0.0868
     12 C           3.5207   -1.7078   -3.4285 C.2     1  UNL1        0.1081
     13 C           2.9195   -2.0147   -4.8012 C.3     1  UNL1        0.0700
     14 N           2.0920   -0.9499   -5.3512 N.ar    1  UNL1       -0.3309
     15 C           1.3486   -0.0244   -4.6724 C.ar    1  UNL1        0.0244
     16 C           0.7878    0.7689   -5.6460 C.ar    1  UNL1        0.0454
     17 N           1.1779    0.3589   -6.8934 N.ar    1  UNL1       -0.2441
     18 C           1.9666   -0.6703   -6.6867 C.ar    1  UNL1        0.0962
     19 C           4.9505   -1.2062   -3.3478 C.ar    1  UNL1        0.0196
     20 C           5.7589   -1.6971   -2.3014 C.ar    1  UNL1       -0.0499
     21 C           7.1023   -1.3266   -2.1642 C.ar    1  UNL1       -0.0427
     22 C           7.6926   -0.5119   -3.1156 C.ar    1  UNL1        0.0424
     23 C           6.9346   -0.0317   -4.1698 C.ar    1  UNL1       -0.0244
     24 C           5.5711   -0.3419   -4.2776 C.ar    1  UNL1        0.0514
     25 CL          4.7889    0.4713   -5.5678 Cl      1  UNL1       -0.0828
     26 CL          9.3538   -0.1022   -2.9923 Cl      1  UNL1       -0.0835
     27 H           0.2788    1.1104    1.3429 H       1  UNL1        0.0632
     28 H           1.3642   -0.2285   -0.4066 H       1  UNL1        0.0622
     29 H           1.5141   -1.7377    4.3182 H       1  UNL1        0.0647
     30 H           3.6622   -3.0578    0.2270 H       1  UNL1        0.0775
     31 H           2.0821   -3.2878   -0.5507 H       1  UNL1        0.0775
     32 H           3.7050   -2.2651   -5.5207 H       1  UNL1        0.0558
     33 H           2.2595   -2.8880   -4.7179 H       1  UNL1        0.0558
     34 H           1.2857    0.0088   -3.5938 H       1  UNL1        0.0825
     35 H           0.1303    1.6179   -5.5135 H       1  UNL1        0.0845
     36 H           2.4971   -1.2169   -7.4567 H       1  UNL1        0.1029
     37 H           5.3664   -2.3876   -1.5607 H       1  UNL1        0.0625
     38 H           7.6749   -1.6888   -1.3144 H       1  UNL1        0.0632
     39 H           7.4047    0.6066   -4.9174 H       1  UNL1        0.0647
@<TRIPOS>BOND
     1     1     6   ar
     2     1     2   ar
     3     1    27    1
     4     2     3   ar
     5     2    28    1
     6     3     4   ar
     7     3     9    1
     8     4     5   ar
     9     4     8    1
    10     5     6   ar
    11     5    29    1
    12     6     7    1
    13     9    10    1
    14     9    30    1
    15     9    31    1
    16    10    11    1
    17    11    12    2
    18    12    13    1
    19    12    19    1
    20    13    14    1
    21    13    32    1
    22    13    33    1
    23    14    18   ar
    24    14    15   ar
    25    15    16   ar
    26    15    34    1
    27    16    17   ar
    28    16    35    1
    29    17    18   ar
    30    18    36    1
    31    19    24   ar
    32    19    20   ar
    33    20    21   ar
    34    20    37    1
    35    21    22   ar
    36    21    38    1
    37    22    23   ar
    38    22    26    1
    39    23    24   ar
    40    23    39    1
    41    24    25    1
