@<TRIPOS>MOLECULE
ZINC03830449
 44 46 0 0 0
SMALL
GASTEIGER

@<TRIPOS>ATOM
      1 C          -0.1647   -0.9051    0.1016 C.3     1  UNL1        0.0396
      2 O           0.2098    0.2010    0.9182 O.3     1  UNL1       -0.3492
      3 C           0.8875   -0.0771    2.1889 C.3     1  UNL1        0.2424
      4 C           2.0110   -1.2003    2.1863 C.3     1  UNL1        0.1322
      5 H           2.4095   -1.4336    1.1939 H       1  UNL1        0.0672
      6 N           0.9675   -2.1111    2.6294 N.am    1  UNL1       -0.2438
      7 C           0.1230   -1.1492    3.0967 C.2     1  UNL1        0.2746
      8 O          -0.7439   -1.0772    3.9397 O.2     1  UNL1       -0.2701
      9 C           1.1774   -3.4278    2.9537 C.2     1  UNL1        0.1297
     10 C           2.4389   -3.8562    3.2208 C.2     1  UNL1        0.0058
     11 C           3.6583   -2.9556    3.2641 C.3     1  UNL1        0.0221
     12 S           3.2984   -1.1786    3.4789 S.3     1  UNL1       -0.1284
     13 C           2.7740   -5.3052    3.5345 C.3     1  UNL1        0.1182
     14 O           2.0744   -5.7597    4.6987 O.3     1  UNL1       -0.4460
     15 C           2.6283   -5.4781    5.8887 C.2     1  UNL1        0.3980
     16 O           3.6900   -4.9136    6.0969 O.2     1  UNL1       -0.2267
     17 N           1.8068   -5.9115    6.8727 N.am    1  UNL1       -0.2950
     18 C          -0.0683   -4.4230    2.8416 C.2     1  UNL1        0.4007
     19 O          -1.1988   -3.9067    3.0592 O.co2   1  UNL1       -0.2392
     20 O           0.2019   -5.5793    2.4033 O.co2   1  UNL1       -0.2392
     21 N           1.2221    1.1836    2.9283 N.am    1  UNL1       -0.2777
     22 C           1.9655    2.1957    2.3650 C.2     1  UNL1        0.2203
     23 O           2.4061    2.1636    1.2162 O.2     1  UNL1       -0.2754
     24 C           2.2899    3.3465    3.3034 C.3     1  UNL1        0.0554
     25 C           1.3406    4.5036    3.1992 C.ar    1  UNL1       -0.0015
     26 C           0.9616    5.2360    2.0855 C.ar    1  UNL1       -0.0511
     27 C           0.1879    6.3878    2.4250 C.ar    1  UNL1       -0.0545
     28 C          -0.0281    6.4820    3.7810 C.ar    1  UNL1       -0.0241
     29 S           0.6668    5.1729    4.6306 S.2     1  UNL1       -0.1011
     30 H          -0.6147   -0.5151   -0.8161 H       1  UNL1        0.0524
     31 H          -0.8998   -1.5358    0.6072 H       1  UNL1        0.0524
     32 H           0.7098   -1.4939   -0.1856 H       1  UNL1        0.0524
     33 H           4.2248   -3.0846    2.3342 H       1  UNL1        0.0424
     34 H           4.3182   -3.2380    4.0899 H       1  UNL1        0.0424
     35 H           2.5211   -5.9588    2.6933 H       1  UNL1        0.0747
     36 H           3.8534   -5.4524    3.6701 H       1  UNL1        0.0747
     37 H           0.8678   -6.1485    6.5811 H       1  UNL1        0.1482
     38 H           1.9657   -5.5481    7.7979 H       1  UNL1        0.1482
     39 H           0.8385    1.2900    3.8604 H       1  UNL1        0.1520
     40 H           2.3546    2.9663    4.3289 H       1  UNL1        0.0412
     41 H           3.2963    3.7003    3.0446 H       1  UNL1        0.0412
     42 H           1.2653    4.9870    1.0734 H       1  UNL1        0.0626
     43 H          -0.1747    7.1196    1.7135 H       1  UNL1        0.0623
     44 H          -0.5609    7.2562    4.3163 H       1  UNL1        0.0693
@<TRIPOS>BOND
     1     1     2    1
     2     1    30    1
     3     1    31    1
     4     1    32    1
     5     3     2    1
     6     3     7    1
     7     3     4    1
     8     3    21    1
     9     4     5    1
    10     4    12    1
    11     4     6    1
    12     6     7   am
    13     6     9    1
    14     7     8    2
    15     9    10    2
    16     9    18    1
    17    10    11    1
    18    10    13    1
    19    11    12    1
    20    11    33    1
    21    11    34    1
    22    13    14    1
    23    13    35    1
    24    13    36    1
    25    14    15    1
    26    15    16    2
    27    15    17   am
    28    17    37    1
    29    17    38    1
    30    18    19   ar
    31    18    20   ar
    32    21    22   am
    33    21    39    1
    34    22    23    2
    35    22    24    1
    36    24    25    1
    37    24    40    1
    38    24    41    1
    39    25    29   ar
    40    25    26   ar
    41    26    27   ar
    42    26    42    1
    43    27    28   ar
    44    27    43    1
    45    28    29   ar
    46    28    44    1
