@<TRIPOS>MOLECULE
ZINC00001175
 34 36 0 0 0
SMALL
GASTEIGER

@<TRIPOS>ATOM
      1 C           0.9738    0.1935   -0.0840 C.3     1  UNL1        0.0084
      2 N           0.5886    1.0189   -1.2195 N.am    1  UNL1       -0.2724
      3 C           0.4806    2.4045   -0.9691 C.ar    1  UNL1        0.0579
      4 C           1.6457    3.1632   -1.1390 C.ar    1  UNL1       -0.0371
      5 C           1.6048    4.5498   -1.0086 C.ar    1  UNL1       -0.0415
      6 C           0.4006    5.1745   -0.6965 C.ar    1  UNL1        0.0429
      7 C          -0.7569    4.4227   -0.4809 C.ar    1  UNL1       -0.0198
      8 C          -0.7242    3.0227   -0.5933 C.ar    1  UNL1        0.0640
      9 N          -1.8992    2.2511   -0.3586 N.am    1  UNL1       -0.2381
     10 C          -2.4384    1.5468   -1.4312 C.2     1  UNL1        0.2330
     11 O          -3.5640    1.7673   -1.8867 O.2     1  UNL1       -0.2744
     12 C          -1.6865    0.3136   -1.8388 C.3     1  UNL1        0.1017
     13 C          -0.2383    0.4635   -2.1760 C.2     1  UNL1        0.2284
     14 O           0.2330   -0.0379   -3.1982 O.2     1  UNL1       -0.2747
     15 C          -2.6060    2.3601    0.8946 C.ar    1  UNL1        0.0414
     16 C          -2.0755    3.0379    2.0074 C.ar    1  UNL1       -0.0399
     17 C          -2.7234    3.0283    3.2493 C.ar    1  UNL1       -0.0600
     18 C          -3.9073    2.3166    3.4161 C.ar    1  UNL1       -0.0616
     19 C          -4.4457    1.6226    2.3414 C.ar    1  UNL1       -0.0600
     20 C          -3.8045    1.6487    1.0975 C.ar    1  UNL1       -0.0399
     21 CL          0.3400    6.8904   -0.5871 Cl      1  UNL1       -0.0835
     22 H           0.7145   -0.8539   -0.2706 H       1  UNL1        0.0433
     23 H           0.4569    0.5218    0.8242 H       1  UNL1        0.0433
     24 H           2.0555    0.2719    0.0590 H       1  UNL1        0.0433
     25 H           2.5780    2.6774   -1.4206 H       1  UNL1        0.0637
     26 H           2.5060    5.1339   -1.1792 H       1  UNL1        0.0633
     27 H          -1.6908    4.9322   -0.2526 H       1  UNL1        0.0651
     28 H          -1.7928   -0.4372   -1.0482 H       1  UNL1        0.0454
     29 H          -2.1831   -0.0842   -2.7331 H       1  UNL1        0.0454
     30 H          -1.1324    3.5719    1.9581 H       1  UNL1        0.0636
     31 H          -2.2921    3.5633    4.0896 H       1  UNL1        0.0618
     32 H          -4.4004    2.2909    4.3855 H       1  UNL1        0.0618
     33 H          -5.3623    1.0507    2.4645 H       1  UNL1        0.0618
     34 H          -4.2702    1.0764    0.2981 H       1  UNL1        0.0636
@<TRIPOS>BOND
     1     1     2    1
     2     1    22    1
     3     1    23    1
     4     1    24    1
     5     2    13   am
     6     2     3    1
     7     3     8   ar
     8     3     4   ar
     9     4     5   ar
    10     4    25    1
    11     5     6   ar
    12     5    26    1
    13     6     7   ar
    14     6    21    1
    15     7     8   ar
    16     7    27    1
    17     8     9    1
    18     9    10   am
    19     9    15    1
    20    10    11    2
    21    10    12    1
    22    12    13    1
    23    12    28    1
    24    12    29    1
    25    13    14    2
    26    15    20   ar
    27    15    16   ar
    28    16    17   ar
    29    16    30    1
    30    17    18   ar
    31    17    31    1
    32    18    19   ar
    33    18    32    1
    34    19    20   ar
    35    19    33    1
    36    20    34    1
