@<TRIPOS>MOLECULE
ZINC00402909
 31 32 0 0 0
SMALL
GASTEIGER

@<TRIPOS>ATOM
      1 C           1.0983    1.1396   -2.3763 C.3     1  UNL1       -0.0480
      2 C           0.5210   -0.0395   -1.5954 C.3     1  UNL1        0.0829
      3 H           0.8620   -0.9435   -2.1204 H       1  UNL1        0.0461
      4 C          -0.9990   -0.0752   -1.5274 C.ar    1  UNL1       -0.0303
      5 C          -1.7748    1.0736   -1.3218 C.ar    1  UNL1       -0.0576
      6 C          -3.1631    0.9840   -1.1811 C.ar    1  UNL1       -0.0580
      7 C          -3.7867   -0.2619   -1.1801 C.ar    1  UNL1       -0.0193
      8 C          -3.0245   -1.4193   -1.3366 C.ar    1  UNL1        0.1287
      9 C          -1.6505   -1.3180   -1.5737 C.ar    1  UNL1       -0.0154
     10 O          -3.7155   -2.6106   -1.2743 O.3     1  UNL1       -0.4560
     11 C          -3.1101   -3.7300   -0.7432 C.ar    1  UNL1        0.1284
     12 C          -3.5655   -4.9554   -1.2378 C.ar    1  UNL1       -0.0193
     13 C          -2.9958   -6.1503   -0.7931 C.ar    1  UNL1       -0.0583
     14 C          -1.9699   -6.1234    0.1509 C.ar    1  UNL1       -0.0615
     15 C          -1.5429   -4.9060    0.6783 C.ar    1  UNL1       -0.0583
     16 C          -2.1325   -3.7134    0.2552 C.ar    1  UNL1       -0.0193
     17 C           1.0981   -0.0974   -0.1603 C.2     1  UNL1        0.3630
     18 O           1.3081   -1.2670    0.2825 O.co2   1  UNL1       -0.2457
     19 O           1.3268    1.0146    0.3994 O.co2   1  UNL1       -0.2457
     20 H           2.1937    1.0986   -2.3720 H       1  UNL1        0.0241
     21 H           0.8141    2.1097   -1.9567 H       1  UNL1        0.0241
     22 H           0.7641    1.1151   -3.4189 H       1  UNL1        0.0241
     23 H          -1.2985    2.0474   -1.2391 H       1  UNL1        0.0621
     24 H          -3.7439    1.8866   -1.0237 H       1  UNL1        0.0619
     25 H          -4.8585   -0.3325   -1.0261 H       1  UNL1        0.0654
     26 H          -1.0498   -2.2119   -1.7270 H       1  UNL1        0.0657
     27 H          -4.3549   -4.9752   -1.9834 H       1  UNL1        0.0654
     28 H          -3.3408   -7.0986   -1.1941 H       1  UNL1        0.0619
     29 H          -1.4988   -7.0464    0.4758 H       1  UNL1        0.0618
     30 H          -0.7360   -4.8697    1.4068 H       1  UNL1        0.0619
     31 H          -1.7807   -2.7793    0.6906 H       1  UNL1        0.0654
@<TRIPOS>BOND
     1     1    20    1
     2     1    21    1
     3     1    22    1
     4     2     4    1
     5     2    17    1
     6     4     9   ar
     7     4     5   ar
     8     5     6   ar
     9     5    23    1
    10     6     7   ar
    11     6    24    1
    12     7     8   ar
    13     7    25    1
    14     8     9   ar
    15     8    10    1
    16     9    26    1
    17    10    11    1
    18    11    16   ar
    19    11    12   ar
    20    12    13   ar
    21    12    27    1
    22    13    14   ar
    23    13    28    1
    24    14    15   ar
    25    14    29    1
    26    15    16   ar
    27    15    30    1
    28    16    31    1
    29    17    18   ar
    30    17    19   ar
    31     2     3    1
    32     2     1    1
