@<TRIPOS>MOLECULE
ZINC03808779
 51 53 0 0 0
SMALL
GASTEIGER

@<TRIPOS>ATOM
      1 C           8.0862    0.7690   -1.2533 C.3     1  UNL1       -0.0561
      2 C           7.8379    0.4581    0.2221 C.3     1  UNL1        0.0091
      3 H           6.9618    0.9980    0.5901 H       1  UNL1        0.0370
      4 C           9.0449    0.8398    1.0882 C.3     1  UNL1        0.0519
      5 H           8.7231    1.2304    2.0623 H       1  UNL1        0.0519
      6 C          10.3845    1.4354    0.5703 C.3     1  UNL1        0.0811
      7 H          10.3212    1.8877   -0.4269 H       1  UNL1        0.0438
      8 C          10.8602   -0.0360    0.5385 C.2     1  UNL1        0.2276
      9 O          11.7370   -0.6176   -0.0671 O.2     1  UNL1       -0.2748
     10 N           9.7787   -0.4278    1.2779 N.am    1  UNL1       -0.2599
     11 C           8.9189   -1.4852    0.9697 C.2     1  UNL1        0.1354
     12 C           7.7449   -1.0348    0.4845 C.2     1  UNL1        0.0190
     13 S           6.3104   -1.9489    0.1493 S.3     1  UNL1       -0.1183
     14 C           4.9248   -0.8237    0.5168 C.3     1  UNL1        0.0551
     15 H           5.1617   -0.2375    1.4112 H       1  UNL1        0.0470
     16 C           4.5881    0.0595   -0.6820 C.3     1  UNL1        0.0160
     17 C           3.6744   -0.7515   -1.5837 C.3     1  UNL1        0.0563
     18 H           2.8863   -0.1280   -2.0178 H       1  UNL1        0.0950
     19 N           2.9807   -1.7063   -0.6180 N.4     1  UNL1        0.2366
     20 C           3.6068   -1.5737    0.7367 C.3     1  UNL1       -0.0203
     21 C           4.3176   -1.5697   -2.7290 C.2     1  UNL1        0.2633
     22 O           4.2634   -2.8001   -2.6237 O.2     1  UNL1       -0.2694
     23 N           4.7908   -0.9219   -3.8559 N.am    1  UNL1       -0.3030
     24 C           5.3354   -1.7152   -4.9537 C.3     1  UNL1        0.0030
     25 C           4.8544    0.5215   -4.0220 C.3     1  UNL1        0.0030
     26 C           9.3594   -2.9661    1.3206 C.2     1  UNL1        0.4014
     27 O          10.3296   -3.0492    2.1249 O.co2   1  UNL1       -0.2391
     28 O           8.6620   -3.8870    0.8068 O.co2   1  UNL1       -0.2391
     29 C          11.0302    2.3807    1.5658 C.3     1  UNL1        0.0653
     30 H          11.2098    1.8910    2.5301 H       1  UNL1        0.0598
     31 C          12.3172    2.9748    1.0222 C.3     1  UNL1       -0.0382
     32 O          10.1111    3.4630    1.7838 O.3     1  UNL1       -0.3912
     33 H           8.0835    1.8528   -1.4118 H       1  UNL1        0.0236
     34 H           9.0472    0.3810   -1.6089 H       1  UNL1        0.0236
     35 H           7.3340    0.3291   -1.9095 H       1  UNL1        0.0236
     36 H           5.4624    0.4350   -1.1948 H       1  UNL1        0.0338
     37 H           4.0397    0.9414   -0.3274 H       1  UNL1        0.0338
     38 H           1.9614   -1.5873   -0.6147 H       1  UNL1        0.2022
     39 H           3.6826   -2.5680    1.1840 H       1  UNL1        0.0825
     40 H           2.9081   -0.9651    1.3231 H       1  UNL1        0.0825
     41 H           4.8958   -1.3667   -5.8945 H       1  UNL1        0.0428
     42 H           6.4189   -1.5707   -4.9827 H       1  UNL1        0.0428
     43 H           5.1161   -2.7801   -4.8442 H       1  UNL1        0.0428
     44 H           3.8443    0.9347   -3.9614 H       1  UNL1        0.0428
     45 H           5.4701    0.9565   -3.2358 H       1  UNL1        0.0428
     46 H           5.2946    0.7802   -4.9896 H       1  UNL1        0.0428
     47 H          12.1361    3.5090    0.0820 H       1  UNL1        0.0255
     48 H          12.7247    3.7097    1.7241 H       1  UNL1        0.0255
     49 H          13.0737    2.2013    0.8409 H       1  UNL1        0.0255
     50 H          10.5151    4.0471    2.4512 H       1  UNL1        0.2098
     51 H           3.1783   -2.6590   -0.9887 H       1  UNL1        0.2022
@<TRIPOS>UNITY_ATOM_ATTR
19 1
charge 1
@<TRIPOS>BOND
     1     1     2    1
     2     1    33    1
     3     1    34    1
     4     1    35    1
     5     2     3    1
     6     2    12    1
     7     2     4    1
     8     4     5    1
     9     4    10    1
    10     4     6    1
    11     6     7    1
    12     6     8    1
    13     6    29    1
    14     8     9    2
    15     8    10   am
    16    10    11    1
    17    11    12    2
    18    11    26    1
    19    12    13    1
    20    14    20    1
    21    14    16    1
    22    16    17    1
    23    16    36    1
    24    16    37    1
    25    17    18    1
    26    17    19    1
    27    17    21    1
    28    19    20    1
    29    19    38    1
    30    19    51    1
    31    20    39    1
    32    20    40    1
    33    21    22    2
    34    21    23   am
    35    23    24    1
    36    23    25    1
    37    24    41    1
    38    24    42    1
    39    24    43    1
    40    25    44    1
    41    25    45    1
    42    25    46    1
    43    26    27   ar
    44    26    28   ar
    45    29    30    1
    46    29    31    1
    47    29    32    1
    48    31    47    1
    49    31    48    1
    50    31    49    1
    51    32    50    1
    52    14    15    1
    53    14    13    1
