@<TRIPOS>MOLECULE
ZINC00000196
 47 48 0 0 0
SMALL
GASTEIGER

@<TRIPOS>ATOM
      1 C          -3.5480    4.9002    3.6575 C.3     1  UNL1       -0.0432
      2 N          -2.0661    5.1383    3.6858 N.4     1  UNL1        0.2333
      3 C          -1.7158    6.4661    3.0688 C.3     1  UNL1       -0.0432
      4 C          -1.4524    5.0040    5.0694 C.3     1  UNL1        0.0027
      5 C          -1.5179    3.5596    5.5840 C.3     1  UNL1        0.1320
      6 O          -0.9614    2.5930    4.6738 O.3     1  UNL1       -0.4588
      7 C           0.4093    2.5627    4.6997 C.2     1  UNL1        0.3176
      8 O           1.0567    3.5724    4.9374 O.2     1  UNL1       -0.2501
      9 C           0.9564    1.1571    4.4146 C.3     1  UNL1        0.1100
     10 H           0.6317    0.9311    3.3875 H       1  UNL1        0.0491
     11 C           0.3111    0.1360    5.3545 C.ar    1  UNL1       -0.0310
     12 C          -0.1424   -1.1013    4.8647 C.ar    1  UNL1       -0.0577
     13 C          -0.8252   -1.9899    5.7022 C.ar    1  UNL1       -0.0615
     14 C          -1.0669   -1.6571    7.0336 C.ar    1  UNL1       -0.0617
     15 C          -0.5887   -0.4546    7.5439 C.ar    1  UNL1       -0.0615
     16 C           0.1174    0.4213    6.7174 C.ar    1  UNL1       -0.0577
     17 C           2.5102    1.1459    4.4382 C.3     1  UNL1        0.0830
     18 C           3.1367    2.1127    3.4162 C.3     1  UNL1       -0.0229
     19 C           4.5784    1.6416    3.2564 C.3     1  UNL1       -0.0503
     20 C           4.5718    0.1560    3.6041 C.3     1  UNL1       -0.0503
     21 C           3.1297   -0.1879    3.9893 C.3     1  UNL1       -0.0229
     22 O           2.9710    1.4689    5.7547 O.3     1  UNL1       -0.3874
     23 H          -4.0335    5.6584    4.2777 H       1  UNL1        0.0777
     24 H          -3.7514    3.8960    4.0338 H       1  UNL1        0.0777
     25 H          -3.8820    4.9711    2.6192 H       1  UNL1        0.0777
     26 H          -2.1632    7.2583    3.6759 H       1  UNL1        0.0777
     27 H          -0.6269    6.5593    3.0456 H       1  UNL1        0.0777
     28 H          -2.1118    6.4832    2.0504 H       1  UNL1        0.0777
     29 H          -0.4189    5.3483    4.9771 H       1  UNL1        0.0848
     30 H          -1.9836    5.6883    5.7393 H       1  UNL1        0.0848
     31 H          -1.0107    3.4852    6.5543 H       1  UNL1        0.0752
     32 H          -2.5548    3.2606    5.7663 H       1  UNL1        0.0752
     33 H           0.0225   -1.3870    3.8279 H       1  UNL1        0.0621
     34 H          -1.1741   -2.9455    5.3158 H       1  UNL1        0.0618
     35 H          -1.6152   -2.3412    7.6774 H       1  UNL1        0.0618
     36 H          -0.7603   -0.1999    8.5866 H       1  UNL1        0.0618
     37 H           0.5037    1.3424    7.1500 H       1  UNL1        0.0621
     38 H           2.6218    2.0410    2.4499 H       1  UNL1        0.0293
     39 H           3.1277    3.1580    3.7357 H       1  UNL1        0.0293
     40 H           5.2329    2.1856    3.9479 H       1  UNL1        0.0266
     41 H           4.9490    1.8284    2.2436 H       1  UNL1        0.0266
     42 H           5.2501   -0.0304    4.4447 H       1  UNL1        0.0266
     43 H           4.9182   -0.4563    2.7656 H       1  UNL1        0.0266
     44 H           3.1152   -0.9527    4.7719 H       1  UNL1        0.0293
     45 H           2.6109   -0.5798    3.1056 H       1  UNL1        0.0293
     46 H           3.9350    1.3459    5.8020 H       1  UNL1        0.2102
     47 H          -1.6229    4.4089    3.1088 H       1  UNL1        0.2029
@<TRIPOS>UNITY_ATOM_ATTR
2 1
charge 1
@<TRIPOS>BOND
     1     1     2    1
     2     1    23    1
     3     1    24    1
     4     1    25    1
     5     2     3    1
     6     2     4    1
     7     2    47    1
     8     3    26    1
     9     3    27    1
    10     3    28    1
    11     4     5    1
    12     4    29    1
    13     4    30    1
    14     5     6    1
    15     5    31    1
    16     5    32    1
    17     6     7    1
    18     7     8    2
    19     9    11    1
    20     9    17    1
    21    11    16   ar
    22    11    12   ar
    23    12    13   ar
    24    12    33    1
    25    13    14   ar
    26    13    34    1
    27    14    15   ar
    28    14    35    1
    29    15    16   ar
    30    15    36    1
    31    16    37    1
    32    17    21    1
    33    17    18    1
    34    17    22    1
    35    18    19    1
    36    18    38    1
    37    18    39    1
    38    19    20    1
    39    19    40    1
    40    19    41    1
    41    20    21    1
    42    20    42    1
    43    20    43    1
    44    21    44    1
    45    21    45    1
    46    22    46    1
    47     9    10    1
    48     9     7    1
