@<TRIPOS>MOLECULE
ZINC03831511
 77 80 0 0 0
SMALL
GASTEIGER

@<TRIPOS>ATOM
      1 C           5.5474    3.8801    0.2887 C.3     1  UNL1       -0.0560
      2 C           4.3287    2.9526    0.5029 C.3     1  UNL1       -0.0127
      3 C           3.2456    3.7906    1.2224 C.3     1  UNL1       -0.0560
      4 C           3.8042    2.5463   -0.8889 C.3     1  UNL1       -0.0560
      5 C           4.6443    1.6942    1.3340 C.ar    1  UNL1       -0.0420
      6 C           3.6081    0.8113    1.6830 C.ar    1  UNL1       -0.0577
      7 C           3.8474   -0.3346    2.4465 C.ar    1  UNL1       -0.0559
      8 C           5.1377   -0.6474    2.8871 C.ar    1  UNL1       -0.0191
      9 C           6.1826    0.2144    2.5395 C.ar    1  UNL1       -0.0559
     10 C           5.9375    1.3661    1.7747 C.ar    1  UNL1       -0.0577
     11 C           5.3706   -1.9601    3.6003 C.3     1  UNL1        0.0804
     12 H           4.4427   -2.2481    4.1077 H       1  UNL1        0.0643
     13 C           5.7703   -3.0396    2.5871 C.3     1  UNL1       -0.0179
     14 C           6.1169   -4.3982    3.2035 C.3     1  UNL1       -0.0099
     15 C           4.9625   -4.9987    3.9958 C.3     1  UNL1       -0.0318
     16 N           5.3063   -6.3821    4.5310 N.4     1  UNL1        0.2352
     17 C           4.2257   -6.8313    5.4958 C.3     1  UNL1       -0.0315
     18 C           4.4768   -8.2458    5.9860 C.3     1  UNL1       -0.0063
     19 C           4.5617   -9.2270    4.7929 C.3     1  UNL1        0.0058
     20 C           5.7892   -8.7749    3.9770 C.3     1  UNL1       -0.0063
     21 C           5.5844   -7.3739    3.4275 C.3     1  UNL1       -0.0315
     22 C           4.6384  -10.7365    5.2458 C.3     1  UNL1        0.1190
     23 C           3.3693  -11.1258    6.0279 C.ar    1  UNL1       -0.0115
     24 C           3.4323  -11.6602    7.3266 C.ar    1  UNL1       -0.0555
     25 C           2.2834  -12.0535    8.0053 C.ar    1  UNL1       -0.0614
     26 C           1.0309  -11.9245    7.4032 C.ar    1  UNL1       -0.0617
     27 C           0.9319  -11.3925    6.1246 C.ar    1  UNL1       -0.0614
     28 C           2.0898  -11.0033    5.4422 C.ar    1  UNL1       -0.0555
     29 C           4.8516  -11.7345    4.0796 C.ar    1  UNL1       -0.0115
     30 C           4.3519  -11.4785    2.7852 C.ar    1  UNL1       -0.0555
     31 C           4.5837  -12.3552    1.7216 C.ar    1  UNL1       -0.0614
     32 C           5.2968  -13.5291    1.9296 C.ar    1  UNL1       -0.0617
     33 C           5.7391  -13.8442    3.2084 C.ar    1  UNL1       -0.0614
     34 C           5.5002  -12.9700    4.2741 C.ar    1  UNL1       -0.0555
     35 O           5.7729  -10.7340    6.1295 O.3     1  UNL1       -0.3790
     36 O           6.3580   -1.8913    4.6189 O.3     1  UNL1       -0.3872
     37 H           5.2635    4.7806   -0.2699 H       1  UNL1        0.0238
     38 H           6.3352    3.3808   -0.2866 H       1  UNL1        0.0238
     39 H           5.9738    4.2069    1.2424 H       1  UNL1        0.0238
     40 H           3.0283    4.7139    0.6719 H       1  UNL1        0.0238
     41 H           2.2976    3.2513    1.3195 H       1  UNL1        0.0238
     42 H           3.5696    4.0722    2.2321 H       1  UNL1        0.0238
     43 H           4.5612    1.9842   -1.4488 H       1  UNL1        0.0238
     44 H           2.9086    1.9177   -0.8289 H       1  UNL1        0.0238
     45 H           3.5379    3.4280   -1.4840 H       1  UNL1        0.0238
     46 H           2.5881    1.0009    1.3547 H       1  UNL1        0.0621
     47 H           3.0079   -0.9886    2.6729 H       1  UNL1        0.0621
     48 H           7.2060   -0.0115    2.8357 H       1  UNL1        0.0621
     49 H           6.7908    1.9926    1.5264 H       1  UNL1        0.0621
     50 H           4.9653   -3.1680    1.8507 H       1  UNL1        0.0295
     51 H           6.6529   -2.7071    2.0262 H       1  UNL1        0.0295
     52 H           6.3922   -5.0490    2.3669 H       1  UNL1        0.0318
     53 H           7.0041   -4.3107    3.8406 H       1  UNL1        0.0318
     54 H           4.7266   -4.3816    4.8680 H       1  UNL1        0.0814
     55 H           4.0633   -5.1040    3.3775 H       1  UNL1        0.0814
     56 H           3.2657   -6.7595    4.9739 H       1  UNL1        0.0814
     57 H           4.2341   -6.1275    6.3364 H       1  UNL1        0.0814
     58 H           3.6688   -8.5235    6.6698 H       1  UNL1        0.0321
     59 H           5.4060   -8.2651    6.5713 H       1  UNL1        0.0321
     60 H           3.6670   -9.0776    4.1760 H       1  UNL1        0.0339
     61 H           6.6971   -8.8001    4.5935 H       1  UNL1        0.0321
     62 H           5.9793   -9.4356    3.1273 H       1  UNL1        0.0321
     63 H           6.4973   -7.0592    2.9182 H       1  UNL1        0.0814
     64 H           4.7403   -7.3380    2.7279 H       1  UNL1        0.0814
     65 H           4.3917  -11.7859    7.8322 H       1  UNL1        0.0621
     66 H           2.3538  -12.4785    9.0082 H       1  UNL1        0.0618
     67 H           0.1354  -12.2509    7.9298 H       1  UNL1        0.0618
     68 H          -0.0397  -11.3027    5.6456 H       1  UNL1        0.0618
     69 H           1.9752  -10.6182    4.4309 H       1  UNL1        0.0621
     70 H           3.7671  -10.5885    2.5705 H       1  UNL1        0.0621
     71 H           4.2019  -12.1259    0.7291 H       1  UNL1        0.0618
     72 H           5.4862  -14.2093    1.1033 H       1  UNL1        0.0618
     73 H           6.2639  -14.7815    3.3826 H       1  UNL1        0.0618
     74 H           5.8255  -13.2994    5.2571 H       1  UNL1        0.0621
     75 H           6.1335  -11.6291    6.1846 H       1  UNL1        0.2111
     76 H           6.1240   -1.1419    5.1954 H       1  UNL1        0.2102
     77 H           6.1731   -6.2883    5.0810 H       1  UNL1        0.2033
@<TRIPOS>UNITY_ATOM_ATTR
16 1
charge 1
@<TRIPOS>BOND
     1     1     2    1
     2     1    37    1
     3     1    38    1
     4     1    39    1
     5     2     3    1
     6     2     4    1
     7     2     5    1
     8     3    40    1
     9     3    41    1
    10     3    42    1
    11     4    43    1
    12     4    44    1
    13     4    45    1
    14     5    10   ar
    15     5     6   ar
    16     6     7   ar
    17     6    46    1
    18     7     8   ar
    19     7    47    1
    20     8     9   ar
    21     8    11    1
    22     9    10   ar
    23     9    48    1
    24    10    49    1
    25    11    12    1
    26    11    13    1
    27    11    36    1
    28    13    14    1
    29    13    50    1
    30    13    51    1
    31    14    15    1
    32    14    52    1
    33    14    53    1
    34    15    16    1
    35    15    54    1
    36    15    55    1
    37    16    21    1
    38    16    17    1
    39    16    77    1
    40    17    18    1
    41    17    56    1
    42    17    57    1
    43    18    19    1
    44    18    58    1
    45    18    59    1
    46    19    20    1
    47    19    22    1
    48    19    60    1
    49    20    21    1
    50    20    61    1
    51    20    62    1
    52    21    63    1
    53    21    64    1
    54    22    23    1
    55    22    29    1
    56    22    35    1
    57    23    28   ar
    58    23    24   ar
    59    24    25   ar
    60    24    65    1
    61    25    26   ar
    62    25    66    1
    63    26    27   ar
    64    26    67    1
    65    27    28   ar
    66    27    68    1
    67    28    69    1
    68    29    34   ar
    69    29    30   ar
    70    30    31   ar
    71    30    70    1
    72    31    32   ar
    73    31    71    1
    74    32    33   ar
    75    32    72    1
    76    33    34   ar
    77    33    73    1
    78    34    74    1
    79    35    75    1
    80    36    76    1
