@<TRIPOS>MOLECULE
ZINC01530803
 31 31 0 0 0
SMALL
GASTEIGER

@<TRIPOS>ATOM
      1 C           1.5247   -0.3956    0.4663 C.ar    1  UNL1       -0.0617
      2 C           0.5333   -1.2905    0.8589 C.ar    1  UNL1       -0.0615
      3 C          -0.8106   -0.9939    0.6221 C.ar    1  UNL1       -0.0581
      4 C          -1.1844    0.2044   -0.0102 C.ar    1  UNL1       -0.0378
      5 C          -0.1717    1.0984   -0.3900 C.ar    1  UNL1       -0.0581
      6 C           1.1721    0.7967   -0.1594 C.ar    1  UNL1       -0.0615
      7 C          -2.6670    0.5113   -0.2144 C.3     1  UNL1        0.0526
      8 C          -3.2182    1.3519    0.9574 C.3     1  UNL1        0.1039
      9 O          -3.1139    0.6492    2.2115 O.3     1  UNL1       -0.4498
     10 C          -4.0407   -0.3113    2.4236 C.2     1  UNL1        0.3977
     11 O          -4.9868   -0.5790    1.7038 O.2     1  UNL1       -0.2267
     12 N          -3.7374   -0.9947    3.5477 N.am    1  UNL1       -0.2950
     13 C          -2.9538    1.1957   -1.5668 C.3     1  UNL1        0.1039
     14 O          -4.3467    1.5014   -1.7466 O.3     1  UNL1       -0.4498
     15 C          -5.1341    0.4618   -2.1047 C.2     1  UNL1        0.3977
     16 O          -4.7786   -0.6883   -2.2819 O.2     1  UNL1       -0.2267
     17 N          -6.4069    0.8884   -2.2494 N.am    1  UNL1       -0.2950
     18 H           2.5706   -0.6249    0.6500 H       1  UNL1        0.0618
     19 H           0.8053   -2.2201    1.3521 H       1  UNL1        0.0618
     20 H          -1.5696   -1.7050    0.9431 H       1  UNL1        0.0620
     21 H          -0.4039    2.0465   -0.8662 H       1  UNL1        0.0620
     22 H           1.9441    1.4986   -0.4649 H       1  UNL1        0.0618
     23 H          -3.1970   -0.4495   -0.2198 H       1  UNL1        0.0415
     24 H          -2.6433    2.2780    1.0688 H       1  UNL1        0.0705
     25 H          -4.2618    1.6480    0.7974 H       1  UNL1        0.0705
     26 H          -2.8572   -0.8094    4.0023 H       1  UNL1        0.1482
     27 H          -4.2364   -1.8502    3.7308 H       1  UNL1        0.1482
     28 H          -2.4396    2.1600   -1.6319 H       1  UNL1        0.0705
     29 H          -2.5867    0.5922   -2.4074 H       1  UNL1        0.0705
     30 H          -6.6320    1.8616   -2.1258 H       1  UNL1        0.1482
     31 H          -7.1235    0.2139   -2.4681 H       1  UNL1        0.1482
@<TRIPOS>BOND
     1     1     6   ar
     2     1     2   ar
     3     1    18    1
     4     2     3   ar
     5     2    19    1
     6     3     4   ar
     7     3    20    1
     8     4     5   ar
     9     4     7    1
    10     5     6   ar
    11     5    21    1
    12     6    22    1
    13     7     8    1
    14     7    13    1
    15     7    23    1
    16     8     9    1
    17     8    24    1
    18     8    25    1
    19     9    10    1
    20    10    11    2
    21    10    12   am
    22    12    26    1
    23    12    27    1
    24    13    14    1
    25    13    28    1
    26    13    29    1
    27    14    15    1
    28    15    16    2
    29    15    17   am
    30    17    30    1
    31    17    31    1
