@<TRIPOS>MOLECULE
ZINC00002272
 32 33 0 0 0
SMALL
GASTEIGER

@<TRIPOS>ATOM
      1 C           0.9337    1.3861   -2.6663 C.3     1  UNL1       -0.0480
      2 C           0.4761    0.7976   -1.3329 C.3     1  UNL1        0.0828
      3 H           0.8673   -0.2295   -1.2973 H       1  UNL1        0.0461
      4 C          -1.0411    0.7436   -1.2167 C.ar    1  UNL1       -0.0331
      5 C          -1.8081    1.9143   -1.1068 C.ar    1  UNL1       -0.0578
      6 C          -3.1986    1.8478   -0.9836 C.ar    1  UNL1       -0.0608
      7 C          -3.8389    0.6121   -0.9490 C.ar    1  UNL1       -0.0509
      8 C          -3.0869   -0.5660   -1.0351 C.ar    1  UNL1        0.0225
      9 C          -1.6983   -0.4933   -1.2050 C.ar    1  UNL1       -0.0470
     10 C          -3.7968   -1.8698   -0.9618 C.2     1  UNL1        0.1931
     11 O          -4.9509   -1.9488   -1.3721 O.2     1  UNL1       -0.2867
     12 C          -3.1467   -3.0870   -0.4090 C.ar    1  UNL1        0.0223
     13 C          -3.5082   -4.3344   -0.9381 C.ar    1  UNL1       -0.0509
     14 C          -2.9062   -5.4996   -0.4615 C.ar    1  UNL1       -0.0611
     15 C          -1.9475   -5.4267    0.5485 C.ar    1  UNL1       -0.0617
     16 C          -1.6038   -4.1909    1.0966 C.ar    1  UNL1       -0.0611
     17 C          -2.2111   -3.0237    0.6316 C.ar    1  UNL1       -0.0509
     18 C           1.0973    1.5106   -0.1116 C.2     1  UNL1        0.3630
     19 O           1.3772    0.7481    0.8616 O.co2   1  UNL1       -0.2457
     20 O           1.2799    2.7577   -0.2226 O.co2   1  UNL1       -0.2457
     21 H           0.9744    0.5970   -3.4271 H       1  UNL1        0.0241
     22 H           1.9376    1.8201   -2.5966 H       1  UNL1        0.0241
     23 H           0.2578    2.1600   -3.0450 H       1  UNL1        0.0241
     24 H          -1.3129    2.8846   -1.1000 H       1  UNL1        0.0621
     25 H          -3.7736    2.7669   -0.8990 H       1  UNL1        0.0618
     26 H          -4.9192    0.5655   -0.8397 H       1  UNL1        0.0625
     27 H          -1.1041   -1.3971   -1.3131 H       1  UNL1        0.0628
     28 H          -4.2529   -4.3937   -1.7286 H       1  UNL1        0.0625
     29 H          -3.1815   -6.4631   -0.8827 H       1  UNL1        0.0618
     30 H          -1.4681   -6.3319    0.9124 H       1  UNL1        0.0618
     31 H          -0.8574   -4.1301    1.8863 H       1  UNL1        0.0618
     32 H          -1.9344   -2.0739    1.0847 H       1  UNL1        0.0625
@<TRIPOS>BOND
     1     1    21    1
     2     1    22    1
     3     1    23    1
     4     2     4    1
     5     2    18    1
     6     4     9   ar
     7     4     5   ar
     8     5     6   ar
     9     5    24    1
    10     6     7   ar
    11     6    25    1
    12     7     8   ar
    13     7    26    1
    14     8     9   ar
    15     8    10    1
    16     9    27    1
    17    10    11    2
    18    10    12    1
    19    12    17   ar
    20    12    13   ar
    21    13    14   ar
    22    13    28    1
    23    14    15   ar
    24    14    29    1
    25    15    16   ar
    26    15    30    1
    27    16    17   ar
    28    16    31    1
    29    17    32    1
    30    18    19   ar
    31    18    20   ar
    32     2     3    1
    33     2     1    1
