@<TRIPOS>MOLECULE
ZINC03798064
 31 33 0 0 0
SMALL
GASTEIGER

@<TRIPOS>ATOM
      1 C           0.3216   -0.6741   -0.5369 C.ar    1  UNL1        0.1003
      2 N           0.2182    0.6354   -0.4519 N.ar    1  UNL1       -0.2306
      3 C           1.3894    1.0413    0.1522 C.ar    1  UNL1        0.1474
      4 C           1.8855    2.3113    0.4974 C.ar    1  UNL1        0.1487
      5 N           3.0699    2.3902    1.1400 N.ar    1  UNL1       -0.2006
      6 C           3.7277    1.2389    1.3848 C.ar    1  UNL1        0.2264
      7 N           3.3758   -0.0298    1.0885 N.ar    1  UNL1       -0.1976
      8 C           2.1873   -0.0480    0.4640 C.ar    1  UNL1        0.1688
      9 N           1.4997   -1.1353   -0.0096 N.ar    1  UNL1       -0.2878
     10 C1*         1.9533   -2.5112    0.0315 C.3     1  UNL1        0.1408
     11 H1*         3.0427   -2.5193   -0.0936 H       1  UNL1        0.0840
     12 C2*         1.5186   -3.2606    1.2797 C.3     1  UNL1        0.0213
     13 C3*         1.5357   -4.6957    0.8072 C.3     1  UNL1        0.0876
     14 H3*         0.8883   -5.3484    1.4004 H       1  UNL1        0.0621
     15 C4*         1.1396   -4.5944   -0.6646 C.3     1  UNL1        0.1100
     16 H4*         1.7568   -5.2362   -1.3032 H       1  UNL1        0.0646
     17 O4*         1.3867   -3.2303   -1.0865 O.3     1  UNL1       -0.3484
     18 C5*        -0.3410   -4.8914   -0.9051 C.3     1  UNL1        0.0729
     19 O5*        -0.6253   -4.8296   -2.3014 O.3     1  UNL1       -0.3924
     20 O3*         2.8727   -5.1805    0.9299 O.3     1  UNL1       -0.3890
     21 CL          5.2205    1.4111    2.2048 Cl      1  UNL1       -0.0409
     22 N           1.2101    3.4891    0.2127 N.pl3   1  UNL1       -0.3413
     23 H          -0.4171   -1.3333   -0.9760 H       1  UNL1        0.1030
     24 H2*1        0.5004   -2.9773    1.5717 H       1  UNL1        0.0335
     25 H2*2        2.1894   -3.0637    2.1223 H       1  UNL1        0.0335
     26 H5*1       -0.6026   -5.8941   -0.5542 H       1  UNL1        0.0584
     27 H5*2       -0.9846   -4.1599   -0.4067 H       1  UNL1        0.0584
     28 H5*        -0.1776   -4.0314   -2.6430 H       1  UNL1        0.2095
     29 H3*         2.8801   -6.1179    0.6632 H       1  UNL1        0.2099
     30 H           0.2214    3.3708    0.0228 H       1  UNL1        0.1438
     31 H           1.4990    4.2691    0.7874 H       1  UNL1        0.1438
@<TRIPOS>BOND
     1     1     9   ar
     2     1     2   ar
     3     1    23    1
     4     2     3   ar
     5     3     8   ar
     6     3     4   ar
     7     4     5   ar
     8     4    22    1
     9     5     6   ar
    10     6     7   ar
    11     6    21    1
    12     7     8   ar
    13     8     9   ar
    14     9    10    1
    15    10    11    1
    16    10    17    1
    17    10    12    1
    18    12    13    1
    19    12    24    1
    20    12    25    1
    21    13    14    1
    22    13    15    1
    23    13    20    1
    24    15    16    1
    25    15    17    1
    26    15    18    1
    27    18    19    1
    28    18    26    1
    29    18    27    1
    30    19    28    1
    31    20    29    1
    32    22    30    1
    33    22    31    1
