@<TRIPOS>MOLECULE
ZINC01999543
 56 58 0 0 0
SMALL
GASTEIGER

@<TRIPOS>ATOM
      1 C          -1.7231    0.5189   -0.1580 C.3     1  UNL1       -0.0530
      2 C          -0.6598    1.5863    0.0882 C.3     1  UNL1       -0.0528
      3 C           0.6957    1.1478   -0.4639 C.3     1  UNL1       -0.0499
      4 C           1.1939   -0.1586    0.1829 C.3     1  UNL1       -0.0378
      5 C           0.1206   -1.2204   -0.1976 C.3     1  UNL1       -0.0499
      6 C          -1.2725   -0.8584    0.3238 C.3     1  UNL1       -0.0528
      7 C           1.5419   -0.1480    1.7355 C.3     1  UNL1       -0.0303
      8 C           2.0499   -1.5904    2.1118 C.3     1  UNL1       -0.0064
      9 C           2.6302   -1.8512    3.5074 C.3     1  UNL1       -0.0224
     10 H           3.4580   -1.1692    3.7260 H       1  UNL1        0.0850
     11 C           3.1188   -3.2979    3.6519 C.3     1  UNL1       -0.0095
     12 C           3.7341   -3.5059    5.0311 C.3     1  UNL1       -0.0432
     13 C           2.7189   -3.1854    6.1277 C.3     1  UNL1       -0.0124
     14 C           2.0978   -1.8050    5.9583 C.3     1  UNL1       -0.0334
     15 N           1.5833   -1.6285    4.5625 N.4     1  UNL1        0.2292
     16 C           2.5314    0.9656    2.2613 C.3     1  UNL1       -0.0378
     17 C           3.9350    0.9122    1.6306 C.3     1  UNL1       -0.0499
     18 C           4.8652    1.9873    2.2011 C.3     1  UNL1       -0.0528
     19 C           4.2604    3.3768    2.0560 C.3     1  UNL1       -0.0530
     20 C           2.9269    3.4510    2.7877 C.3     1  UNL1       -0.0528
     21 C           1.9509    2.3958    2.2688 C.3     1  UNL1       -0.0499
     22 H          -1.9385    0.4698   -1.2319 H       1  UNL1        0.0265
     23 H          -2.6559    0.7995    0.3389 H       1  UNL1        0.0265
     24 H          -0.9684    2.5235   -0.3919 H       1  UNL1        0.0265
     25 H          -0.5946    1.7899    1.1613 H       1  UNL1        0.0265
     26 H           1.4459    1.9349   -0.4157 H       1  UNL1        0.0268
     27 H           0.5768    0.9799   -1.5450 H       1  UNL1        0.0268
     28 H           2.1181   -0.4374   -0.3486 H       1  UNL1        0.0304
     29 H           0.3936   -2.2246    0.1361 H       1  UNL1        0.0268
     30 H           0.0723   -1.2934   -1.2938 H       1  UNL1        0.0268
     31 H          -1.2869   -0.8906    1.4161 H       1  UNL1        0.0265
     32 H          -1.9955   -1.6123   -0.0193 H       1  UNL1        0.0265
     33 H           0.6054    0.0051    2.2870 H       1  UNL1        0.0308
     34 H           1.2200   -2.2950    1.9845 H       1  UNL1        0.0323
     35 H           2.8132   -1.8809    1.3773 H       1  UNL1        0.0323
     36 H           3.8594   -3.5315    2.8792 H       1  UNL1        0.0320
     37 H           2.2827   -4.0000    3.5147 H       1  UNL1        0.0320
     38 H           4.0871   -4.5376    5.1360 H       1  UNL1        0.0269
     39 H           4.6096   -2.8546    5.1398 H       1  UNL1        0.0269
     40 H           1.9293   -3.9468    6.1162 H       1  UNL1        0.0317
     41 H           3.2072   -3.2501    7.1064 H       1  UNL1        0.0317
     42 H           1.2445   -1.6690    6.6299 H       1  UNL1        0.0814
     43 H           2.8260   -1.0056    6.1351 H       1  UNL1        0.0814
     44 H           0.7930   -2.2713    4.4071 H       1  UNL1        0.2016
     45 H           2.6776    0.7617    3.3308 H       1  UNL1        0.0304
     46 H           4.3978   -0.0635    1.8149 H       1  UNL1        0.0268
     47 H           3.8688    1.0338    0.5436 H       1  UNL1        0.0268
     48 H           5.8350    1.9493    1.6923 H       1  UNL1        0.0265
     49 H           5.0570    1.7855    3.2633 H       1  UNL1        0.0265
     50 H           4.1181    3.6070    0.9924 H       1  UNL1        0.0265
     51 H           4.9466    4.1305    2.4576 H       1  UNL1        0.0265
     52 H           2.4905    4.4474    2.6494 H       1  UNL1        0.0265
     53 H           3.0828    3.3160    3.8642 H       1  UNL1        0.0265
     54 H           1.6696    2.7266    1.2757 H       1  UNL1        0.0268
     55 H           1.0400    2.4205    2.8784 H       1  UNL1        0.0268
     56 H           1.1948   -0.6821    4.4715 H       1  UNL1        0.2016
@<TRIPOS>UNITY_ATOM_ATTR
15 1
charge 1
@<TRIPOS>BOND
     1     1     6    1
     2     1     2    1
     3     1    22    1
     4     1    23    1
     5     2     3    1
     6     2    24    1
     7     2    25    1
     8     3     4    1
     9     3    26    1
    10     3    27    1
    11     4     5    1
    12     4     7    1
    13     4    28    1
    14     5     6    1
    15     5    29    1
    16     5    30    1
    17     6    31    1
    18     6    32    1
    19     7     8    1
    20     7    16    1
    21     7    33    1
    22     8     9    1
    23     8    34    1
    24     8    35    1
    25     9    10    1
    26     9    15    1
    27     9    11    1
    28    11    12    1
    29    11    36    1
    30    11    37    1
    31    12    13    1
    32    12    38    1
    33    12    39    1
    34    13    14    1
    35    13    40    1
    36    13    41    1
    37    14    15    1
    38    14    42    1
    39    14    43    1
    40    15    44    1
    41    15    56    1
    42    16    21    1
    43    16    17    1
    44    16    45    1
    45    17    18    1
    46    17    46    1
    47    17    47    1
    48    18    19    1
    49    18    48    1
    50    18    49    1
    51    19    20    1
    52    19    50    1
    53    19    51    1
    54    20    21    1
    55    20    52    1
    56    20    53    1
    57    21    54    1
    58    21    55    1
