@<TRIPOS>MOLECULE
ZINC00000850
 28 29 0 0 0
SMALL
GASTEIGER

@<TRIPOS>ATOM
      1 C           1.0032    0.2532    0.3263 C.3     1  UNL1       -0.0394
      2 C           0.5010   -1.1758    0.5210 C.3     1  UNL1        0.0826
      3 H           0.8235   -1.4535    1.5351 H       1  UNL1        0.0578
      4 C          -1.0072   -1.2867    0.4671 C.ar    1  UNL1        0.0135
      5 C          -1.8915   -0.9618   -0.5428 C.ar    1  UNL1       -0.0419
      6 C          -3.2667   -1.2038   -0.2111 C.ar    1  UNL1       -0.0105
      7 C          -4.4422   -1.0142   -0.9768 C.ar    1  UNL1       -0.0535
      8 C          -5.6952   -1.3197   -0.4383 C.ar    1  UNL1       -0.0611
      9 C          -5.7986   -1.8131    0.8547 C.ar    1  UNL1       -0.0607
     10 C          -4.6549   -2.0119    1.6329 C.ar    1  UNL1       -0.0474
     11 C          -3.3939   -1.7032    1.0845 C.ar    1  UNL1        0.0196
     12 S          -1.8582   -1.8658    1.8419 S.2     1  UNL1       -0.0912
     13 N           1.1456   -2.1526   -0.3743 N.am    1  UNL1       -0.1601
     14 C           1.2279   -2.3216   -1.7228 C.2     1  UNL1        0.3230
     15 O           1.8257   -3.2802   -2.2176 O.2     1  UNL1       -0.2507
     16 N           0.6359   -1.4266   -2.5371 N.am    1  UNL1       -0.3116
     17 O           1.8673   -3.1360    0.3638 O.3     1  UNL1       -0.2907
     18 H           0.6350    0.9001    1.1314 H       1  UNL1        0.0252
     19 H           0.6753    0.7002   -0.6150 H       1  UNL1        0.0252
     20 H           2.0983    0.2829    0.3492 H       1  UNL1        0.0252
     21 H          -1.5881   -0.5690   -1.5029 H       1  UNL1        0.0632
     22 H          -4.3720   -0.6323   -1.9920 H       1  UNL1        0.0624
     23 H          -6.5902   -1.1711   -1.0376 H       1  UNL1        0.0618
     24 H          -6.7770   -2.0501    1.2664 H       1  UNL1        0.0618
     25 H          -4.7395   -2.4013    2.6434 H       1  UNL1        0.0629
     26 H           0.6371   -0.4530   -2.2780 H       1  UNL1        0.1465
     27 H           0.8293   -1.5988   -3.5160 H       1  UNL1        0.1465
     28 H           2.1521   -3.7498   -0.3494 H       1  UNL1        0.2417
@<TRIPOS>BOND
     1     1     2    1
     2     1    18    1
     3     1    19    1
     4     1    20    1
     5     2     3    1
     6     2     4    1
     7     2    13    1
     8     4    12   ar
     9     4     5   ar
    10     5     6   ar
    11     5    21    1
    12     6    11   ar
    13     6     7   ar
    14     7     8   ar
    15     7    22    1
    16     8     9   ar
    17     8    23    1
    18     9    10   ar
    19     9    24    1
    20    10    11   ar
    21    10    25    1
    22    11    12   ar
    23    13    14   am
    24    13    17    1
    25    14    15    2
    26    14    16   am
    27    16    26    1
    28    16    27    1
    29    17    28    1
