@<TRIPOS>MOLECULE
ZINC00001505
 31 32 0 0 0
SMALL
GASTEIGER

@<TRIPOS>ATOM
      1 C           1.7581   -0.0024    0.4354 C.ar    1  UNL1        0.1002
      2 N           1.0642    1.0727    0.1197 N.ar    1  UNL1       -0.2286
      3 C           0.2448    0.6605   -0.9004 C.ar    1  UNL1        0.1720
      4 C          -0.7842    1.3694   -1.6309 C.ar    1  UNL1        0.2803
      5 O          -1.1317    2.5321   -1.4407 O.2     1  UNL1       -0.2654
      6 N          -1.3831    0.5738   -2.5968 N.ar    1  UNL1       -0.2934
      7 H          -2.0790    1.0376   -3.1544 H       1  UNL1        0.1716
      8 C          -1.0445   -0.7405   -2.8525 C.ar    1  UNL1        0.1950
      9 N          -0.1425   -1.4034   -2.1808 N.ar    1  UNL1       -0.1963
     10 C           0.4613   -0.6601   -1.2258 C.ar    1  UNL1        0.1709
     11 N           1.4018   -1.0841   -0.3308 N.ar    1  UNL1       -0.2907
     12 C           1.8421   -2.4439   -0.1263 C.3     1  UNL1        0.1273
     13 O           1.5034   -2.8783    1.1921 O.3     1  UNL1       -0.3515
     14 C           0.0860   -2.9461    1.4817 C.3     1  UNL1        0.1068
     15 C          -0.6874   -3.9158    0.5773 C.3     1  UNL1        0.0726
     16 O          -0.0922   -5.2086    0.5941 O.3     1  UNL1       -0.3924
     17 C          -0.0321   -3.3572    2.9547 C.3     1  UNL1        0.0726
     18 O           0.5792   -2.3600    3.7781 O.3     1  UNL1       -0.3924
     19 N          -1.7121   -1.3466   -3.8648 N.pl3   1  UNL1       -0.3289
     20 H           2.4968   -0.0685    1.2251 H       1  UNL1        0.1030
     21 H           1.4296   -3.1082   -0.8911 H       1  UNL1        0.0801
     22 H           2.9329   -2.4532   -0.2239 H       1  UNL1        0.0801
     23 H          -0.3379   -1.9402    1.3867 H       1  UNL1        0.0643
     24 H          -1.7286   -4.0058    0.9056 H       1  UNL1        0.0584
     25 H          -0.6974   -3.5615   -0.4568 H       1  UNL1        0.0584
     26 H          -0.2635   -5.6198   -0.2705 H       1  UNL1        0.2095
     27 H          -1.0789   -3.4458    3.2598 H       1  UNL1        0.0584
     28 H           0.4811   -4.3037    3.1541 H       1  UNL1        0.0584
     29 H           1.4662   -2.2188    3.3968 H       1  UNL1        0.2095
     30 H          -1.5714   -2.3503   -3.8987 H       1  UNL1        0.1451
     31 H          -2.6636   -1.0594   -4.0490 H       1  UNL1        0.1451
@<TRIPOS>BOND
     1     1    11   ar
     2     1     2   ar
     3     1    20    1
     4     2     3   ar
     5     3    10   ar
     6     3     4   ar
     7     4     5    2
     8     4     6   ar
     9     6     7    1
    10     6     8   ar
    11     8     9   ar
    12     8    19    1
    13     9    10   ar
    14    10    11   ar
    15    11    12    1
    16    12    13    1
    17    12    21    1
    18    12    22    1
    19    13    14    1
    20    14    15    1
    21    14    17    1
    22    14    23    1
    23    15    16    1
    24    15    24    1
    25    15    25    1
    26    16    26    1
    27    17    18    1
    28    17    27    1
    29    17    28    1
    30    18    29    1
    31    19    30    1
    32    19    31    1
