@<TRIPOS>MOLECULE
ZINC03831070
 45 47 0 0 0
SMALL
GASTEIGER

@<TRIPOS>ATOM
      1 C           1.0740    3.1826   -1.5749 C.3     1  UNL1       -0.0484
      2 C           0.6570    2.2469   -0.4397 C.3     1  UNL1        0.0419
      3 CA         -0.7999    2.4645    0.0248 C.3     1  UNL1        0.1423
      4 HA         -1.4148    2.8086   -0.8202 H       1  UNL1        0.0632
      5 N          -1.3351    1.1419    0.4233 N.am    1  UNL1       -0.2707
      6 C          -0.4857   -0.0423    0.1823 C.3     1  UNL1        0.1005
      7 H          -0.0041   -0.3898    1.1018 H       1  UNL1        0.0640
      8 S           0.6667    0.5143   -1.1269 S.3     1  UNL1       -0.1273
      9 CA         -1.7555   -0.8148   -0.2207 C.3     1  UNL1        0.1279
     10 HA         -2.1508   -1.4551    0.5813 H       1  UNL1        0.0622
     11 C          -2.4152    0.5874   -0.2124 C.2     1  UNL1        0.2402
     12 O          -3.4146    1.0580   -0.7195 O.2     1  UNL1       -0.2734
     13 N          -1.8155   -1.5360   -1.5279 N.am    1  UNL1       -0.2975
     14 C          -0.9831   -2.5822   -1.8799 C.2     1  UNL1        0.2518
     15 O          -0.0772   -2.9618   -1.1441 O.2     1  UNL1       -0.2699
     16 C          -1.3069   -3.2738   -3.1873 C.ar    1  UNL1        0.1197
     17 C          -1.0957   -4.6712   -3.3126 C.ar    1  UNL1        0.1357
     18 C          -1.5622   -5.3467   -4.4522 C.ar    1  UNL1       -0.0190
     19 C          -2.1906   -4.6612   -5.4811 C.ar    1  UNL1       -0.0548
     20 C          -2.3336   -3.2833   -5.4021 C.ar    1  UNL1       -0.0190
     21 C          -1.8790   -2.5732   -4.2811 C.ar    1  UNL1        0.1357
     22 O          -2.0570   -1.2132   -4.1877 O.3     1  UNL1       -0.4942
     23 C          -1.9514   -0.4654   -5.4019 C.3     1  UNL1        0.0788
     24 O          -0.5047   -5.3621   -2.2818 O.3     1  UNL1       -0.4942
     25 C           0.1341   -6.5902   -2.6259 C.3     1  UNL1        0.0788
     26 C          -0.8925    3.6081    1.0798 C.2     1  UNL1        0.3774
     27 O          -0.5065    4.7452    0.6738 O.co2   1  UNL1       -0.2442
     28 OXT        -1.3188    3.2822    2.2277 O.co2   1  UNL1       -0.2442
     29 C           1.6952    2.2746    0.6940 C.3     1  UNL1       -0.0484
     30 H           1.1352    4.2220   -1.2377 H       1  UNL1        0.0244
     31 H           2.0635    2.9175   -1.9659 H       1  UNL1        0.0244
     32 H           0.3634    3.1500   -2.4090 H       1  UNL1        0.0244
     33 H          -2.4934   -1.2183   -2.2142 H       1  UNL1        0.1499
     34 H          -1.4852   -6.4246   -4.5481 H       1  UNL1        0.0654
     35 H          -2.5820   -5.2026   -6.3382 H       1  UNL1        0.0620
     36 H          -2.8535   -2.7957   -6.2188 H       1  UNL1        0.0654
     37 H          -0.9226   -0.4740   -5.7777 H       1  UNL1        0.0660
     38 H          -2.6418   -0.8040   -6.1796 H       1  UNL1        0.0660
     39 H          -2.2289    0.5699   -5.1834 H       1  UNL1        0.0660
     40 H          -0.6080   -7.3734   -2.8157 H       1  UNL1        0.0660
     41 H           0.8033   -6.4726   -3.4871 H       1  UNL1        0.0660
     42 H           0.7384   -6.9170   -1.7754 H       1  UNL1        0.0660
     43 H           2.6674    1.8954    0.3559 H       1  UNL1        0.0244
     44 H           1.8664    3.2944    1.0554 H       1  UNL1        0.0244
     45 H           1.3854    1.6729    1.5564 H       1  UNL1        0.0244
@<TRIPOS>BOND
     1     1     2    1
     2     1    30    1
     3     1    31    1
     4     1    32    1
     5     2     8    1
     6     2     3    1
     7     2    29    1
     8     3     4    1
     9     3     5    1
    10     3    26    1
    11     5    11   am
    12     5     6    1
    13     6     7    1
    14     6     8    1
    15     6     9    1
    16     9    10    1
    17     9    11    1
    18     9    13    1
    19    11    12    2
    20    13    14   am
    21    13    33    1
    22    14    15    2
    23    14    16    1
    24    16    21   ar
    25    16    17   ar
    26    17    18   ar
    27    17    24    1
    28    18    19   ar
    29    18    34    1
    30    19    20   ar
    31    19    35    1
    32    20    21   ar
    33    20    36    1
    34    21    22    1
    35    22    23    1
    36    23    37    1
    37    23    38    1
    38    23    39    1
    39    24    25    1
    40    25    40    1
    41    25    41    1
    42    25    42    1
    43    26    27   ar
    44    26    28   ar
    45    29    43    1
    46    29    44    1
    47    29    45    1
