@<TRIPOS>MOLECULE
ZINC03871967
 39 41 0 0 0
SMALL
GASTEIGER

@<TRIPOS>ATOM
      1 C          -3.4632  -10.1628   -0.2284 C.ar    0  UNK0        0.0050
      2 C          -2.8637   -9.1150   -0.8946 C.ar    0  UNK0        0.0849
      3 N          -1.8871   -9.5105   -1.8180 N.ar    0  UNK0       -0.2250
      4 C          -1.7631  -10.8127   -1.8230 C.ar    0  UNK0        0.1561
      5 S          -2.7954  -11.6569   -0.7449 S.2     0  UNK0       -0.0605
      6 N          -0.9146  -11.4700   -2.6372 N.pl3   0  UNK0       -0.3375
      7 C          -3.1888   -7.6885   -0.7632 C.2     0  UNK0        0.0592
      8 C          -3.0645   -6.9337   -1.8797 C.2     0  UNK0       -0.0592
      9 C          -3.1566   -5.4673   -2.1804 C.3     0  UNK0        0.0684
     10 C          -4.5855   -4.9668   -2.3556 C.2     0  UNK0        0.3597
     11 O          -5.2792   -5.0063   -1.2994 O.co2   0  UNK0       -0.2460
     12 O          -4.8966   -4.5730   -3.5132 O.co2   0  UNK0       -0.2460
     13 C          -3.5921   -7.2319    0.6478 C.2     0  UNK0        0.2465
     14 O          -3.3426   -7.9730    1.6094 O.2     0  UNK0       -0.2701
     15 N          -4.3491   -6.0926    0.8512 N.am    2  UNK2       -0.2977
     16 C          -5.2878   -6.0886    2.0365 C.3     2  UNK2        0.1286
     17 H          -5.9874   -6.9267    1.8764 H       2  UNK2        0.0622
     18 C          -4.6994   -6.1165    3.4667 C.3     2  UNK2        0.1042
     19 H          -4.8082   -7.0977    3.9462 H       2  UNK2        0.0644
     20 N          -5.7492   -5.1749    3.8253 N.am    2  UNK2       -0.2491
     21 C          -6.1174   -4.8541    2.5559 C.2     2  UNK2        0.2440
     22 O          -6.8219   -3.9895    2.0937 O.2     2  UNK2       -0.2731
     23 C          -5.9742   -4.8108    5.1160 C.2     2  UNK2        0.1231
     24 C          -4.9555   -4.9330    5.9996 C.2     2  UNK2       -0.0455
     25 C          -3.5358   -5.3080    5.6795 C.3     2  UNK2        0.0159
     26 S          -3.1352   -5.2792    3.8935 S.3     2  UNK2       -0.1314
     27 C          -7.3806   -4.3446    5.6572 C.2     2  UNK2        0.4003
     28 O          -8.3778   -4.7359    4.9858 O.co2   2  UNK2       -0.2392
     29 O          -7.3648   -3.7533    6.7823 O.co2   2  UNK2       -0.2392
     30 H          -4.2413  -10.1332    0.5211 H       0  UNK0        0.0716
     31 H          -1.1677  -12.4152   -2.8897 H       0  UNK0        0.1442
     32 H          -0.5711  -10.9116   -3.4109 H       0  UNK0        0.1442
     33 H          -2.7859   -7.4745   -2.7884 H       0  UNK0        0.0585
     34 H          -2.6167   -4.8746   -1.4378 H       0  UNK0        0.0422
     35 H          -2.6336   -5.3032   -3.1345 H       0  UNK0        0.0422
     36 H          -4.6938   -5.5853    0.0174 H       1  ACE1        0.1499
     37 H          -5.1555   -4.7049    7.0455 H       2  UNK2        0.0601
     38 H          -3.3393   -6.3160    6.0595 H       2  UNK2        0.0420
     39 H          -2.8575   -4.6202    6.1934 H       2  UNK2        0.0420
@<TRIPOS>BOND
     1     1     5   ar
     2     1     2   ar
     3     1    30    1
     4     2     3   ar
     5     2     7    1
     6     3     4   ar
     7     4     5   ar
     8     4     6    1
     9     6    31    1
    10     6    32    1
    11     7     8    2
    12     7    13    1
    13     8     9    1
    14     8    33    1
    15     9    10    1
    16     9    34    1
    17     9    35    1
    18    10    11   ar
    19    10    12   ar
    20    13    14    2
    21    13    15   am
    22    15    36    1
    23    16    21    1
    24    16    18    1
    25    18    19    1
    26    18    26    1
    27    18    20    1
    28    20    21   am
    29    20    23    1
    30    21    22    2
    31    23    24    2
    32    23    27    1
    33    24    25    1
    34    24    37    1
    35    25    26    1
    36    25    38    1
    37    25    39    1
    38    27    28   ar
    39    27    29   ar
    40    16    17    1
    41    16    15    1
