@<TRIPOS>MOLECULE
ZINC00896523
 47 47 0 0 0
SMALL
GASTEIGER

@<TRIPOS>ATOM
      1 C          -4.5796    8.0217    2.5322 C.3     1  UNL1       -0.0219
      2 C          -4.8102    7.7099    1.0585 C.3     1  UNL1       -0.0283
      3 C          -4.9582    9.0037    0.2606 C.3     1  UNL1       -0.0219
      4 N          -3.6446    6.9529    0.4932 N.4     1  UNL1        0.2307
      5 C          -3.2988    5.6045    1.0929 C.3     1  UNL1       -0.0035
      6 C          -2.1504    5.0044    0.2530 C.3     1  UNL1        0.1285
      7 H          -1.2431    5.5928    0.4353 H       1  UNL1        0.0681
      8 C          -1.8851    3.5316    0.5992 C.3     1  UNL1        0.1204
      9 O          -1.4935    3.4426    1.9679 O.3     1  UNL1       -0.4892
     10 C          -1.5398    2.1917    2.5271 C.ar    1  UNL1        0.1206
     11 C          -1.5157    0.9830    1.8301 C.ar    1  UNL1       -0.0197
     12 C          -1.6515   -0.2329    2.5173 C.ar    1  UNL1       -0.0551
     13 C          -1.7892   -0.2581    3.9108 C.ar    1  UNL1       -0.0466
     14 C          -1.7577    0.9583    4.6046 C.ar    1  UNL1       -0.0551
     15 C          -1.6240    2.1694    3.9190 C.ar    1  UNL1       -0.0197
     16 C          -2.0481   -1.5453    4.6626 C.3     1  UNL1       -0.0176
     17 C          -0.9895   -2.6301    4.4662 C.3     1  UNL1        0.0489
     18 C          -1.3199   -3.8449    5.3061 C.2     1  UNL1        0.3071
     19 O          -2.0591   -3.8391    6.2783 O.2     1  UNL1       -0.2509
     20 O          -0.6647   -4.9350    4.8222 O.3     1  UNL1       -0.4679
     21 C          -0.8950   -6.1490    5.5456 C.3     1  UNL1        0.0817
     22 O          -2.4982    5.1696   -1.1327 O.3     1  UNL1       -0.3831
     23 H          -3.5840    8.4448    2.7052 H       1  UNL1        0.0284
     24 H          -4.6824    7.1220    3.1463 H       1  UNL1        0.0284
     25 H          -5.3177    8.7458    2.8958 H       1  UNL1        0.0284
     26 H          -5.6999    7.0849    0.9260 H       1  UNL1        0.0845
     27 H          -4.0664    9.6348    0.3516 H       1  UNL1        0.0284
     28 H          -5.1219    8.7993   -0.8023 H       1  UNL1        0.0284
     29 H          -5.8133    9.5860    0.6226 H       1  UNL1        0.0284
     30 H          -3.8112    6.7500   -0.5094 H       1  UNL1        0.2017
     31 H          -3.0121    5.7538    2.1367 H       1  UNL1        0.0841
     32 H          -4.2075    4.9987    1.0182 H       1  UNL1        0.0841
     33 H          -2.7909    2.9455    0.3997 H       1  UNL1        0.0725
     34 H          -1.0803    3.1512   -0.0423 H       1  UNL1        0.0725
     35 H          -1.3971    0.9441    0.7520 H       1  UNL1        0.0654
     36 H          -1.6679   -1.1601    1.9472 H       1  UNL1        0.0621
     37 H          -1.8577    0.9748    5.6887 H       1  UNL1        0.0621
     38 H          -1.6106    3.0981    4.4831 H       1  UNL1        0.0654
     39 H          -2.1364   -1.3236    5.7344 H       1  UNL1        0.0318
     40 H          -3.0328   -1.9250    4.3581 H       1  UNL1        0.0318
     41 H          -0.9581   -2.9363    3.4144 H       1  UNL1        0.0381
     42 H           0.0021   -2.2685    4.7566 H       1  UNL1        0.0381
     43 H          -0.9494   -5.9830    6.6265 H       1  UNL1        0.0661
     44 H          -1.8137   -6.6219    5.1851 H       1  UNL1        0.0661
     45 H          -0.0561   -6.8223    5.3490 H       1  UNL1        0.0661
     46 H          -1.8103    4.7333   -1.6697 H       1  UNL1        0.2102
     47 H          -2.8051    7.5454    0.4928 H       1  UNL1        0.2017
@<TRIPOS>UNITY_ATOM_ATTR
4 1
charge 1
@<TRIPOS>BOND
     1     1     2    1
     2     1    23    1
     3     1    24    1
     4     1    25    1
     5     2     3    1
     6     2     4    1
     7     2    26    1
     8     3    27    1
     9     3    28    1
    10     3    29    1
    11     4     5    1
    12     4    30    1
    13     4    47    1
    14     5     6    1
    15     5    31    1
    16     5    32    1
    17     6     7    1
    18     6     8    1
    19     6    22    1
    20     8     9    1
    21     8    33    1
    22     8    34    1
    23     9    10    1
    24    10    15   ar
    25    10    11   ar
    26    11    12   ar
    27    11    35    1
    28    12    13   ar
    29    12    36    1
    30    13    14   ar
    31    13    16    1
    32    14    15   ar
    33    14    37    1
    34    15    38    1
    35    16    17    1
    36    16    39    1
    37    16    40    1
    38    17    18    1
    39    17    41    1
    40    17    42    1
    41    18    19    2
    42    18    20    1
    43    20    21    1
    44    21    43    1
    45    21    44    1
    46    21    45    1
    47    22    46    1
