@<TRIPOS>MOLECULE
ZINC00057008
 47 48 0 0 0
SMALL
GASTEIGER

@<TRIPOS>ATOM
      1 C           7.1885    2.8474    4.8043 C.3     1  UNL1       -0.0245
      2 C           6.3100    2.9405    3.5738 C.3     1  UNL1       -0.0345
      3 N           5.5192    1.6812    3.3557 N.4     1  UNL1        0.2383
      4 C           6.2771    0.4048    3.1456 C.3     1  UNL1       -0.0314
      5 C           6.3723    0.2799    1.6441 C.3     1  UNL1       -0.0074
      6 C           5.0487    0.8160    1.1298 C.3     1  UNL1       -0.0034
      7 C           4.5494    1.8081    2.1802 C.3     1  UNL1       -0.0048
      8 H           4.6148    2.8348    1.7990 H       1  UNL1        0.0867
      9 C           3.1096    1.5216    2.6441 C.3     1  UNL1        0.0548
     10 N           2.6448    2.4843    3.6387 N.am    1  UNL1       -0.3059
     11 C           2.9121    2.3534    4.9901 C.2     1  UNL1        0.2478
     12 O           3.7107    1.4962    5.3627 O.2     1  UNL1       -0.2701
     13 C           2.2484    3.3516    5.9042 C.ar    1  UNL1        0.0801
     14 C           1.1190    4.0507    5.4369 C.ar    1  UNL1       -0.0197
     15 C           0.5376    5.0562    6.2079 C.ar    1  UNL1        0.1060
     16 C           1.0262    5.3459    7.4755 C.ar    1  UNL1       -0.0319
     17 C           2.1099    4.6193    7.9732 C.ar    1  UNL1       -0.0173
     18 C           2.7354    3.6238    7.1999 C.ar    1  UNL1        0.1323
     19 O           3.8503    2.9539    7.6384 O.3     1  UNL1       -0.4944
     20 C           4.0533    2.9070    9.0514 C.3     1  UNL1        0.0788
     21 S          -0.7236    6.0771    5.4988 S.O2    1  UNL1        0.0560
     22 O          -0.8054    7.3056    6.2486 O.2     1  UNL1       -0.1533
     23 O          -0.5501    6.0513    4.0621 O.2     1  UNL1       -0.1533
     24 N          -2.1132    5.2135    5.8327 N.3     1  UNL1       -0.2035
     25 H           6.6509    2.4237    5.6571 H       1  UNL1        0.0281
     26 H           7.5390    3.8462    5.0845 H       1  UNL1        0.0281
     27 H           8.0763    2.2386    4.6109 H       1  UNL1        0.0281
     28 H           5.5775    3.7438    3.7114 H       1  UNL1        0.0812
     29 H           6.8946    3.1405    2.6692 H       1  UNL1        0.0812
     30 H           5.6659   -0.3956    3.5778 H       1  UNL1        0.0814
     31 H           7.2450    0.4377    3.6477 H       1  UNL1        0.0814
     32 H           7.2028    0.8845    1.2629 H       1  UNL1        0.0319
     33 H           6.5408   -0.7553    1.3315 H       1  UNL1        0.0319
     34 H           5.1880    1.3106    0.1612 H       1  UNL1        0.0322
     35 H           4.3344    0.0008    0.9705 H       1  UNL1        0.0322
     36 H           2.4186    1.5825    1.7971 H       1  UNL1        0.0518
     37 H           3.0330    0.5152    3.0708 H       1  UNL1        0.0518
     38 H           2.1738    3.3100    3.2907 H       1  UNL1        0.1492
     39 H           0.6725    3.8324    4.4704 H       1  UNL1        0.0646
     40 H           0.5869    6.1385    8.0780 H       1  UNL1        0.0638
     41 H           2.4685    4.8880    8.9637 H       1  UNL1        0.0655
     42 H           4.3324    3.8919    9.4438 H       1  UNL1        0.0660
     43 H           3.1675    2.5171    9.5672 H       1  UNL1        0.0660
     44 H           4.8866    2.2301    9.2542 H       1  UNL1        0.0660
     45 H          -2.6542    5.6862    6.5608 H       1  UNL1        0.1442
     46 H          -2.6510    5.0747    4.9752 H       1  UNL1        0.1442
     47 H           4.9561    1.5437    4.2256 H       1  UNL1        0.2037
@<TRIPOS>UNITY_ATOM_ATTR
3 1
charge 1
@<TRIPOS>BOND
     1     1     2    1
     2     1    25    1
     3     1    26    1
     4     1    27    1
     5     2     3    1
     6     2    28    1
     7     2    29    1
     8     3     7    1
     9     3     4    1
    10     3    47    1
    11     4     5    1
    12     4    30    1
    13     4    31    1
    14     5     6    1
    15     5    32    1
    16     5    33    1
    17     6     7    1
    18     6    34    1
    19     6    35    1
    20     7     8    1
    21     7     9    1
    22     9    10    1
    23     9    36    1
    24     9    37    1
    25    10    11   am
    26    10    38    1
    27    11    12    2
    28    11    13    1
    29    13    18   ar
    30    13    14   ar
    31    14    15   ar
    32    14    39    1
    33    15    16   ar
    34    15    21    1
    35    16    17   ar
    36    16    40    1
    37    17    18   ar
    38    17    41    1
    39    18    19    1
    40    19    20    1
    41    20    42    1
    42    20    43    1
    43    20    44    1
    44    21    22    2
    45    21    23    2
    46    21    24    1
    47    24    45    1
    48    24    46    1
