@<TRIPOS>MOLECULE
ZINC00089763
 27 28 0 0 0
SMALL
GASTEIGER

@<TRIPOS>ATOM
      1 C          -1.6305    0.7353    4.3438 C.3     1  UNL1       -0.0036
      2 C          -2.1364    0.0606    3.1400 C.ar    1  UNL1        0.1362
      3 C          -1.5453   -0.5082    2.0406 C.ar    1  UNL1        0.0252
      4 C          -2.6282   -0.9999    1.2794 C.ar    1  UNL1        0.2047
      5 N          -3.8024   -0.6915    1.8437 N.ar    1  UNL1       -0.0596
      6 O          -3.4875   -0.0519    3.0318 O.2     1  UNL1       -0.3580
      7 N          -2.5486   -1.6137    0.0555 N.pl3   1  UNL1       -0.0744
      8 S          -2.4065   -3.2073    0.0843 S.O2    1  UNL1        0.0931
      9 O          -1.8575   -3.7671   -1.1542 O.2     1  UNL1       -0.1483
     10 O          -1.8356   -3.8116    1.2902 O.2     1  UNL1       -0.1483
     11 C          -4.1010   -3.8621    0.0697 C.ar    1  UNL1        0.1105
     12 C          -4.7197   -4.1335   -1.1513 C.ar    1  UNL1       -0.0333
     13 C          -6.0234   -4.6368   -1.1638 C.ar    1  UNL1       -0.0392
     14 C          -6.6916   -4.9175    0.0329 C.ar    1  UNL1        0.0247
     15 C          -6.0715   -4.5931    1.2471 C.ar    1  UNL1       -0.0392
     16 C          -4.7673   -4.0913    1.2717 C.ar    1  UNL1       -0.0333
     17 N          -8.0435   -5.3012    0.0097 N.pl3   1  UNL1       -0.3580
     18 H          -2.0466    1.7444    4.4234 H       1  UNL1        0.0309
     19 H          -1.9080    0.1763    5.2426 H       1  UNL1        0.0309
     20 H          -0.5396    0.8199    4.3196 H       1  UNL1        0.0309
     21 H          -0.4919   -0.5756    1.8153 H       1  UNL1        0.0688
     22 H          -4.1968   -3.9369   -2.0813 H       1  UNL1        0.0638
     23 H          -6.5082   -4.8077   -2.1192 H       1  UNL1        0.0636
     24 H          -6.5962   -4.7278    2.1873 H       1  UNL1        0.0636
     25 H          -4.2812   -3.8486    2.2145 H       1  UNL1        0.0638
     26 H          -8.3281   -5.7783    0.8586 H       1  UNL1        0.1423
     27 H          -8.2907   -5.8122   -0.8304 H       1  UNL1        0.1423
@<TRIPOS>BOND
     1     1     2    1
     2     1    18    1
     3     1    19    1
     4     1    20    1
     5     2     6   ar
     6     2     3   ar
     7     3     4   ar
     8     3    21    1
     9     4     5   ar
    10     4     7    1
    11     5     6   ar
    12     7     8    1
    13     8     9    2
    14     8    10    2
    15     8    11    1
    16    11    16   ar
    17    11    12   ar
    18    12    13   ar
    19    12    22    1
    20    13    14   ar
    21    13    23    1
    22    14    15   ar
    23    14    17    1
    24    15    16   ar
    25    15    24    1
    26    16    25    1
    27    17    26    1
    28    17    27    1
