@<TRIPOS>MOLECULE
ZINC03834173
 28 29 0 0 0
SMALL
GASTEIGER

@<TRIPOS>ATOM
      1 C          -0.6303    1.0236   -0.5258 C.ar    1  UNL1        0.0302
      2 C           0.7073    1.0699   -0.5256 C.ar    1  UNL1        0.0939
      3 C           1.4346   -0.1081    0.0180 C.ar    1  UNL1        0.2671
      4 O           2.6558   -0.2233   -0.0187 O.2     1  UNL1       -0.2666
      5 N           0.6491   -1.0831    0.5715 N.ar    1  UNL1       -0.2740
      6 H           1.1258   -1.8892    0.9430 H       1  UNL1        0.1735
      7 C          -0.7183   -1.1528    0.5223 C.ar    1  UNL1        0.3314
      8 O          -1.3054   -2.1307    0.9702 O.2     1  UNL1       -0.2464
      9 N          -1.3512   -0.0654   -0.0685 N.ar    1  UNL1       -0.2730
     10 C1*        -2.8068   -0.1112   -0.2026 C.3     1  UNL1        0.1422
     11 H1*        -3.1274   -1.1471   -0.3701 H       1  UNL1        0.0840
     12 C2*        -3.5464    0.4816    0.9890 C.3     1  UNL1        0.0214
     13 C3*        -4.8261    0.9836    0.3593 C.3     1  UNL1        0.0876
     14 H3*        -5.2924    1.7910    0.9324 H       1  UNL1        0.0621
     15 C4*        -4.3934    1.3959   -1.0447 C.3     1  UNL1        0.1100
     16 H4*        -5.1399    1.1411   -1.8055 H       1  UNL1        0.0646
     17 O4*        -3.2031    0.6432   -1.3665 O.3     1  UNL1       -0.3483
     18 C5*        -4.0450    2.8839   -1.1309 C.3     1  UNL1        0.0729
     19 O5*        -3.6157    3.2196   -2.4488 O.3     1  UNL1       -0.3924
     20 O3*        -5.7545   -0.0986    0.3035 O.3     1  UNL1       -0.3890
     21 I           1.7386    2.6610   -1.2829 I       1  UNL1       -0.0367
     22 H          -1.2067    1.8517   -0.9239 H       1  UNL1        0.0823
     23 H2*1       -2.9869    1.3209    1.4172 H       1  UNL1        0.0335
     24 H2*2       -3.7040   -0.2631    1.7765 H       1  UNL1        0.0335
     25 H5*1       -4.9163    3.5007   -0.8933 H       1  UNL1        0.0584
     26 H5*2       -3.2316    3.1483   -0.4485 H       1  UNL1        0.0584
     27 H5*        -2.9569    2.5475   -2.7085 H       1  UNL1        0.2095
     28 H3*        -6.5835    0.2360   -0.0842 H       1  UNL1        0.2099
@<TRIPOS>BOND
     1     1     9   ar
     2     1     2   ar
     3     1    22    1
     4     2     3   ar
     5     2    21    1
     6     3     4    2
     7     3     5   ar
     8     5     6    1
     9     5     7   ar
    10     7     8    2
    11     7     9   ar
    12     9    10    1
    13    10    11    1
    14    10    17    1
    15    10    12    1
    16    12    13    1
    17    12    23    1
    18    12    24    1
    19    13    14    1
    20    13    15    1
    21    13    20    1
    22    15    16    1
    23    15    17    1
    24    15    18    1
    25    18    19    1
    26    18    25    1
    27    18    26    1
    28    19    27    1
    29    20    28    1
