@<TRIPOS>MOLECULE
ZINC00006923
 47 49 0 0 0
SMALL
GASTEIGER

@<TRIPOS>ATOM
      1 C           5.5472    3.3073    0.5335 C.3     1  UNL1       -0.0307
      2 C           5.0065    2.8061    1.8615 C.3     1  UNL1        0.0870
      3 O           5.3780    1.4338    1.9448 O.3     1  UNL1       -0.4886
      4 C           4.4297    0.5600    2.4014 C.ar    1  UNL1        0.1619
      5 C           4.8516   -0.2185    3.4893 C.ar    1  UNL1       -0.0163
      6 C           4.0870   -1.2917    3.9440 C.ar    1  UNL1       -0.0581
      7 C           2.8998   -1.5950    3.3008 C.ar    1  UNL1       -0.0581
      8 C           2.4703   -0.8204    2.2196 C.ar    1  UNL1       -0.0163
      9 C           3.2191    0.2736    1.7472 C.ar    1  UNL1        0.1629
     10 O           2.8691    1.0276    0.6434 O.3     1  UNL1       -0.4778
     11 C           1.5061    0.9300    0.1884 C.3     1  UNL1        0.1563
     12 H           1.1569   -0.1015    0.2491 H       1  UNL1        0.0813
     13 C           0.5712    1.7908    1.0264 C.ar    1  UNL1       -0.0046
     14 C          -0.5502    1.1819    1.6206 C.ar    1  UNL1       -0.0550
     15 C          -1.4487    1.9198    2.3894 C.ar    1  UNL1       -0.0614
     16 C          -1.2480    3.2839    2.5680 C.ar    1  UNL1       -0.0617
     17 C          -0.1351    3.9021    2.0010 C.ar    1  UNL1       -0.0614
     18 C           0.7799    3.1585    1.2481 C.ar    1  UNL1       -0.0550
     19 C           1.4152    1.1746   -1.3398 C.3     1  UNL1        0.1391
     20 H           1.9643    0.3508   -1.8205 H       1  UNL1        0.0691
     21 C           2.0387    2.4817   -1.8375 C.3     1  UNL1       -0.0028
     22 N           1.8649    2.5567   -3.3421 N.4     1  UNL1        0.2305
     23 C           0.4221    2.4174   -3.7495 C.3     1  UNL1       -0.0096
     24 C          -0.1441    1.1224   -3.1655 C.3     1  UNL1        0.0882
     25 O           0.0331    1.0716   -1.7496 O.3     1  UNL1       -0.3620
     26 H           6.5816    2.9739    0.3871 H       1  UNL1        0.0262
     27 H           5.5129    4.3970    0.4659 H       1  UNL1        0.0262
     28 H           4.9677    2.8839   -0.2916 H       1  UNL1        0.0262
     29 H           5.5021    3.3445    2.6777 H       1  UNL1        0.0694
     30 H           3.9300    2.9879    1.9464 H       1  UNL1        0.0694
     31 H           5.8012   -0.0023    3.9714 H       1  UNL1        0.0655
     32 H           4.4297   -1.8984    4.7806 H       1  UNL1        0.0619
     33 H           2.3055   -2.4500    3.6213 H       1  UNL1        0.0619
     34 H           1.5430   -1.1486    1.7698 H       1  UNL1        0.0655
     35 H          -0.7320    0.1152    1.5004 H       1  UNL1        0.0621
     36 H          -2.3009    1.4274    2.8522 H       1  UNL1        0.0618
     37 H          -1.9514    3.8602    3.1643 H       1  UNL1        0.0618
     38 H           0.0247    4.9656    2.1646 H       1  UNL1        0.0618
     39 H           1.6600    3.6642    0.8640 H       1  UNL1        0.0621
     40 H           1.5395    3.3723   -1.4498 H       1  UNL1        0.0841
     41 H           3.1128    2.5346   -1.6494 H       1  UNL1        0.0841
     42 H           2.2379    3.4515   -3.6911 H       1  UNL1        0.2015
     43 H           0.3853    2.4227   -4.8420 H       1  UNL1        0.0836
     44 H          -0.0935    3.2971   -3.3513 H       1  UNL1        0.0836
     45 H           0.3271    0.2412   -3.6150 H       1  UNL1        0.0613
     46 H          -1.2186    1.0649   -3.3656 H       1  UNL1        0.0613
     47 H           2.4276    1.8183   -3.7951 H       1  UNL1        0.2015
@<TRIPOS>UNITY_ATOM_ATTR
22 1
charge 1
@<TRIPOS>BOND
     1     1     2    1
     2     1    26    1
     3     1    27    1
     4     1    28    1
     5     2     3    1
     6     2    29    1
     7     2    30    1
     8     3     4    1
     9     4     9   ar
    10     4     5   ar
    11     5     6   ar
    12     5    31    1
    13     6     7   ar
    14     6    32    1
    15     7     8   ar
    16     7    33    1
    17     8     9   ar
    18     8    34    1
    19     9    10    1
    20    10    11    1
    21    11    12    1
    22    11    13    1
    23    11    19    1
    24    13    18   ar
    25    13    14   ar
    26    14    15   ar
    27    14    35    1
    28    15    16   ar
    29    15    36    1
    30    16    17   ar
    31    16    37    1
    32    17    18   ar
    33    17    38    1
    34    18    39    1
    35    19    20    1
    36    19    25    1
    37    19    21    1
    38    21    22    1
    39    21    40    1
    40    21    41    1
    41    22    23    1
    42    22    42    1
    43    22    47    1
    44    23    24    1
    45    23    43    1
    46    23    44    1
    47    24    25    1
    48    24    45    1
    49    24    46    1
