@<TRIPOS>MOLECULE
ZINC00896621
 34 37 0 0 0
SMALL
GASTEIGER

@<TRIPOS>ATOM
      1 C           0.5744   -3.0762   -4.0534 C.ar    1  UNL1       -0.0609
      2 C           0.8913   -4.3851   -3.6351 C.ar    1  UNL1       -0.0612
      3 C           0.6376   -4.8131   -2.3257 C.ar    1  UNL1       -0.0508
      4 C          -0.0015   -3.9321   -1.4683 C.ar    1  UNL1        0.0453
      5 C          -0.4733   -2.6939   -1.9760 C.ar    1  UNL1        0.0714
      6 C          -0.1220   -2.2096   -3.2201 C.ar    1  UNL1       -0.0465
      7 C          -1.6451   -2.4287   -1.2074 C.2     1  UNL1        0.2759
      8 C          -3.8235   -2.2796   -0.6884 C.3     1  UNL1        0.1203
      9 C          -3.1879   -3.4814    0.0831 C.3     1  UNL1        0.1210
     10 N          -1.7974   -3.3099   -0.2452 N.pl3   1  UNL1       -0.1829
     11 C          -0.6150   -4.1463   -0.0832 C.3     1  UNL1        0.2562
     12 C           0.0951   -3.5127    1.1281 C.ar    1  UNL1        0.0307
     13 C          -0.4625   -3.6825    2.4175 C.ar    1  UNL1       -0.0503
     14 C          -0.0078   -2.9402    3.5139 C.ar    1  UNL1       -0.0429
     15 C           1.0174   -2.0140    3.3489 C.ar    1  UNL1        0.0410
     16 C           1.5988   -1.8407    2.0957 C.ar    1  UNL1       -0.0429
     17 C           1.1445   -2.5816    0.9979 C.ar    1  UNL1       -0.0503
     18 CL          1.5536   -1.0752    4.6843 Cl      1  UNL1       -0.0835
     19 O          -0.9983   -5.4796    0.1141 O.3     1  UNL1       -0.3462
     20 H           0.8011   -2.7743   -5.0758 H       1  UNL1        0.0618
     21 H           1.2982   -5.0855   -4.3646 H       1  UNL1        0.0618
     22 H           0.8335   -5.8467   -2.0485 H       1  UNL1        0.0623
     23 H          -0.4605   -1.2428   -3.5774 H       1  UNL1        0.0626
     24 H          -4.5611   -2.6332   -1.4133 H       1  UNL1        0.0783
     25 H          -4.2612   -1.5416   -0.0159 H       1  UNL1        0.0783
     26 H          -3.3532   -3.4091    1.1608 H       1  UNL1        0.0767
     27 H          -3.5563   -4.4387   -0.2979 H       1  UNL1        0.0767
     28 H          -1.3003   -4.3633    2.5716 H       1  UNL1        0.0623
     29 H          -0.4760   -3.0627    4.4901 H       1  UNL1        0.0632
     30 H           2.3856   -1.0970    1.9633 H       1  UNL1        0.0632
     31 H           1.6083   -2.3748    0.0336 H       1  UNL1        0.0623
     32 H          -0.1916   -5.9530    0.3931 H       1  UNL1        0.2149
     33 N          -2.6913   -1.6831   -1.4333 N.2     1  UNL1       -0.2714
     34 H          -2.6892   -1.0075   -2.1891 H       1  UNL1        0.3040
@<TRIPOS>BOND
     1     1     6   ar
     2     1     2   ar
     3     1    20    1
     4     2     3   ar
     5     2    21    1
     6     3     4   ar
     7     3    22    1
     8     4    11    1
     9     4     5   ar
    10     5     6   ar
    11     5     7    1
    12     6    23    1
    13     7    10    1
    14     7    33    2
    15     8     9    1
    16     8    24    1
    17     8    25    1
    18     8    33    1
    19     9    10    1
    20     9    26    1
    21     9    27    1
    22    10    11    1
    23    12    17   ar
    24    12    13   ar
    25    13    14   ar
    26    13    28    1
    27    14    15   ar
    28    14    29    1
    29    15    16   ar
    30    15    18    1
    31    16    17   ar
    32    16    30    1
    33    17    31    1
    34    19    32    1
    35    33    34    1
    36    11    19    1
    37    11    12    1
