@<TRIPOS>MOLECULE
ZINC03830612
 44 45 0 0 0
SMALL
GASTEIGER

@<TRIPOS>ATOM
      1 C           2.0099    1.4328    0.5460 C.3     1  UNL1       -0.0623
      2 C           1.4034    0.6206   -0.5968 C.3     1  UNL1       -0.0401
      3 H           1.9416    0.9533   -1.4964 H       1  UNL1        0.0299
      4 C           1.6717   -0.8810   -0.4649 C.3     1  UNL1       -0.0130
      5 C           0.7462   -1.6112    0.5090 C.3     1  UNL1        0.1039
      6 H           0.9253   -2.6917    0.4323 H       1  UNL1        0.0734
      7 C          -0.7219   -1.3527    0.1381 C.3     1  UNL1       -0.0105
      8 C          -1.1126    0.1432    0.0144 C.3     1  UNL1       -0.0313
      9 C          -0.0838    0.9168   -0.8481 C.3     1  UNL1       -0.0450
     10 C          -1.3064    0.7989    1.3978 C.3     1  UNL1       -0.0597
     11 C          -2.4856    0.2252   -0.6926 C.3     1  UNL1       -0.0597
     12 O           0.9121   -1.2456    1.8859 O.3     1  UNL1       -0.4593
     13 C           2.0263   -1.6907    2.5397 C.2     1  UNL1        0.3409
     14 O           3.0310   -2.1354    2.0011 O.2     1  UNL1       -0.2475
     15 C           1.7500   -1.6715    4.0617 C.3     1  UNL1        0.1767
     16 H           1.0663   -0.8375    4.2585 H       1  UNL1        0.0762
     17 C           1.1057   -2.9903    4.4757 C.ar    1  UNL1       -0.0084
     18 C          -0.1525   -3.0102    5.0865 C.ar    1  UNL1       -0.0556
     19 C          -0.7333   -4.2205    5.4671 C.ar    1  UNL1       -0.0614
     20 C          -0.0636   -5.4224    5.2401 C.ar    1  UNL1       -0.0617
     21 C           1.1874   -5.4189    4.6288 C.ar    1  UNL1       -0.0614
     22 C           1.7721   -4.2114    4.2502 C.ar    1  UNL1       -0.0556
     23 O           2.8891   -1.4352    4.8842 O.3     1  UNL1       -0.3762
     24 H           1.9152    2.5047    0.3442 H       1  UNL1        0.0232
     25 H           1.5474    1.2335    1.5111 H       1  UNL1        0.0232
     26 H           3.0783    1.2110    0.6462 H       1  UNL1        0.0232
     27 H           1.5302   -1.3346   -1.4563 H       1  UNL1        0.0303
     28 H           2.7230   -1.0428   -0.2085 H       1  UNL1        0.0303
     29 H          -0.9173   -1.8518   -0.8192 H       1  UNL1        0.0306
     30 H          -1.3728   -1.8340    0.8828 H       1  UNL1        0.0306
     31 H          -0.2670    1.9968   -0.7790 H       1  UNL1        0.0273
     32 H          -0.2718    0.6583   -1.9004 H       1  UNL1        0.0273
     33 H          -1.6054    1.8457    1.2923 H       1  UNL1        0.0235
     34 H          -2.0899    0.2842    1.9644 H       1  UNL1        0.0235
     35 H          -0.4077    0.7828    2.0141 H       1  UNL1        0.0235
     36 H          -3.2569   -0.3108   -0.1288 H       1  UNL1        0.0235
     37 H          -2.8127    1.2668   -0.8019 H       1  UNL1        0.0235
     38 H          -2.4458   -0.2136   -1.6965 H       1  UNL1        0.0235
     39 H          -0.6930   -2.0838    5.2715 H       1  UNL1        0.0621
     40 H          -1.7112   -4.2285    5.9437 H       1  UNL1        0.0618
     41 H          -0.5202   -6.3640    5.5362 H       1  UNL1        0.0618
     42 H           1.7096   -6.3559    4.4493 H       1  UNL1        0.0618
     43 H           2.7500   -4.2269    3.7714 H       1  UNL1        0.0621
     44 H           2.9959   -2.1930    5.4802 H       1  UNL1        0.2110
@<TRIPOS>BOND
     1     1     2    1
     2     1    24    1
     3     1    25    1
     4     1    26    1
     5     2     3    1
     6     2     9    1
     7     2     4    1
     8     4     5    1
     9     4    27    1
    10     4    28    1
    11     5     6    1
    12     5     7    1
    13     5    12    1
    14     7     8    1
    15     7    29    1
    16     7    30    1
    17     8     9    1
    18     8    10    1
    19     8    11    1
    20     9    31    1
    21     9    32    1
    22    10    33    1
    23    10    34    1
    24    10    35    1
    25    11    36    1
    26    11    37    1
    27    11    38    1
    28    12    13    1
    29    13    14    2
    30    13    15    1
    31    15    16    1
    32    15    17    1
    33    15    23    1
    34    17    22   ar
    35    17    18   ar
    36    18    19   ar
    37    18    39    1
    38    19    20   ar
    39    19    40    1
    40    20    21   ar
    41    20    41    1
    42    21    22   ar
    43    21    42    1
    44    22    43    1
    45    23    44    1
