@<TRIPOS>MOLECULE
ZINC02077807
 30 29 0 0 0
SMALL
GASTEIGER

@<TRIPOS>ATOM
      1 C           1.5910   -4.0573    0.9971 C.3     0  UNK0        0.0122
      2 C           1.7091   -2.7665    1.7691 C.2     0  UNK0        0.2105
      3 O           2.3670   -2.6595    2.7961 O.2     0  UNK0       -0.2761
      4 N           1.0797   -1.7004    1.1894 N.am    1  UNK1       -0.3036
      5 C           0.9111   -0.3452    1.7402 C.3     1  UNK1        0.1067
      6 H           0.6312    0.2533    0.8651 H       1  UNK1        0.0601
      7 C          -0.2993   -0.3117    2.6594 C.2     1  UNK1        0.1430
      8 O          -1.0139    0.6813    2.7835 O.2     1  UNK1       -0.2990
      9 C           2.0952    0.3897    2.4371 C.3     1  UNK1        0.1083
     10 H           1.7354    1.4078    2.6367 H       1  UNK1        0.0643
     11 C           3.3588    0.4990    1.5547 C.3     1  UNK1        0.1111
     12 H           3.0583    0.6349    0.5085 H       1  UNK1        0.0646
     13 C           4.2659    1.6911    1.9349 C.3     1  UNK1        0.1065
     14 H           3.6934    2.6251    1.9039 H       1  UNK1        0.0643
     15 C           4.9625    1.5685    3.2947 C.3     1  UNK1        0.0727
     16 O           5.8704    2.6736    3.4303 O.3     1  UNK1       -0.3924
     17 O           5.2845    1.8357    0.9215 O.3     1  UNK1       -0.3869
     18 O           4.1451   -0.6999    1.6161 O.3     1  UNK1       -0.3865
     19 O           2.4105   -0.1555    3.7206 O.3     1  UNK1       -0.3869
     20 H           2.3760   -4.7483    1.3117 H       0  UNK0        0.0322
     21 H           1.7100   -3.8590   -0.0693 H       0  UNK0        0.0322
     22 H           0.6131   -4.5144    1.1737 H       0  UNK0        0.0322
     23 H           0.5124   -1.9052    0.3733 H       1  UNK1        0.1495
     24 H          -0.4379   -1.1850    3.3157 H       1  UNK1        0.1047
     25 H           4.2489    1.6193    4.1213 H       1  UNK1        0.0584
     26 H           5.5438    0.6444    3.3792 H       1  UNK1        0.0584
     27 H           6.7681    2.2958    3.4434 H       1  UNK1        0.2095
     28 H           5.9111    2.4889    1.2865 H       1  UNK1        0.2100
     29 H           3.5575   -1.4641    1.7246 H       1  UNK1        0.2100
     30 H           2.8894   -1.0006    3.5860 H       1  UNK1        0.2100
@<TRIPOS>BOND
     1     1     2    1
     2     1    20    1
     3     1    21    1
     4     1    22    1
     5     2     3    2
     6     2     4   am
     7     4     5    1
     8     4    23    1
     9     5     6    1
    10     5     7    1
    11     7     8    2
    12     7    24    1
    13     9    11    1
    14     9    19    1
    15    11    12    1
    16    11    13    1
    17    11    18    1
    18    13    14    1
    19    13    15    1
    20    13    17    1
    21    15    16    1
    22    15    25    1
    23    15    26    1
    24    16    27    1
    25    17    28    1
    26    18    29    1
    27    19    30    1
    28     9    10    1
    29     9     5    1
