@<TRIPOS>MOLECULE
ZINC01869694
 30 32 0 0 0
SMALL
GASTEIGER

@<TRIPOS>ATOM
      1 C           1.0231   -2.1406    0.7802 C.3     1  UNL1       -0.0480
      2 C           0.4443   -1.4492   -0.4554 C.3     1  UNL1        0.0829
      3 H           0.8171   -0.4154   -0.4424 H       1  UNL1        0.0461
      4 C          -1.0790   -1.4260   -0.4478 C.ar    1  UNL1       -0.0318
      5 C          -1.7673   -0.2062   -0.4067 C.ar    1  UNL1       -0.0571
      6 C          -3.1710   -0.1552   -0.4203 C.ar    1  UNL1       -0.0517
      7 C          -3.9092   -1.3555   -0.4729 C.ar    1  UNL1        0.0075
      8 C          -5.3057   -1.6773   -0.5159 C.ar    1  UNL1        0.0088
      9 C          -6.4899   -0.9108   -0.5330 C.ar    1  UNL1       -0.0336
     10 C          -7.7236   -1.5674   -0.5736 C.ar    1  UNL1        0.0417
     11 C          -7.8022   -2.9590   -0.5899 C.ar    1  UNL1       -0.0414
     12 C          -6.6424   -3.7389   -0.5797 C.ar    1  UNL1       -0.0364
     13 C          -5.4137   -3.0688   -0.5502 C.ar    1  UNL1        0.0476
     14 N          -4.1326   -3.5690   -0.5586 N.ar    1  UNL1       -0.3541
     15 H          -3.8896   -4.5469   -0.6071 H       1  UNL1        0.1659
     16 C          -3.2072   -2.5550   -0.5061 C.ar    1  UNL1        0.0478
     17 C          -1.8095   -2.6243   -0.5006 C.ar    1  UNL1       -0.0338
     18 CL         -9.1765   -0.6400   -0.6060 Cl      1  UNL1       -0.0835
     19 C           0.9798   -2.0959   -1.7534 C.2     1  UNL1        0.3630
     20 O           1.1927   -1.2862   -2.7043 O.co2   1  UNL1       -0.2457
     21 O           1.1806   -3.3462   -1.7176 O.co2   1  UNL1       -0.2457
     22 H           0.8328   -1.5468    1.6807 H       1  UNL1        0.0241
     23 H           2.1083   -2.2645    0.6849 H       1  UNL1        0.0241
     24 H           0.5939   -3.1348    0.9465 H       1  UNL1        0.0241
     25 H          -1.2068    0.7258   -0.3871 H       1  UNL1        0.0621
     26 H          -3.6757    0.8045   -0.4073 H       1  UNL1        0.0624
     27 H          -6.4359    0.1730   -0.5220 H       1  UNL1        0.0639
     28 H          -8.7710   -3.4509   -0.6169 H       1  UNL1        0.0633
     29 H          -6.6958   -4.8226   -0.5994 H       1  UNL1        0.0639
     30 H          -1.2926   -3.5790   -0.5667 H       1  UNL1        0.0641
@<TRIPOS>BOND
     1     1    22    1
     2     1    23    1
     3     1    24    1
     4     2     4    1
     5     2    19    1
     6     4    17   ar
     7     4     5   ar
     8     5     6   ar
     9     5    25    1
    10     6     7   ar
    11     6    26    1
    12     7    16   ar
    13     7     8   ar
    14     8    13   ar
    15     8     9   ar
    16     9    10   ar
    17     9    27    1
    18    10    11   ar
    19    10    18    1
    20    11    12   ar
    21    11    28    1
    22    12    13   ar
    23    12    29    1
    24    13    14   ar
    25    14    15    1
    26    14    16   ar
    27    16    17   ar
    28    17    30    1
    29    19    20   ar
    30    19    21   ar
    31     2     3    1
    32     2     1    1
