@<TRIPOS>MOLECULE
ZINC00896634
 34 36 0 0 0
SMALL
GASTEIGER

@<TRIPOS>ATOM
      1 C           0.9280    0.0987    0.0035 C.3     1  UNL1        0.0084
      2 N           0.5177    0.5429    1.3321 N.am    1  UNL1       -0.2701
      3 C           0.8192   -0.2917    2.4560 C.ar    1  UNL1        0.0453
      4 C           0.7374   -1.6904    2.3025 C.ar    1  UNL1       -0.0383
      5 C           0.9850   -2.5601    3.3695 C.ar    1  UNL1       -0.0416
      6 C           1.3270   -2.0465    4.6114 C.ar    1  UNL1        0.0417
      7 C           1.4189   -0.6724    4.7977 C.ar    1  UNL1       -0.0324
      8 C           1.1865    0.2099    3.7233 C.ar    1  UNL1        0.0234
      9 C           1.3915    1.6661    3.9848 C.2     1  UNL1        0.0780
     10 N           0.5766    2.5917    3.6123 N.2     1  UNL1       -0.2428
     11 C          -0.6067    2.2201    2.8453 C.3     1  UNL1        0.2248
     12 H          -1.1754    3.1472    2.6946 H       1  UNL1        0.0952
     13 C          -0.1295    1.7790    1.4347 C.2     1  UNL1        0.2709
     14 O          -0.3748    2.4822    0.4473 O.2     1  UNL1       -0.2702
     15 O          -1.5048    1.3209    3.4742 O.3     1  UNL1       -0.3636
     16 C           2.6159    2.1130    4.7393 C.ar    1  UNL1        0.0007
     17 C           2.5442    3.2868    5.4997 C.ar    1  UNL1       -0.0526
     18 C           3.6598    3.7423    6.2029 C.ar    1  UNL1       -0.0611
     19 C           4.8550    3.0280    6.1485 C.ar    1  UNL1       -0.0617
     20 C           4.9385    1.8644    5.3841 C.ar    1  UNL1       -0.0611
     21 C           3.8261    1.4107    4.6708 C.ar    1  UNL1       -0.0526
     22 CL          1.6528   -3.1137    5.9191 Cl      1  UNL1       -0.0835
     23 H           0.6980    0.8391   -0.7675 H       1  UNL1        0.0433
     24 H           0.4162   -0.8259   -0.2754 H       1  UNL1        0.0433
     25 H           2.0120   -0.0555    0.0063 H       1  UNL1        0.0433
     26 H           0.4198   -2.1387    1.3658 H       1  UNL1        0.0637
     27 H           0.8895   -3.6332    3.2227 H       1  UNL1        0.0633
     28 H           1.6804   -0.2862    5.7798 H       1  UNL1        0.0639
     29 H          -2.3043    1.3224    2.9236 H       1  UNL1        0.2125
     30 H           1.6164    3.8546    5.5473 H       1  UNL1        0.0624
     31 H           3.5951    4.6562    6.7881 H       1  UNL1        0.0618
     32 H           5.7247    3.3842    6.6950 H       1  UNL1        0.0618
     33 H           5.8753    1.3144    5.3369 H       1  UNL1        0.0618
     34 H           3.9280    0.5179    4.0611 H       1  UNL1        0.0624
@<TRIPOS>BOND
     1     1     2    1
     2     1    23    1
     3     1    24    1
     4     1    25    1
     5     2    13   am
     6     2     3    1
     7     3     8   ar
     8     3     4   ar
     9     4     5   ar
    10     4    26    1
    11     5     6   ar
    12     5    27    1
    13     6     7   ar
    14     6    22    1
    15     7     8   ar
    16     7    28    1
    17     8     9    1
    18     9    10    2
    19     9    16    1
    20    10    11    1
    21    11    13    1
    22    13    14    2
    23    15    29    1
    24    16    21   ar
    25    16    17   ar
    26    17    18   ar
    27    17    30    1
    28    18    19   ar
    29    18    31    1
    30    19    20   ar
    31    19    32    1
    32    20    21   ar
    33    20    33    1
    34    21    34    1
    35    11    15    1
    36    11    12    1
