@<TRIPOS>MOLECULE
ZINC00057204
 40 42 0 0 0
SMALL
GASTEIGER

@<TRIPOS>ATOM
      1 C           0.3786    2.2603   -2.2404 C.ar    1  UNL1       -0.0617
      2 C          -0.1415    2.9115   -1.1263 C.ar    1  UNL1       -0.0615
      3 C          -1.1780    2.3294   -0.3896 C.ar    1  UNL1       -0.0571
      4 C          -1.7470    1.1101   -0.7815 C.ar    1  UNL1       -0.0302
      5 C          -1.2016    0.4662   -1.9095 C.ar    1  UNL1       -0.0571
      6 C          -0.1428    1.0300   -2.6252 C.ar    1  UNL1       -0.0615
      7 C          -2.9067    0.4239   -0.0776 C.3     1  UNL1        0.0378
      8 N          -3.4898    1.1355    1.0823 N.pl3   1  UNL1       -0.3144
      9 C          -4.1245    2.4383    0.7955 C.3     1  UNL1        0.1113
     10 C          -5.5409    2.4988    1.2699 C.2     1  UNL1        0.2560
     11 N          -6.2659    3.6028    1.2331 N.2     1  UNL1       -0.2744
     12 C          -7.5820    3.3468    1.8397 C.3     1  UNL1        0.1197
     13 C          -7.5543    1.8316    2.1169 C.3     1  UNL1        0.1150
     14 N          -6.1843    1.4599    1.7630 N.pl3   1  UNL1       -0.2356
     15 C          -3.1908    0.7303    2.3831 C.ar    1  UNL1        0.0305
     16 C          -2.9686   -0.6212    2.7055 C.ar    1  UNL1       -0.0406
     17 C          -2.7259   -1.0498    4.0181 C.ar    1  UNL1       -0.0600
     18 C          -2.7071   -0.1348    5.0610 C.ar    1  UNL1       -0.0616
     19 C          -2.9335    1.2064    4.7840 C.ar    1  UNL1       -0.0600
     20 C          -3.1727    1.6286    3.4668 C.ar    1  UNL1       -0.0406
     21 H           1.2010    2.7028   -2.7972 H       1  UNL1        0.0618
     22 H           0.2740    3.8685   -0.8192 H       1  UNL1        0.0618
     23 H          -1.5100    2.8477    0.5023 H       1  UNL1        0.0621
     24 H          -1.5898   -0.4981   -2.2347 H       1  UNL1        0.0621
     25 H           0.2791    0.5059   -3.4798 H       1  UNL1        0.0618
     26 H          -3.7125    0.2927   -0.8125 H       1  UNL1        0.0513
     27 H          -2.5694   -0.5852    0.1735 H       1  UNL1        0.0513
     28 H          -3.5592    3.2645    1.2403 H       1  UNL1        0.0587
     29 H          -4.1450    2.6233   -0.2856 H       1  UNL1        0.0587
     30 H          -8.3756    3.6305    1.1441 H       1  UNL1        0.0782
     31 H          -7.6630    3.9269    2.7632 H       1  UNL1        0.0782
     32 H          -7.7503    1.6004    3.1667 H       1  UNL1        0.0764
     33 H          -8.2524    1.2910    1.4720 H       1  UNL1        0.0764
     34 H          -5.6728    0.5838    1.8559 H       1  UNL1        0.2911
     35 H          -3.0042   -1.4025    1.9520 H       1  UNL1        0.0636
     36 H          -2.5527   -2.1069    4.2189 H       1  UNL1        0.0618
     37 H          -2.5134   -0.4658    6.0779 H       1  UNL1        0.0618
     38 H          -2.9098    1.9327    5.5937 H       1  UNL1        0.0618
     39 H          -3.3147    2.6943    3.3245 H       1  UNL1        0.0636
     40 H          -5.8955    4.4732    0.8668 H       1  UNL1        0.3037
@<TRIPOS>BOND
     1     1     6   ar
     2     1     2   ar
     3     1    21    1
     4     2     3   ar
     5     2    22    1
     6     3     4   ar
     7     3    23    1
     8     4     5   ar
     9     4     7    1
    10     5     6   ar
    11     5    24    1
    12     6    25    1
    13     7     8    1
    14     7    26    1
    15     7    27    1
    16     8     9    1
    17     8    15    1
    18     9    10    1
    19     9    28    1
    20     9    29    1
    21    10    14    1
    22    10    11    2
    23    11    12    1
    24    11    40    1
    25    12    13    1
    26    12    30    1
    27    12    31    1
    28    13    14    1
    29    13    32    1
    30    13    33    1
    31    14    34    1
    32    15    20   ar
    33    15    16   ar
    34    16    17   ar
    35    16    35    1
    36    17    18   ar
    37    17    36    1
    38    18    19   ar
    39    18    37    1
    40    19    20   ar
    41    19    38    1
    42    20    39    1
