@<TRIPOS>MOLECULE
ZINC00523926
 42 44 0 0 0
SMALL
GASTEIGER

@<TRIPOS>ATOM
      1 C          -9.4116   -2.5239   -2.8083 C.3     1  UNL1       -0.0397
      2 C          -8.1116   -1.9480   -2.3333 C.ar    1  UNL1       -0.0503
      3 C          -7.4912   -0.9233   -3.0643 C.ar    1  UNL1       -0.0570
      4 C          -6.2947   -0.3596   -2.6170 C.ar    1  UNL1       -0.0346
      5 C          -5.7196   -0.8200   -1.4285 C.ar    1  UNL1        0.1125
      6 C          -6.3195   -1.8481   -0.6972 C.ar    1  UNL1       -0.0346
      7 C          -7.5170   -2.4071   -1.1502 C.ar    1  UNL1       -0.0570
      8 S          -4.1817   -0.0995   -0.8662 S.O2    1  UNL1        0.0993
      9 O          -3.7659   -0.8256    0.3325 O.2     1  UNL1       -0.1463
     10 O          -3.3075   -0.1883   -2.0316 O.2     1  UNL1       -0.1463
     11 N          -4.4256    1.4588   -0.5364 N.2     1  UNL1       -0.1282
     12 C          -5.4629    1.9074    0.0958 C.2     1  UNL1        0.0824
     13 O          -6.4665    1.3648    0.5812 O.co2   1  UNL1       -0.8476
     14 N          -5.6824    3.2401    0.3515 N.pl3   1  UNL1       -0.2727
     15 N          -4.7636    4.2071   -0.1157 N.3     1  UNL1       -0.2283
     16 C          -5.3378    5.5763    0.0079 C.3     1  UNL1        0.0198
     17 C          -4.4237    6.2725    0.9888 C.3     1  UNL1       -0.0226
     18 H          -4.7924    6.0747    2.0088 H       1  UNL1        0.0317
     19 C          -4.0027    7.7212    0.9008 C.3     1  UNL1       -0.0487
     20 C          -2.6205    7.7112    1.6052 C.3     1  UNL1       -0.0525
     21 C          -2.2250    6.2241    1.7764 C.3     1  UNL1       -0.0487
     22 C          -3.1080    5.5639    0.7469 C.3     1  UNL1       -0.0226
     23 H          -2.7074    5.7896   -0.2541 H       1  UNL1        0.0317
     24 C          -3.5633    4.1338    0.7781 C.3     1  UNL1        0.0198
     25 H         -10.1717   -1.7390   -2.8723 H       1  UNL1        0.0278
     26 H          -9.2823   -2.9836   -3.7932 H       1  UNL1        0.0278
     27 H          -9.7839   -3.2940   -2.1243 H       1  UNL1        0.0278
     28 H          -7.9469   -0.5435   -3.9746 H       1  UNL1        0.0621
     29 H          -5.8252    0.4526   -3.1661 H       1  UNL1        0.0637
     30 H          -5.8810   -2.1802    0.2384 H       1  UNL1        0.0637
     31 H          -7.9894   -3.1825   -0.5547 H       1  UNL1        0.0621
     32 H          -6.6823    3.4049    0.2889 H       1  UNL1        0.1669
     33 H          -5.3078    6.0604   -0.9743 H       1  UNL1        0.0446
     34 H          -6.3770    5.5952    0.3564 H       1  UNL1        0.0446
     35 H          -4.7086    8.3959    1.3935 H       1  UNL1        0.0268
     36 H          -3.8928    8.0438   -0.1412 H       1  UNL1        0.0268
     37 H          -2.6593    8.2161    2.5756 H       1  UNL1        0.0265
     38 H          -1.8854    8.2359    0.9842 H       1  UNL1        0.0265
     39 H          -2.4616    5.8834    2.7918 H       1  UNL1        0.0268
     40 H          -1.1597    6.0545    1.5983 H       1  UNL1        0.0268
     41 H          -3.8241    3.8289    1.8020 H       1  UNL1        0.0446
     42 H          -2.8052    3.4497    0.3869 H       1  UNL1        0.0446
@<TRIPOS>UNITY_ATOM_ATTR
13 1
charge -1
@<TRIPOS>BOND
     1     1     2    1
     2     1    25    1
     3     1    26    1
     4     1    27    1
     5     2     7   ar
     6     2     3   ar
     7     3     4   ar
     8     3    28    1
     9     4     5   ar
    10     4    29    1
    11     5     6   ar
    12     5     8    1
    13     6     7   ar
    14     6    30    1
    15     7    31    1
    16     8     9    2
    17     8    10    2
    18     8    11    1
    19    11    12    2
    20    12    13    1
    21    12    14    1
    22    14    15    1
    23    14    32    1
    24    15    24    1
    25    15    16    1
    26    16    17    1
    27    16    33    1
    28    16    34    1
    29    17    18    1
    30    17    22    1
    31    17    19    1
    32    19    20    1
    33    19    35    1
    34    19    36    1
    35    20    21    1
    36    20    37    1
    37    20    38    1
    38    21    22    1
    39    21    39    1
    40    21    40    1
    41    22    23    1
    42    22    24    1
    43    24    41    1
    44    24    42    1
