@<TRIPOS>MOLECULE
ZINC01530701
 33 32 0 0 0
SMALL
GASTEIGER

@<TRIPOS>ATOM
      1 C           1.1243    3.1886   -1.8966 C.3     1  UNL1       -0.0653
      2 C           0.6499    2.0151   -2.7425 C.3     1  UNL1       -0.0552
      3 C           1.0686    0.6621   -2.1453 C.3     1  UNL1       -0.0416
      4 C           0.6027   -0.5985   -2.9415 C.3     1  UNL1        0.0363
      5 C          -0.9352   -0.6989   -2.9311 C.3     1  UNL1       -0.0533
      6 C           1.1109   -0.5158   -4.4032 C.3     1  UNL1        0.1025
      7 O           0.8227   -1.7195   -5.1357 O.3     1  UNL1       -0.4499
      8 C           0.0986   -1.5795   -6.2671 C.2     1  UNL1        0.3977
      9 O          -0.3911   -0.5531   -6.7049 O.2     1  UNL1       -0.2267
     10 N           0.0065   -2.7708   -6.8993 N.am    1  UNL1       -0.2950
     11 C           1.1855   -1.8780   -2.2776 C.3     1  UNL1        0.1025
     12 O           0.7442   -2.0076   -0.9110 O.3     1  UNL1       -0.4499
     13 C           0.0700   -3.1390   -0.5989 C.2     1  UNL1        0.3977
     14 O          -0.2235   -4.0515   -1.3509 O.2     1  UNL1       -0.2267
     15 N          -0.2452   -3.1390    0.7156 N.am    1  UNL1       -0.2950
     16 H           0.5431    3.2646   -0.9726 H       1  UNL1        0.0230
     17 H           0.9981    4.1247   -2.4515 H       1  UNL1        0.0230
     18 H           2.1826    3.0923   -1.6352 H       1  UNL1        0.0230
     19 H          -0.4386    2.0744   -2.8425 H       1  UNL1        0.0263
     20 H           1.0786    2.1342   -3.7425 H       1  UNL1        0.0263
     21 H           2.1654    0.6459   -2.0787 H       1  UNL1        0.0273
     22 H           0.6991    0.6046   -1.1135 H       1  UNL1        0.0273
     23 H          -1.3969    0.1130   -3.5017 H       1  UNL1        0.0237
     24 H          -1.2736   -1.6415   -3.3758 H       1  UNL1        0.0237
     25 H          -1.3317   -0.6548   -1.9106 H       1  UNL1        0.0237
     26 H           0.6960    0.3625   -4.9065 H       1  UNL1        0.0704
     27 H           2.2010   -0.4021   -4.4104 H       1  UNL1        0.0704
     28 H           0.4978   -3.5710   -6.5322 H       1  UNL1        0.1482
     29 H          -0.4415   -2.8086   -7.8014 H       1  UNL1        0.1482
     30 H           0.9374   -2.7676   -2.8673 H       1  UNL1        0.0704
     31 H           2.2800   -1.8177   -2.2478 H       1  UNL1        0.0704
     32 H           0.0509   -2.3788    1.3074 H       1  UNL1        0.1482
     33 H          -0.7294   -3.9352    1.1008 H       1  UNL1        0.1482
@<TRIPOS>BOND
     1     1     2    1
     2     1    16    1
     3     1    17    1
     4     1    18    1
     5     2     3    1
     6     2    19    1
     7     2    20    1
     8     3     4    1
     9     3    21    1
    10     3    22    1
    11     4     5    1
    12     4     6    1
    13     4    11    1
    14     5    23    1
    15     5    24    1
    16     5    25    1
    17     6     7    1
    18     6    26    1
    19     6    27    1
    20     7     8    1
    21     8     9    2
    22     8    10   am
    23    10    28    1
    24    10    29    1
    25    11    12    1
    26    11    30    1
    27    11    31    1
    28    12    13    1
    29    13    14    2
    30    13    15   am
    31    15    32    1
    32    15    33    1
