@<TRIPOS>MOLECULE
ZINC00010163
 31 33 0 0 0
SMALL
GASTEIGER

@<TRIPOS>ATOM
      1 C           2.5331    5.1305    1.4250 C.3     1  UNL1       -0.0292
      2 C           1.8727    5.5130    0.0470 C.3     1  UNL1        0.1024
      3 H           1.9828    6.5925   -0.1030 H       1  UNL1        0.0710
      4 O           0.5058    5.0957   -0.2139 O.3     1  UNL1       -0.3536
      5 C           0.3817    3.6446   -0.2177 C.3     1  UNL1        0.1224
      6 C          -0.5391    3.4823    1.0595 C.3     1  UNL1       -0.0010
      7 N          -1.6391    2.4657    0.8860 N.4     1  UNL1        0.2373
      8 C          -2.6368    2.8343   -0.2271 C.3     1  UNL1       -0.0314
      9 C          -1.8483    2.9724   -1.5297 C.3     1  UNL1       -0.0067
     10 C          -0.3616    2.7618   -1.2939 C.3     1  UNL1        0.0036
     11 C          -0.2523    1.2794   -0.7131 C.3     1  UNL1       -0.0067
     12 C          -1.0465    1.1276    0.5803 C.3     1  UNL1       -0.0314
     13 C           1.8575    3.1175   -0.4453 C.3     1  UNL1        0.0305
     14 S           2.7816    4.5133   -1.1029 S.3     1  UNL1       -0.1269
     15 H           2.0086    4.3306    1.9619 H       1  UNL1        0.0263
     16 H           2.5984    5.9809    2.1070 H       1  UNL1        0.0263
     17 H           3.5757    4.7985    1.3123 H       1  UNL1        0.0263
     18 H           0.0097    3.2253    1.9686 H       1  UNL1        0.0843
     19 H          -1.0848    4.4133    1.2566 H       1  UNL1        0.0843
     20 H          -3.4058    2.0392   -0.2892 H       1  UNL1        0.0814
     21 H          -3.1237    3.7662    0.0569 H       1  UNL1        0.0814
     22 H          -2.2096    2.1862   -2.2232 H       1  UNL1        0.0320
     23 H          -2.0732    3.9174   -2.0306 H       1  UNL1        0.0320
     24 H           0.1313    2.8331   -2.2657 H       1  UNL1        0.0334
     25 H           0.7707    0.9676   -0.4962 H       1  UNL1        0.0320
     26 H          -0.6119    0.5575   -1.4568 H       1  UNL1        0.0320
     27 H          -0.4185    0.8639    1.4387 H       1  UNL1        0.0814
     28 H          -1.8450    0.3861    0.4908 H       1  UNL1        0.0814
     29 H           2.3038    2.7031    0.4567 H       1  UNL1        0.0407
     30 H           1.9725    2.3794   -1.2462 H       1  UNL1        0.0407
     31 H          -2.2023    2.3984    1.7591 H       1  UNL1        0.2034
@<TRIPOS>UNITY_ATOM_ATTR
7 1
charge 1
@<TRIPOS>BOND
     1     1    15    1
     2     1    16    1
     3     1    17    1
     4     2    14    1
     5     2     4    1
     6     5     4    1
     7     5    10    1
     8     5     6    1
     9     5    13    1
    10     6     7    1
    11     7    12    1
    12     7     8    1
    13     8     9    1
    14     9    10    1
    15    10    11    1
    16    11    12    1
    17    13    14    1
    18     6    18    1
    19     6    19    1
    20     7    31    1
    21     8    20    1
    22     8    21    1
    23     9    22    1
    24     9    23    1
    25    10    24    1
    26    11    25    1
    27    11    26    1
    28    12    27    1
    29    12    28    1
    30    13    29    1
    31    13    30    1
    32     2     3    1
    33     2     1    1
