@<TRIPOS>MOLECULE
ZINC03815424
 49 52 0 0 0
SMALL
GASTEIGER

@<TRIPOS>ATOM
      1 C           0.5877   -0.0088   -0.9973 C.3     1  UNL1       -0.0558
      2 C           2.3418    0.2332   -0.4578 C.3     1  UNL1        0.0111
      3 C           3.1227    0.7359   -1.5739 C.3     1  UNL1       -0.0433
      4 C           2.7094   -0.0297   -2.7731 C.3     1  UNL1       -0.0453
      5 C           2.9952   -1.4637   -2.4549 C.3     1  UNL1       -0.0125
      6 H           4.0916   -1.5471   -2.3700 H       1  UNL1        0.0352
      7 C           2.5816   -2.3589   -3.6363 C.ar    1  UNL1       -0.0406
      8 C           2.4614   -1.8173   -4.9270 C.ar    1  UNL1       -0.0546
      9 C           1.9509   -2.6410   -5.9580 C.ar    1  UNL1       -0.0197
     10 C           1.7612   -4.0109   -5.7866 C.ar    1  UNL1        0.1204
     11 C           1.9843   -4.5596   -4.5070 C.ar    1  UNL1       -0.0165
     12 C           2.4229   -3.7356   -3.4106 C.ar    1  UNL1       -0.0405
     13 C           2.6559   -4.3666   -2.0359 C.3     1  UNL1       -0.0270
     14 C           3.1392   -3.3590   -0.9047 C.3     1  UNL1       -0.0454
     15 C           2.3348   -1.9969   -1.0709 C.3     1  UNL1       -0.0305
     16 H           1.3532   -2.4107   -1.2608 H       1  UNL1        0.0310
     17 C           1.9178   -0.9056    0.3134 C.3     1  UNL1       -0.0286
     18 H           2.5301   -1.4035    1.0346 H       1  UNL1        0.0310
     19 C           1.2337    0.9108    0.9029 C.3     1  UNL1       -0.0458
     20 C           2.4385    1.9713    1.1221 C.3     1  UNL1       -0.0118
     21 C           3.1301    0.7174    1.1298 C.3     1  UNL1        0.1317
     22 C           2.6468    0.0861    2.4253 C.1     1  UNL1       -0.0704
     23 C           2.2322   -0.4554    3.5366 C.1     1  UNL1       -0.1163
     24 O           4.5294    0.7521    1.0287 O.3     1  UNL1       -0.3760
     25 O           1.3148   -4.6956   -6.8815 O.3     1  UNL1       -0.4951
     26 C           1.0335   -6.0364   -6.7646 C.3     1  UNL1        0.0788
     27 H          -0.0990   -0.3317   -0.1566 H       1  UNL1        0.0236
     28 H           0.1541    0.8785   -1.4553 H       1  UNL1        0.0236
     29 H           0.4349   -0.8484   -1.6778 H       1  UNL1        0.0236
     30 H           2.8894    1.7945   -1.7517 H       1  UNL1        0.0272
     31 H           4.2101    0.6746   -1.4345 H       1  UNL1        0.0272
     32 H           1.6521    0.1102   -3.0231 H       1  UNL1        0.0271
     33 H           3.2574    0.3599   -3.6297 H       1  UNL1        0.0271
     34 H           2.5519   -0.7950   -5.1618 H       1  UNL1        0.0622
     35 H           1.8201   -2.1824   -6.9455 H       1  UNL1        0.0654
     36 H           1.8279   -5.5981   -4.3140 H       1  UNL1        0.0657
     37 H           3.3687   -5.1831   -2.1466 H       1  UNL1        0.0313
     38 H           1.7038   -4.7887   -1.7128 H       1  UNL1        0.0313
     39 H           4.2250   -3.2249   -1.0554 H       1  UNL1        0.0271
     40 H           3.0305   -3.8406    0.0726 H       1  UNL1        0.0271
     41 H           0.5885    0.8570    1.7693 H       1  UNL1        0.0269
     42 H           0.6612    1.5751    0.2216 H       1  UNL1        0.0269
     43 H           2.5461    2.5304    2.0589 H       1  UNL1        0.0303
     44 H           2.7846    2.5954    0.2910 H       1  UNL1        0.0303
     45 H           1.8937   -0.9016    4.4432 H       1  UNL1        0.1229
     46 H           4.8729    1.1108    1.8660 H       1  UNL1        0.2114
     47 H           1.9569   -6.5789   -6.5087 H       1  UNL1        0.0660
     48 H           0.2515   -6.2234   -5.9943 H       1  UNL1        0.0660
     49 H           0.6655   -6.4181   -7.7108 H       1  UNL1        0.0660
@<TRIPOS>BOND
     1     1    27    1
     2     1    28    1
     3     1    29    1
     4     2     1    1
     5     2    17    1
     6     2    21    1
     7     2     3    1
     8     3     4    1
     9     3    30    1
    10     3    31    1
    11     4     5    1
    12     4    32    1
    13     4    33    1
    14     5     6    1
    15     5    15    1
    16     5     7    1
    17     7    12   ar
    18     7     8   ar
    19     8     9   ar
    20     8    34    1
    21     9    10   ar
    22     9    35    1
    23    10    11   ar
    24    10    25    1
    25    11    12   ar
    26    11    36    1
    27    12    13    1
    28    13    14    1
    29    13    37    1
    30    13    38    1
    31    14    15    1
    32    14    39    1
    33    14    40    1
    34    15    16    1
    35    15    17    1
    36    17    18    1
    37    17    19    1
    38    19    20    1
    39    19    41    1
    40    19    42    1
    41    20    21    1
    42    20    43    1
    43    20    44    1
    44    21    22    1
    45    21    24    1
    46    22    23    3
    47    23    45    1
    48    24    46    1
    49    25    26    1
    50    26    47    1
    51    26    48    1
    52    26    49    1
