@<TRIPOS>MOLECULE
ZINC03788703
 40 40 0 0 0
SMALL
GASTEIGER

@<TRIPOS>ATOM
      1 C           0.6963    1.3268   -0.1839 C.3     0  UNK0        0.0264
      2 C          -0.7608    1.1943    0.2319 C.3     0  UNK0        0.0097
      3 H          -1.3356    2.0950    0.0041 H       0  UNK0        0.0878
      4 C          -1.4192    0.0263   -0.5366 C.3     0  UNK0        0.1259
      5 H          -1.5221    0.2986   -1.5963 H       0  UNK0        0.0677
      6 C          -0.6492   -1.2889   -0.4058 C.3     0  UNK0        0.1148
      7 H          -0.7955   -1.7116    0.5952 H       0  UNK0        0.0648
      8 C           0.8507   -1.1591   -0.7223 C.3     0  UNK0        0.1146
      9 H           0.9899   -1.0455   -1.8046 H       0  UNK0        0.0650
     10 C           1.5022    0.0265    0.0315 C.3     0  UNK0        0.1223
     11 C           2.9653    0.2533   -0.3873 C.3     0  UNK0        0.0757
     12 O           3.4676    1.3469    0.3885 O.3     0  UNK0       -0.3921
     13 O           1.4689   -0.2438    1.4459 O.3     0  UNK0       -0.3834
     14 O           1.4207   -2.4303   -0.3717 O.3     0  UNK0       -0.3862
     15 O          -1.2523   -2.2323   -1.3033 O.3     0  UNK0       -0.3864
     16 O          -2.7457   -0.1601   -0.0180 O.3     0  UNK0       -0.3835
     17 N          -0.9249    0.9419    1.7039 N.4     1  SER1        0.2366
     18 CA         -0.4768    1.9588    2.7374 C.3     1  SER1        0.0249
     19 CB         -1.1374    3.3340    2.5608 C.3     1  SER1        0.0890
     20 OG         -0.7520    3.9189    1.3227 O.3     1  SER1       -0.3894
     21 C          -0.7976    1.3583    4.1154 C.3     1  SER1        0.0890
     22 O          -0.2673    0.0332    4.1629 O.3     1  SER1       -0.3894
     23 H           1.1441    2.1588    0.3677 H       0  UNK0        0.0350
     24 H           0.7400    1.6013   -1.2477 H       0  UNK0        0.0350
     25 H           3.5943   -0.6142   -0.1622 H       0  UNK0        0.0587
     26 H           3.0481    0.4965   -1.4519 H       0  UNK0        0.0587
     27 H           4.0974    1.8374   -0.1689 H       0  UNK0        0.2095
     28 H           2.2988    0.1370    1.8137 H       0  UNK0        0.2104
     29 H           2.3913   -2.3819   -0.3660 H       0  UNK0        0.2100
     30 H          -0.7038   -3.0430   -1.2426 H       0  UNK0        0.2100
     31 H          -3.1189   -0.9030   -0.5431 H       0  UNK0        0.2102
     32 H1         -1.9061    0.6639    1.8469 H       1  SER1        0.2022
     33 HA          0.6041    2.0411    2.6084 H       1  SER1        0.0896
     34 HB1        -2.2258    3.2523    2.5866 H       1  SER1        0.0614
     35 HB2        -0.8270    4.0071    3.3702 H       1  SER1        0.0614
     36 H          -0.0320    4.5590    1.4907 H       1  SER1        0.2097
     37 H1         -0.3467    1.9535    4.9180 H       1  SER1        0.0614
     38 H2         -1.8778    1.2928    4.2813 H       1  SER1        0.0614
     39 H          -0.4122   -0.3150    5.0654 H       1  SER1        0.2097
     40 H2         -0.3673    0.1020    1.9647 H       1  SER1        0.2022
@<TRIPOS>UNITY_ATOM_ATTR
17 1
charge 1
@<TRIPOS>BOND
     1     1    10    1
     2     1     2    1
     3     1    23    1
     4     1    24    1
     5     2     4    1
     6     4     5    1
     7     4     6    1
     8     4    16    1
     9     6     8    1
    10     8     9    1
    11     8    10    1
    12     8    14    1
    13    10    11    1
    14    10    13    1
    15    11    12    1
    16    11    25    1
    17    11    26    1
    18    12    27    1
    19    13    28    1
    20    14    29    1
    21    15    30    1
    22    16    31    1
    23    17    18    1
    24    17    32    1
    25    17    40    1
    26    18    19    1
    27    18    21    1
    28    18    33    1
    29    19    20    1
    30    19    34    1
    31    19    35    1
    32    20    36    1
    33    21    22    1
    34    21    37    1
    35    21    38    1
    36    22    39    1
    37     2    17    1
    38     2     3    1
    39     6    15    1
    40     6     7    1
