@<TRIPOS>MOLECULE
ZINC00006157
 35 38 0 0 0
SMALL
GASTEIGER

@<TRIPOS>ATOM
      1 C          -1.8234    5.7135   -3.2802 C.ar    1  UNL1       -0.0615
      2 C          -1.5028    4.3545   -3.2657 C.ar    1  UNL1       -0.0614
      3 C          -1.2923    3.6603   -2.0539 C.ar    1  UNL1       -0.0551
      4 C          -1.4000    4.3551   -0.8377 C.ar    1  UNL1       -0.0058
      5 C          -1.7766    5.7381   -0.8642 C.ar    1  UNL1       -0.0366
      6 C          -1.9815    6.3988   -2.0797 C.ar    1  UNL1       -0.0579
      7 C          -1.8828    6.5326    0.4251 C.3     1  UNL1        0.0010
      8 C          -0.6286    6.6627    1.2858 C.ar    1  UNL1       -0.0065
      9 C          -0.6402    7.7245    2.2170 C.ar    1  UNL1       -0.0552
     10 C           0.3643    7.8605    3.1501 C.ar    1  UNL1       -0.0613
     11 C           1.4207    6.9410    3.1829 C.ar    1  UNL1       -0.0587
     12 C           1.4770    5.9056    2.2609 C.ar    1  UNL1       -0.0247
     13 C           0.4502    5.7393    1.3070 C.ar    1  UNL1        0.0984
     14 N           0.4802    4.6448    0.4017 N.pl3   1  UNL1       -0.1850
     15 C          -0.8073    3.9072    0.4935 C.3     1  UNL1        0.1323
     16 H          -1.4881    4.2163    1.2847 H       1  UNL1        0.0758
     17 C          -0.2930    2.5090    0.9928 C.3     1  UNL1        0.1005
     18 N           1.1692    2.5066    0.8371 N.2     1  UNL1       -0.2781
     19 C           1.4779    3.6689    0.1884 C.cat   1  UNL1        0.3345
     20 N           2.0578    3.5307   -1.0346 N.pl3   1  UNL1       -0.2539
     21 H          -1.9362    6.2536   -4.2176 H       1  UNL1        0.0618
     22 H          -1.3811    3.8434   -4.2197 H       1  UNL1        0.0618
     23 H          -0.9863    2.6303   -2.0936 H       1  UNL1        0.0621
     24 H          -2.2248    7.4604   -2.0990 H       1  UNL1        0.0620
     25 H          -2.6687    6.0597    1.0357 H       1  UNL1        0.0363
     26 H          -2.2673    7.5381    0.1918 H       1  UNL1        0.0363
     27 H          -1.4572    8.4440    2.2291 H       1  UNL1        0.0621
     28 H           0.3384    8.6815    3.8715 H       1  UNL1        0.0618
     29 H           2.1938    7.0325    3.9546 H       1  UNL1        0.0619
     30 H           2.2951    5.2053    2.3215 H       1  UNL1        0.0650
     31 H          -0.4800    2.4229    2.0717 H       1  UNL1        0.0691
     32 H          -0.7167    1.6601    0.4644 H       1  UNL1        0.0691
     33 H           1.7068    4.1314   -1.7787 H       1  UNL1        0.2411
     34 H           2.5047    2.6626   -1.3122 H       1  UNL1        0.2411
     35 H           1.8644    1.8377    1.1550 H       1  UNL1        0.2576
@<TRIPOS>BOND
     1     1     6   ar
     2     1     2   ar
     3     1    21    1
     4     2     3   ar
     5     2    22    1
     6     3     4   ar
     7     3    23    1
     8     4    15    1
     9     4     5   ar
    10     5     6   ar
    11     5     7    1
    12     6    24    1
    13     7     8    1
    14     7    25    1
    15     7    26    1
    16     8    13   ar
    17     8     9   ar
    18     9    10   ar
    19     9    27    1
    20    10    11   ar
    21    10    28    1
    22    11    12   ar
    23    11    29    1
    24    12    13   ar
    25    12    30    1
    26    13    14    1
    27    14    19    1
    28    14    15    1
    29    15    16    1
    30    15    17    1
    31    17    18    1
    32    17    31    1
    33    17    32    1
    34    18    19    2
    35    18    35    1
    36    19    20    1
    37    20    33    1
    38    20    34    1
