@<TRIPOS>MOLECULE
ZINC01846079
 27 27 0 0 0
SMALL
GASTEIGER

@<TRIPOS>ATOM
      1 C           1.0087    0.0551    0.0578 C.3     1  UNL1       -0.0444
      2 C           0.4370    0.4873   -1.2947 C.3     1  UNL1        0.0861
      3 H           0.7661   -0.2070   -2.0762 H       1  UNL1        0.0509
      4 C          -1.1029    0.4031   -1.2479 C.2     1  UNL1        0.2266
      5 O          -1.6769   -0.4548   -0.5748 O.2     1  UNL1       -0.2746
      6 N          -1.7765    1.2652   -2.0733 N.am    1  UNL1       -0.3038
      7 C          -3.2385    1.4135   -2.1014 C.3     1  UNL1        0.1133
      8 C          -3.6999    2.8537   -2.4575 C.2     1  UNL1        0.3727
      9 O          -2.7501    3.6776   -2.6425 O.co2   1  UNL1       -0.2446
     10 S           0.9963    2.1704   -1.7301 S.3     1  UNL1       -0.0701
     11 C           2.7428    1.9546   -1.7141 C.2     1  UNL1        0.2268
     12 O           3.2467    0.9130   -2.1182 O.2     1  UNL1       -0.2792
     13 C           3.4620    3.1078   -1.1818 C.ar    1  UNL1        0.0655
     14 C           2.9987    4.3331   -0.7241 C.ar    1  UNL1       -0.0433
     15 C           4.0411    5.1986   -0.2868 C.ar    1  UNL1       -0.0540
     16 C           5.2781    4.6121   -0.4106 C.ar    1  UNL1       -0.0236
     17 S           5.1766    3.0288   -1.0483 S.2     1  UNL1       -0.0929
     18 H           0.7076   -0.9718    0.2937 H       1  UNL1        0.0245
     19 H           0.6412    0.6935    0.8697 H       1  UNL1        0.0245
     20 H           2.1024    0.0703    0.0788 H       1  UNL1        0.0245
     21 H          -1.3095    2.1215   -2.3779 H       1  UNL1        0.1493
     22 H          -3.6098    0.7238   -2.8660 H       1  UNL1        0.0579
     23 H          -3.6537    1.1231   -1.1310 H       1  UNL1        0.0579
     24 H           1.9510    4.6145   -0.7052 H       1  UNL1        0.0630
     25 H           3.8834    6.1989    0.0965 H       1  UNL1        0.0623
     26 H           6.2392    5.0379   -0.1577 H       1  UNL1        0.0693
     27 O          -4.9489    3.0272   -2.5198 O.co2   1  UNL1       -0.2446
@<TRIPOS>BOND
     1     1     2    1
     2     1    18    1
     3     1    19    1
     4     1    20    1
     5     2     3    1
     6     2     4    1
     7     2    10    1
     8     4     5    2
     9     4     6   am
    10     6     7    1
    11     6    21    1
    12     7     8    1
    13     7    22    1
    14     7    23    1
    15     8     9   ar
    16     8    27   ar
    17    10    11    1
    18    11    12    2
    19    11    13    1
    20    13    17   ar
    21    13    14   ar
    22    14    15   ar
    23    14    24    1
    24    15    16   ar
    25    15    25    1
    26    16    17   ar
    27    16    26    1
