@<TRIPOS>MOLECULE
ZINC02510358
 31 33 0 0 0
SMALL
GASTEIGER

@<TRIPOS>ATOM
      1 C           1.4594   -0.4132    0.1377 C.ar    1  UNL1       -0.0617
      2 C           0.8988   -0.1531   -1.1095 C.ar    1  UNL1       -0.0614
      3 C          -0.4614    0.1512   -1.2222 C.ar    1  UNL1       -0.0557
      4 C          -1.2973    0.1726   -0.0912 C.ar    1  UNL1       -0.0108
      5 C          -0.7000   -0.0754    1.1634 C.ar    1  UNL1       -0.0557
      6 C           0.6622   -0.3649    1.2755 C.ar    1  UNL1       -0.0614
      7 C          -2.8044    0.4602   -0.2180 C.3     1  UNL1        0.1634
      8 C          -3.4323   -0.3670   -1.3945 C.2     1  UNL1        0.2531
      9 O          -3.2390   -0.2238   -2.5959 O.2     1  UNL1       -0.2722
     10 N          -4.3037   -1.2832   -0.8849 N.am    1  UNL1       -0.2378
     11 C          -4.4202   -1.1337    0.4474 C.2     1  UNL1        0.3072
     12 O          -5.2048   -1.7226    1.1710 O.2     1  UNL1       -0.2524
     13 N          -3.5420   -0.1748    0.8675 N.am    1  UNL1       -0.2777
     14 C          -3.1995    1.9469   -0.2326 C.ar    1  UNL1       -0.0108
     15 C          -2.5260    2.8859    0.5741 C.ar    1  UNL1       -0.0557
     16 C          -2.9939    4.1977    0.7069 C.ar    1  UNL1       -0.0614
     17 C          -4.1444    4.6025    0.0380 C.ar    1  UNL1       -0.0617
     18 C          -4.8119    3.7052   -0.7874 C.ar    1  UNL1       -0.0614
     19 C          -4.3447    2.3946   -0.9231 C.ar    1  UNL1       -0.0557
     20 H           2.5161   -0.6512    0.2220 H       1  UNL1        0.0618
     21 H           1.5201   -0.1904   -2.0011 H       1  UNL1        0.0618
     22 H          -0.8579    0.3549   -2.2157 H       1  UNL1        0.0621
     23 H          -1.2882   -0.0502    2.0776 H       1  UNL1        0.0621
     24 H           1.0971   -0.5599    2.2526 H       1  UNL1        0.0618
     25 H          -4.8739   -1.8979   -1.4367 H       1  UNL1        0.1591
     26 H          -3.5643    0.1663    1.8161 H       1  UNL1        0.1519
     27 H          -1.6358    2.6074    1.1338 H       1  UNL1        0.0621
     28 H          -2.4676    4.8992    1.3500 H       1  UNL1        0.0618
     29 H          -4.5236    5.6133    0.1636 H       1  UNL1        0.0618
     30 H          -5.7112    4.0168   -1.3139 H       1  UNL1        0.0618
     31 H          -4.9175    1.7266   -1.5633 H       1  UNL1        0.0621
@<TRIPOS>BOND
     1     1     6   ar
     2     1     2   ar
     3     1    20    1
     4     2     3   ar
     5     2    21    1
     6     3     4   ar
     7     3    22    1
     8     4     5   ar
     9     4     7    1
    10     5     6   ar
    11     5    23    1
    12     6    24    1
    13     7    13    1
    14     7     8    1
    15     7    14    1
    16     8     9    2
    17     8    10   am
    18    10    11   am
    19    10    25    1
    20    11    12    2
    21    11    13   am
    22    13    26    1
    23    14    19   ar
    24    14    15   ar
    25    15    16   ar
    26    15    27    1
    27    16    17   ar
    28    16    28    1
    29    17    18   ar
    30    17    29    1
    31    18    19   ar
    32    18    30    1
    33    19    31    1
