@<TRIPOS>MOLECULE
ZINC00125031
 28 29 0 0 0
SMALL
GASTEIGER

@<TRIPOS>ATOM
      1 C           1.4177   -0.2369    0.0605 C.ar    1  UNL1       -0.0595
      2 C           0.9897    1.0876    0.1600 C.ar    1  UNL1       -0.0500
      3 C          -0.3713    1.3718    0.3044 C.ar    1  UNL1        0.0566
      4 C          -1.2822    0.3074    0.3319 C.ar    1  UNL1       -0.0289
      5 C          -0.8882   -1.0218    0.1365 C.ar    1  UNL1        0.0329
      6 C           0.4854   -1.2811    0.0554 C.ar    1  UNL1       -0.0405
      7 N          -1.8076   -2.0884    0.0436 N.pl3   1  UNL1       -0.2988
      8 C          -3.1345   -2.0349   -0.4646 C.ar    1  UNL1        0.1371
      9 C          -3.7163   -3.1586   -1.0668 C.ar    1  UNL1        0.1030
     10 C          -4.9980   -3.0131   -1.6303 C.ar    1  UNL1       -0.0428
     11 C          -5.6716   -1.8029   -1.5625 C.ar    1  UNL1       -0.0427
     12 C          -5.0518   -0.7710   -0.8998 C.ar    1  UNL1        0.0297
     13 N          -3.8240   -0.8668   -0.3623 N.ar    1  UNL1       -0.2394
     14 C          -3.0001   -4.4817   -1.1810 C.2     1  UNL1        0.3899
     15 O          -3.6921   -5.4912   -1.5233 O.co2   1  UNL1       -0.2405
     16 O          -1.7504   -4.4814   -0.9386 O.co2   1  UNL1       -0.2405
     17 C          -0.8975    2.7775    0.3971 C.3     1  UNL1        0.4175
     18 F           0.0812    3.7287    0.3390 F       1  UNL1       -0.1659
     19 F          -1.7641    3.0916   -0.6080 F       1  UNL1       -0.1659
     20 F          -1.5709    3.0217    1.5572 F       1  UNL1       -0.1659
     21 H           2.4760   -0.4618   -0.0375 H       1  UNL1        0.0618
     22 H           1.7191    1.8933    0.1236 H       1  UNL1        0.0623
     23 H          -2.3310    0.5448    0.4855 H       1  UNL1        0.0642
     24 H           0.8337   -2.3072   -0.0502 H       1  UNL1        0.0636
     25 H          -1.3845   -2.9780   -0.2816 H       1  UNL1        0.1536
     26 H          -5.4535   -3.8606   -2.1417 H       1  UNL1        0.0627
     27 H          -6.6475   -1.6754   -2.0070 H       1  UNL1        0.0633
     28 H          -5.5257    0.1975   -0.7877 H       1  UNL1        0.0830
@<TRIPOS>BOND
     1     1     6   ar
     2     1     2   ar
     3     1    21    1
     4     2     3   ar
     5     2    22    1
     6     3     4   ar
     7     3    17    1
     8     4     5   ar
     9     4    23    1
    10     5     6   ar
    11     5     7    1
    12     6    24    1
    13     7     8    1
    14     7    25    1
    15     8    13   ar
    16     8     9   ar
    17     9    10   ar
    18     9    14    1
    19    10    11   ar
    20    10    26    1
    21    11    12   ar
    22    11    27    1
    23    12    13   ar
    24    12    28    1
    25    14    15   ar
    26    14    16   ar
    27    17    18    1
    28    17    19    1
    29    17    20    1
