@<TRIPOS>MOLECULE
ZINC00897408
 43 44 0 0 0
SMALL
GASTEIGER

@<TRIPOS>ATOM
      1 C           0.9090   -0.2372   -0.2157 C.3     1  UNL1       -0.0259
      2 C           0.2845   -1.5499    0.2702 C.3     1  UNL1        0.1583
      3 C           0.9136   -2.0531    1.5654 C.3     1  UNL1        0.1078
      4 S           2.5646   -2.7628    1.4469 S.O2    1  UNL1        0.0001
      5 O           3.4147   -1.9437    0.6035 O.2     1  UNL1       -0.1693
      6 O           2.9850   -3.0133    2.8181 O.2     1  UNL1       -0.1693
      7 C           2.4461   -4.3935    0.6968 C.ar    1  UNL1        0.0885
      8 C           2.8588   -4.6252   -0.6315 C.ar    1  UNL1       -0.0342
      9 C           2.8671   -5.9319   -1.1336 C.ar    1  UNL1       -0.0247
     10 C           2.4920   -6.9931   -0.3143 C.ar    1  UNL1        0.1235
     11 C           2.1127   -6.7744    1.0061 C.ar    1  UNL1       -0.0247
     12 C           2.0955   -5.4723    1.5182 C.ar    1  UNL1       -0.0342
     13 F           2.5146   -8.2452   -0.7965 F       1  UNL1       -0.2055
     14 C          -1.3209   -1.5348    0.2528 C.2     1  UNL1        0.2503
     15 O          -1.8527   -2.1649   -0.6761 O.2     1  UNL1       -0.2723
     16 N          -2.0887   -0.9195    1.2446 N.am    1  UNL1       -0.2831
     17 C          -3.5318   -1.0654    1.4201 C.ar    1  UNL1        0.0341
     18 C          -4.1484   -0.5565    2.5703 C.ar    1  UNL1       -0.0392
     19 C          -5.5212   -0.7974    2.8525 C.ar    1  UNL1       -0.0421
     20 C          -6.3568   -1.5104    1.9806 C.ar    1  UNL1        0.0635
     21 C          -5.8003   -1.9320    0.7659 C.ar    1  UNL1        0.0739
     22 C          -4.3959   -1.7196    0.5215 C.ar    1  UNL1       -0.0276
     23 C          -6.6030   -2.5935   -0.3326 C.3     1  UNL1        0.4187
     24 F          -7.9446   -2.6229   -0.1226 F       1  UNL1       -0.1659
     25 F          -6.4411   -1.9584   -1.5299 F       1  UNL1       -0.1659
     26 F          -6.2289   -3.8849   -0.5428 F       1  UNL1       -0.1659
     27 C          -7.7303   -1.7843    2.3581 C.1     1  UNL1        0.0997
     28 N          -8.8161   -2.0070    2.7272 N.1     1  UNL1       -0.1909
     29 O           0.6194   -2.5307   -0.7402 O.3     1  UNL1       -0.3780
     30 H           0.9317    0.5375    0.5567 H       1  UNL1        0.0263
     31 H           0.3729    0.1601   -1.0841 H       1  UNL1        0.0263
     32 H           1.9377   -0.3900   -0.5681 H       1  UNL1        0.0263
     33 H           1.0101   -1.2233    2.2784 H       1  UNL1        0.0538
     34 H           0.2916   -2.8127    2.0471 H       1  UNL1        0.0538
     35 H           3.1865   -3.8074   -1.2648 H       1  UNL1        0.0637
     36 H           3.1800   -6.1396   -2.1521 H       1  UNL1        0.0647
     37 H           1.8592   -7.6243    1.6359 H       1  UNL1        0.0647
     38 H           1.8536   -5.3229    2.5662 H       1  UNL1        0.0637
     39 H          -1.6150   -0.3676    1.9503 H       1  UNL1        0.1549
     40 H          -3.5843    0.0187    3.2974 H       1  UNL1        0.0636
     41 H          -5.9393   -0.4222    3.7917 H       1  UNL1        0.0631
     42 H          -4.0122   -2.0760   -0.4344 H       1  UNL1        0.0642
     43 H          -0.1486   -3.1345   -0.8273 H       1  UNL1        0.2109
@<TRIPOS>BOND
     1     1     2    1
     2     1    30    1
     3     1    31    1
     4     1    32    1
     5     2     3    1
     6     2    14    1
     7     2    29    1
     8     3     4    1
     9     3    33    1
    10     3    34    1
    11     4     5    2
    12     4     6    2
    13     4     7    1
    14     7    12   ar
    15     7     8   ar
    16     8     9   ar
    17     8    35    1
    18     9    10   ar
    19     9    36    1
    20    10    11   ar
    21    10    13    1
    22    11    12   ar
    23    11    37    1
    24    12    38    1
    25    14    15    2
    26    14    16   am
    27    16    17    1
    28    16    39    1
    29    17    22   ar
    30    17    18   ar
    31    18    19   ar
    32    18    40    1
    33    19    20   ar
    34    19    41    1
    35    20    21   ar
    36    20    27    1
    37    21    22   ar
    38    21    23    1
    39    22    42    1
    40    23    24    1
    41    23    25    1
    42    23    26    1
    43    27    28    3
    44    29    43    1
