@<TRIPOS>MOLECULE
ZINC03872566
 76 79 0 0 0
SMALL
GASTEIGER

@<TRIPOS>ATOM
      1 C           3.0834   -1.3590   -3.0662 C.3     1  UNL1       -0.0454
      2 C           2.4909   -1.4606   -4.4868 C.3     1  UNL1        0.0912
      3 C           2.7581   -2.9089   -4.9614 C.3     1  UNL1       -0.0454
      4 C           0.9881   -1.1194   -4.5381 C.ar    1  UNL1       -0.0310
      5 C           0.1756   -1.6408   -5.5567 C.ar    1  UNL1       -0.0572
      6 C          -1.1887   -1.3668   -5.6132 C.ar    1  UNL1       -0.0558
      7 C          -1.8012   -0.5682   -4.6412 C.ar    1  UNL1       -0.0191
      8 C          -0.9959    0.0155   -3.6572 C.ar    1  UNL1       -0.0558
      9 C           0.3795   -0.2552   -3.6113 C.ar    1  UNL1       -0.0572
     10 C          -3.3090   -0.5318   -4.6039 C.3     1  UNL1        0.0804
     11 H          -3.7049   -0.6982   -5.6139 H       1  UNL1        0.0643
     12 C          -3.7807   -1.6564   -3.6576 C.3     1  UNL1       -0.0179
     13 C          -5.3065   -1.7564   -3.5726 C.3     1  UNL1       -0.0099
     14 C          -5.7680   -2.8777   -2.6337 C.3     1  UNL1       -0.0318
     15 N          -7.3051   -2.9160   -2.5056 N.4     1  UNL1        0.2352
     16 C          -7.7369   -4.1350   -1.6991 C.3     1  UNL1       -0.0315
     17 C          -9.2424   -4.1455   -1.4367 C.3     1  UNL1       -0.0063
     18 C          -9.7636   -2.8073   -0.8479 C.3     1  UNL1        0.0058
     19 C          -9.3313   -1.6532   -1.7548 C.3     1  UNL1       -0.0063
     20 C          -7.8305   -1.6232   -1.9386 C.3     1  UNL1       -0.0315
     21 C         -11.2918   -2.7872   -0.4414 C.3     1  UNL1        0.1190
     22 C         -11.6278   -1.4571    0.2962 C.ar    1  UNL1       -0.0115
     23 C         -11.5515   -1.3287    1.6973 C.ar    1  UNL1       -0.0555
     24 C         -11.9648   -0.1532    2.3411 C.ar    1  UNL1       -0.0614
     25 C         -12.4358    0.9286    1.6021 C.ar    1  UNL1       -0.0617
     26 C         -12.4598    0.8511    0.2140 C.ar    1  UNL1       -0.0614
     27 C         -12.0592   -0.3249   -0.4287 C.ar    1  UNL1       -0.0555
     28 C         -12.3311   -3.0915   -1.5460 C.ar    1  UNL1       -0.0115
     29 C         -13.7008   -3.1445   -1.2321 C.ar    1  UNL1       -0.0555
     30 C         -14.6735   -3.3647   -2.2100 C.ar    1  UNL1       -0.0614
     31 C         -14.2908   -3.5437   -3.5485 C.ar    1  UNL1       -0.0617
     32 C         -12.9523   -3.5132   -3.8780 C.ar    1  UNL1       -0.0614
     33 C         -11.9946   -3.2830   -2.8968 C.ar    1  UNL1       -0.0555
     34 O         -11.3866   -3.8533    0.5286 O.3     1  UNL1       -0.3790
     35 O          -3.8351    0.7070   -4.1397 O.3     1  UNL1       -0.3872
     36 C           3.2219   -0.4517   -5.4383 C.2     1  UNL1        0.3658
     37 O           3.6689    0.6009   -4.8932 O.co2   1  UNL1       -0.2454
     38 O           3.2895   -0.7933   -6.6568 O.co2   1  UNL1       -0.2454
     39 H           2.5463   -2.0140   -2.3685 H       1  UNL1        0.0243
     40 H           3.0539   -0.3443   -2.6571 H       1  UNL1        0.0243
     41 H           4.1385   -1.6593   -3.0598 H       1  UNL1        0.0243
     42 H           2.1744   -3.6263   -4.3702 H       1  UNL1        0.0243
     43 H           2.5071   -3.0774   -6.0137 H       1  UNL1        0.0243
     44 H           3.8172   -3.1716   -4.8607 H       1  UNL1        0.0243
     45 H           0.5990   -2.2753   -6.3309 H       1  UNL1        0.0621
     46 H          -1.7682   -1.8175   -6.4138 H       1  UNL1        0.0621
     47 H          -1.4270    0.6638   -2.8980 H       1  UNL1        0.0621
     48 H           0.9728    0.2193   -2.8335 H       1  UNL1        0.0621
     49 H          -3.3625   -2.6158   -3.9851 H       1  UNL1        0.0295
     50 H          -3.3893   -1.4620   -2.6490 H       1  UNL1        0.0295
     51 H          -5.6712   -0.7885   -3.2199 H       1  UNL1        0.0318
     52 H          -5.7175   -1.9209   -4.5746 H       1  UNL1        0.0318
     53 H          -5.4623   -3.8551   -3.0246 H       1  UNL1        0.0814
     54 H          -5.3696   -2.7527   -1.6209 H       1  UNL1        0.0814
     55 H          -7.1750   -4.1328   -0.7605 H       1  UNL1        0.0814
     56 H          -7.4589   -5.0165   -2.2893 H       1  UNL1        0.0814
     57 H          -9.4856   -4.9783   -0.7653 H       1  UNL1        0.0321
     58 H          -9.7178   -4.4014   -2.3840 H       1  UNL1        0.0321
     59 H          -9.2067   -2.6869    0.0958 H       1  UNL1        0.0339
     60 H          -9.8119   -1.6921   -2.7351 H       1  UNL1        0.0321
     61 H          -9.6116   -0.6916   -1.3193 H       1  UNL1        0.0321
     62 H          -7.6040   -0.8286   -2.6518 H       1  UNL1        0.0814
     63 H          -7.3166   -1.4426   -0.9905 H       1  UNL1        0.0814
     64 H         -11.1947   -2.1512    2.3147 H       1  UNL1        0.0621
     65 H         -11.9376   -0.0845    3.4274 H       1  UNL1        0.0618
     66 H         -12.7876    1.8272    2.1028 H       1  UNL1        0.0618
     67 H         -12.8120    1.6980   -0.3704 H       1  UNL1        0.0618
     68 H         -12.1107   -0.3498   -1.5154 H       1  UNL1        0.0621
     69 H         -14.0510   -2.9822   -0.2093 H       1  UNL1        0.0621
     70 H         -15.7253   -3.3942   -1.9526 H       1  UNL1        0.0618
     71 H         -15.0403   -3.7125   -4.3096 H       1  UNL1        0.0618
     72 H         -12.6372   -3.6586   -4.9115 H       1  UNL1        0.0618
     73 H         -10.9846   -3.2421   -3.2603 H       1  UNL1        0.0621
     74 H         -12.3249   -4.0863    0.6295 H       1  UNL1        0.2111
     75 H          -4.1717    1.1764   -4.9246 H       1  UNL1        0.2102
     76 H          -7.6821   -3.0258   -3.4569 H       1  UNL1        0.2033
@<TRIPOS>UNITY_ATOM_ATTR
15 1
charge 1
@<TRIPOS>BOND
     1     1     2    1
     2     1    39    1
     3     1    40    1
     4     1    41    1
     5     2     3    1
     6     2     4    1
     7     2    36    1
     8     3    42    1
     9     3    43    1
    10     3    44    1
    11     4     9   ar
    12     4     5   ar
    13     5     6   ar
    14     5    45    1
    15     6     7   ar
    16     6    46    1
    17     7     8   ar
    18     7    10    1
    19     8     9   ar
    20     8    47    1
    21     9    48    1
    22    10    11    1
    23    10    12    1
    24    10    35    1
    25    12    13    1
    26    12    49    1
    27    12    50    1
    28    13    14    1
    29    13    51    1
    30    13    52    1
    31    14    15    1
    32    14    53    1
    33    14    54    1
    34    15    20    1
    35    15    16    1
    36    15    76    1
    37    16    17    1
    38    16    55    1
    39    16    56    1
    40    17    18    1
    41    17    57    1
    42    17    58    1
    43    18    19    1
    44    18    21    1
    45    18    59    1
    46    19    20    1
    47    19    60    1
    48    19    61    1
    49    20    62    1
    50    20    63    1
    51    21    22    1
    52    21    28    1
    53    21    34    1
    54    22    27   ar
    55    22    23   ar
    56    23    24   ar
    57    23    64    1
    58    24    25   ar
    59    24    65    1
    60    25    26   ar
    61    25    66    1
    62    26    27   ar
    63    26    67    1
    64    27    68    1
    65    28    33   ar
    66    28    29   ar
    67    29    30   ar
    68    29    69    1
    69    30    31   ar
    70    30    70    1
    71    31    32   ar
    72    31    71    1
    73    32    33   ar
    74    32    72    1
    75    33    73    1
    76    34    74    1
    77    35    75    1
    78    36    37   ar
    79    36    38   ar
