@<TRIPOS>MOLECULE
ZINC01530974
 42 44 0 0 0
SMALL
GASTEIGER

@<TRIPOS>ATOM
      1 C          -6.7648    3.8666   -2.2994 C.ar    1  UNL1       -0.0589
      2 C          -5.7476    4.8096   -2.3610 C.ar    1  UNL1       -0.0422
      3 C          -4.4049    4.4246   -2.2048 C.ar    1  UNL1        0.0558
      4 C          -4.0533    3.0956   -1.8765 C.ar    1  UNL1        0.0448
      5 C          -5.1054    2.1497   -1.8748 C.ar    1  UNL1        0.0558
      6 C          -6.4396    2.5340   -2.0836 C.ar    1  UNL1       -0.0422
      7 CL         -4.8429    0.4428   -1.7074 Cl      1  UNL1       -0.0824
      8 S          -2.3425    2.5327   -1.6693 S.3     1  UNL1       -0.1172
      9 C          -1.8104    3.1124    0.0343 C.3     1  UNL1        0.0282
     10 H          -0.8639    2.5863    0.2193 H       1  UNL1        0.0433
     11 C          -2.7726    2.7463    1.1862 C.3     1  UNL1       -0.0352
     12 C          -2.8546    1.2368    1.4489 C.3     1  UNL1       -0.0266
     13 C          -3.8153    0.8465    2.5512 C.ar    1  UNL1       -0.0472
     14 C          -3.3500    0.5939    3.8507 C.ar    1  UNL1       -0.0572
     15 C          -4.2174    0.1123    4.8358 C.ar    1  UNL1       -0.0431
     16 C          -5.5586   -0.1096    4.5328 C.ar    1  UNL1        0.0410
     17 C          -6.0480    0.1795    3.2598 C.ar    1  UNL1       -0.0431
     18 C          -5.1760    0.6617    2.2736 C.ar    1  UNL1       -0.0572
     19 CL         -6.6134   -0.7656    5.7237 Cl      1  UNL1       -0.0835
     20 C          -1.4792    4.6093   -0.0616 C.3     1  UNL1        0.0363
     21 N          -0.8834    5.2289    1.0980 N.ar    1  UNL1       -0.3358
     22 C          -1.5713    5.9471    2.0424 C.ar    1  UNL1        0.0240
     23 C          -0.6063    6.5304    2.8168 C.ar    1  UNL1        0.0454
     24 N           0.6460    6.1959    2.3718 N.ar    1  UNL1       -0.2441
     25 C           0.4503    5.4356    1.3167 C.ar    1  UNL1        0.0959
     26 CL         -3.2483    5.6521   -2.6067 Cl      1  UNL1       -0.0824
     27 H          -7.7980    4.1602   -2.4715 H       1  UNL1        0.0618
     28 H          -6.0012    5.8454   -2.5837 H       1  UNL1        0.0632
     29 H          -7.2294    1.7855   -2.1062 H       1  UNL1        0.0632
     30 H          -2.4120    3.2093    2.1135 H       1  UNL1        0.0280
     31 H          -3.7685    3.1694    1.0077 H       1  UNL1        0.0280
     32 H          -3.1443    0.6969    0.5442 H       1  UNL1        0.0314
     33 H          -1.8561    0.8558    1.7005 H       1  UNL1        0.0314
     34 H          -2.3008    0.7389    4.1000 H       1  UNL1        0.0621
     35 H          -3.8383   -0.1111    5.8292 H       1  UNL1        0.0632
     36 H          -7.0915    0.0102    3.0200 H       1  UNL1        0.0632
     37 H          -5.5685    0.8539    1.2801 H       1  UNL1        0.0621
     38 H          -0.7978    4.8041   -0.9020 H       1  UNL1        0.0503
     39 H          -2.4000    5.1751   -0.2226 H       1  UNL1        0.0503
     40 H          -2.6523    5.9986    2.0569 H       1  UNL1        0.0825
     41 H          -0.7479    7.1971    3.6646 H       1  UNL1        0.0845
     42 H           1.2274    5.0400    0.6769 H       1  UNL1        0.1029
@<TRIPOS>BOND
     1     1     6   ar
     2     1     2   ar
     3     1    27    1
     4     2     3   ar
     5     2    28    1
     6     3     4   ar
     7     3    26    1
     8     4     5   ar
     9     4     8    1
    10     5     6   ar
    11     5     7    1
    12     6    29    1
    13     9    11    1
    14     9    20    1
    15    11    12    1
    16    11    30    1
    17    11    31    1
    18    12    13    1
    19    12    32    1
    20    12    33    1
    21    13    18   ar
    22    13    14   ar
    23    14    15   ar
    24    14    34    1
    25    15    16   ar
    26    15    35    1
    27    16    17   ar
    28    16    19    1
    29    17    18   ar
    30    17    36    1
    31    18    37    1
    32    20    21    1
    33    20    38    1
    34    20    39    1
    35    21    25   ar
    36    21    22   ar
    37    22    23   ar
    38    22    40    1
    39    23    24   ar
    40    23    41    1
    41    24    25   ar
    42    25    42    1
    43     9    10    1
    44     9     8    1
