@<TRIPOS>MOLECULE
ZINC00155694
 29 29 0 0 0
SMALL
GASTEIGER

@<TRIPOS>ATOM
      1 C          -0.0080    1.7541    0.0258 C.3     1  UNL1       -0.0159
      2 C          -1.2894    1.3137    0.7262 C.3     1  UNL1        0.0065
      3 N          -1.8045    0.0875    0.1393 N.3     1  UNL1       -0.2432
      4 P          -0.7740   -1.1632   -0.0902 P.3     1  UNL1        0.2802
      5 O          -0.5759   -2.0110    1.1250 O.3     1  UNL1       -0.1524
      6 O           0.6031   -0.4797   -0.5767 O.3     1  UNL1       -0.3149
      7 C           1.0443    0.6615    0.1353 C.3     1  UNL1        0.0574
      8 N          -1.3563   -1.9509   -1.4145 N.3     1  UNL1       -0.2274
      9 C          -2.7323   -2.4664   -1.3449 C.3     1  UNL1        0.0209
     10 C          -2.9245   -3.7414   -0.5190 C.3     1  UNL1        0.0358
     11 CL         -4.6548   -4.1698   -0.4548 Cl      1  UNL1       -0.1241
     12 C          -0.4202   -2.8690   -2.0836 C.3     1  UNL1        0.0209
     13 C          -0.7978   -3.2436   -3.5219 C.3     1  UNL1        0.0358
     14 CL          0.4422   -4.3047   -4.2393 Cl      1  UNL1       -0.1241
     15 H           0.3608    2.6829    0.4723 H       1  UNL1        0.0300
     16 H          -0.2239    1.9522   -1.0321 H       1  UNL1        0.0300
     17 H          -1.1003    1.1679    1.7955 H       1  UNL1        0.0429
     18 H          -2.0452    2.1000    0.6299 H       1  UNL1        0.0429
     19 H          -2.6062   -0.2110    0.6829 H       1  UNL1        0.1316
     20 H           1.9837    0.9971   -0.3129 H       1  UNL1        0.0565
     21 H           1.2430    0.3938    1.1787 H       1  UNL1        0.0565
     22 H          -3.3797   -1.6820   -0.9338 H       1  UNL1        0.0443
     23 H          -3.1206   -2.6155   -2.3591 H       1  UNL1        0.0443
     24 H          -2.4018   -4.5913   -0.9657 H       1  UNL1        0.0442
     25 H          -2.5834   -3.6155    0.5106 H       1  UNL1        0.0442
     26 H           0.5643   -2.3875   -2.1332 H       1  UNL1        0.0443
     27 H          -0.2791   -3.7721   -1.4768 H       1  UNL1        0.0443
     28 H          -1.7402   -3.7948   -3.5690 H       1  UNL1        0.0442
     29 H          -0.8779   -2.3528   -4.1526 H       1  UNL1        0.0442
@<TRIPOS>BOND
     1     1     7    1
     2     1     2    1
     3     1    15    1
     4     1    16    1
     5     2     3    1
     6     2    17    1
     7     2    18    1
     8     3     4    1
     9     3    19    1
    10     4     6    1
    11     6     7    1
    12     7    20    1
    13     7    21    1
    14     8     9    1
    15     8    12    1
    16     9    10    1
    17     9    22    1
    18     9    23    1
    19    10    11    1
    20    10    24    1
    21    10    25    1
    22    12    13    1
    23    12    26    1
    24    12    27    1
    25    13    14    1
    26    13    28    1
    27    13    29    1
    28     4     8    1
    29     4     5    2
