@<TRIPOS>MOLECULE
ZINC02041302
 26 25 0 0 0
SMALL
GASTEIGER

@<TRIPOS>ATOM
      1 C          -1.1511   -1.7286    2.5922 C.3     1  UNL1        0.0727
      2 C          -1.5402   -0.9049    1.3564 C.3     1  UNL1        0.1065
      3 H          -1.1572   -1.3987    0.4569 H       1  UNL1        0.0643
      4 C          -0.9950    0.5421    1.3999 C.3     1  UNL1        0.1114
      5 H           0.0994    0.5137    1.4236 H       1  UNL1        0.0647
      6 C          -1.5102    1.3769    2.5871 C.3     1  UNL1        0.1114
      7 H          -1.2699    0.8561    3.5220 H       1  UNL1        0.0647
      8 C          -0.9127    2.8007    2.6811 C.3     1  UNL1        0.1065
      9 H           0.1741    2.7283    2.7914 H       1  UNL1        0.0643
     10 C          -1.2421    3.7655    1.5316 C.3     1  UNL1        0.0727
     11 O          -2.6450    3.9783    1.3982 O.3     1  UNL1       -0.3924
     12 O          -1.4251    3.3468    3.9163 O.3     1  UNL1       -0.3869
     13 O          -2.9483    1.4536    2.5449 O.3     1  UNL1       -0.3865
     14 O          -1.3800    1.1709    0.1691 O.3     1  UNL1       -0.3865
     15 O          -2.9673   -0.8954    1.1888 O.3     1  UNL1       -0.3869
     16 O          -1.4706   -3.1120    2.4454 O.3     1  UNL1       -0.3924
     17 H          -1.6810   -1.3832    3.4838 H       1  UNL1        0.0584
     18 H          -0.0739   -1.6611    2.7726 H       1  UNL1        0.0584
     19 H          -0.8037    4.7471    1.7450 H       1  UNL1        0.0584
     20 H          -0.8328    3.4369    0.5748 H       1  UNL1        0.0584
     21 H          -3.0585    3.0938    1.3532 H       1  UNL1        0.2095
     22 H          -1.3171    4.3168    3.8777 H       1  UNL1        0.2100
     23 H          -3.1800    2.0385    3.3020 H       1  UNL1        0.2100
     24 H          -2.3368    0.9910    0.0655 H       1  UNL1        0.2100
     25 H          -3.3358   -0.2806    1.8591 H       1  UNL1        0.2100
     26 H          -1.4995   -3.3242    1.4962 H       1  UNL1        0.2095
@<TRIPOS>BOND
     1     1    16    1
     2     1    17    1
     3     1    18    1
     4     2    15    1
     5     4     6    1
     6     4    14    1
     7     6     7    1
     8     6     8    1
     9     6    13    1
    10     8     9    1
    11     8    10    1
    12     8    12    1
    13    10    11    1
    14    10    19    1
    15    10    20    1
    16    11    21    1
    17    12    22    1
    18    13    23    1
    19    14    24    1
    20    15    25    1
    21    16    26    1
    22     2     3    1
    23     2     1    1
    24     4     5    1
    25     4     2    1
