@<TRIPOS>MOLECULE
ZINC02570817
 31 32 0 0 0
SMALL
GASTEIGER

@<TRIPOS>ATOM
      1 C          -1.8480   -0.0469    0.0129 C.ar    1  UNL1       -0.0607
      2 C          -1.1948    1.1771    0.0255 C.ar    1  UNL1       -0.0563
      3 C           0.2078    1.2506   -0.0209 C.ar    1  UNL1       -0.0153
      4 C           0.9692    0.0641   -0.1317 C.ar    1  UNL1        0.0392
      5 C           0.3003   -1.1783   -0.0309 C.ar    1  UNL1        0.0431
      6 C          -1.1046   -1.2209   -0.0148 C.ar    1  UNL1       -0.0491
      7 C           1.0511   -2.4717   -0.0071 C.2     1  UNL1        0.1949
      8 O           2.0593   -2.6194   -0.6960 O.2     1  UNL1       -0.2866
      9 C           0.5884   -3.6270    0.8265 C.ar    1  UNL1        0.0224
     10 C          -0.1395   -3.4532    2.0122 C.ar    1  UNL1       -0.0499
     11 C          -0.5448   -4.5628    2.7637 C.ar    1  UNL1       -0.0471
     12 C          -0.2005   -5.8473    2.3463 C.ar    1  UNL1        0.0179
     13 C           0.5325   -6.0360    1.1766 C.ar    1  UNL1       -0.0471
     14 C           0.9269   -4.9264    0.4192 C.ar    1  UNL1       -0.0499
     15 BR         -0.7100   -7.3407    3.3886 Br      1  UNL1       -0.0503
     16 N           2.3857    0.1466   -0.1356 N.pl3   1  UNL1       -0.3572
     17 C           0.8395    2.6276   -0.0240 C.3     1  UNL1        0.0760
     18 C           1.0676    3.1011   -1.4565 C.2     1  UNL1        0.3603
     19 O           0.1342    3.7928   -1.9588 O.co2   1  UNL1       -0.2460
     20 O           2.1885    2.7748   -1.9517 O.co2   1  UNL1       -0.2460
     21 H          -2.9332   -0.0798    0.0195 H       1  UNL1        0.0618
     22 H          -1.7740    2.1000    0.0379 H       1  UNL1        0.0621
     23 H          -1.6348   -2.1676   -0.0383 H       1  UNL1        0.0625
     24 H          -0.3890   -2.4589    2.3745 H       1  UNL1        0.0625
     25 H          -1.1152   -4.4103    3.6765 H       1  UNL1        0.0629
     26 H           0.8097   -7.0344    0.8486 H       1  UNL1        0.0629
     27 H           1.5048   -5.0783   -0.4910 H       1  UNL1        0.0625
     28 H           2.7880   -0.6858   -0.5745 H       1  UNL1        0.1423
     29 H           2.6759    0.9810   -0.6689 H       1  UNL1        0.1423
     30 H           0.1967    3.3423    0.5053 H       1  UNL1        0.0428
     31 H           1.7858    2.6295    0.5301 H       1  UNL1        0.0428
@<TRIPOS>BOND
     1     1     6   ar
     2     1     2   ar
     3     1    21    1
     4     2     3   ar
     5     2    22    1
     6     3     4   ar
     7     3    17    1
     8     4     5   ar
     9     4    16    1
    10     5     6   ar
    11     5     7    1
    12     6    23    1
    13     7     8    2
    14     7     9    1
    15     9    14   ar
    16     9    10   ar
    17    10    11   ar
    18    10    24    1
    19    11    12   ar
    20    11    25    1
    21    12    13   ar
    22    12    15    1
    23    13    14   ar
    24    13    26    1
    25    14    27    1
    26    16    28    1
    27    16    29    1
    28    17    18    1
    29    17    30    1
    30    17    31    1
    31    18    19   ar
    32    18    20   ar
