@<TRIPOS>MOLECULE
ZINC00105196
 23 23 0 0 0
SMALL
GASTEIGER

@<TRIPOS>ATOM
      1 CZ          1.4038   -0.2262    0.1462 C.ar    1  PHE1       -0.0617
      2 CE1         0.5317   -0.7594    1.0924 C.ar    1  PHE1       -0.0615
      3 CD1        -0.8431   -0.5508    0.9742 C.ar    1  PHE1       -0.0584
      4 CG         -1.3557    0.2107   -0.0844 C.ar    1  PHE1       -0.0415
      5 CD2        -0.4703    0.7296   -1.0402 C.ar    1  PHE1       -0.0584
      6 CE2         0.9025    0.5106   -0.9244 C.ar    1  PHE1       -0.0615
      7 CB         -2.8318    0.5079   -0.1813 C.3     1  PHE1        0.0261
      8 CA         -3.3877    1.2879    1.0125 C.3     1  PHE1        0.0826
      9 HA         -3.2720    0.7615    1.9644 H       1  PHE1        0.0973
     10 C          -2.7692    2.7128    1.0499 C.2     1  PHE1        0.4029
     11 O          -3.4652    3.5007    0.3241 O.co2   1  PHE1       -0.2400
     12 OXT        -1.8751    2.9238    1.8944 O.co2   1  PHE1       -0.2400
     13 N          -4.8917    1.4540    0.8028 N.4     1  PHE1        0.2291
     14 HZ          2.4757   -0.3689    0.2528 H       1  PHE1        0.0618
     15 HE1         0.9256   -1.3185    1.9375 H       1  PHE1        0.0618
     16 HD1        -1.4985   -0.9650    1.7355 H       1  PHE1        0.0620
     17 HD2        -0.8364    1.3346   -1.8666 H       1  PHE1        0.0620
     18 HE2         1.5826    0.9384   -1.6559 H       1  PHE1        0.0618
     19 HB1        -3.0352    1.0541   -1.1132 H       1  PHE1        0.0374
     20 HB2        -3.3595   -0.4497   -0.2784 H       1  PHE1        0.0374
     21 H1         -4.9293    2.1987    0.0743 H       1  PHE1        0.2003
     22 H2         -5.4184    0.6225    0.5470 H       1  PHE1        0.2003
     23 H3         -5.2735    1.9338    1.6260 H       1  PHE1        0.2003
@<TRIPOS>UNITY_ATOM_ATTR
13 1
charge 1
@<TRIPOS>BOND
     1     1     6   ar
     2     1     2   ar
     3     1    14    1
     4     2     3   ar
     5     2    15    1
     6     3     4   ar
     7     3    16    1
     8     4     5   ar
     9     4     7    1
    10     5     6   ar
    11     5    17    1
    12     6    18    1
    13     7     8    1
    14     7    19    1
    15     7    20    1
    16     8     9    1
    17     8    10    1
    18     8    13    1
    19    10    11   ar
    20    10    12   ar
    21    13    21    1
    22    13    22    1
    23    13    23    1
