@<TRIPOS>MOLECULE
ZINC03831050
 29 28 0 0 0
SMALL
GASTEIGER

@<TRIPOS>ATOM
      1 C           1.0195   -1.2998   -2.1706 C.3     1  UNL1       -0.0226
      2 C           0.5616   -0.0053   -1.4902 C.3     1  UNL1        0.1396
      3 H           0.8070    0.8431   -2.1371 H       1  UNL1        0.0785
      4 C          -0.9733   -0.0248   -1.2879 C.3     1  UNL1        0.0069
      5 N          -1.5981    1.2213   -0.5870 N.4     1  UNL1        0.2395
      6 C          -1.2577    2.5210   -1.3059 C.3     1  UNL1       -0.0417
      7 C          -3.1225    1.0461   -0.6192 C.3     1  UNL1       -0.0417
      8 C          -1.1735    1.3277    0.8744 C.3     1  UNL1       -0.0417
      9 O           1.2431    0.1123   -0.2252 O.3     1  UNL1       -0.4564
     10 C           2.5048    0.6312   -0.3015 C.2     1  UNL1        0.3044
     11 O           3.0521    0.9802   -1.3396 O.2     1  UNL1       -0.2512
     12 C           3.0967    0.7785    1.0649 C.3     1  UNL1        0.0332
     13 H           0.4044   -1.5407   -3.0455 H       1  UNL1        0.0267
     14 H           0.9966   -2.1494   -1.4775 H       1  UNL1        0.0267
     15 H           2.0566   -1.2096   -2.5113 H       1  UNL1        0.0267
     16 H          -1.4598   -0.0886   -2.2688 H       1  UNL1        0.0851
     17 H          -1.2778   -0.8903   -0.6880 H       1  UNL1        0.0851
     18 H          -1.5450    2.4223   -2.3561 H       1  UNL1        0.0778
     19 H          -1.8214    3.3319   -0.8323 H       1  UNL1        0.0778
     20 H          -0.1863    2.7118   -1.2084 H       1  UNL1        0.0778
     21 H          -3.3744    0.1270   -0.0820 H       1  UNL1        0.0778
     22 H          -3.5853    1.9112   -0.1342 H       1  UNL1        0.0778
     23 H          -3.4411    0.9840   -1.6642 H       1  UNL1        0.0778
     24 H          -1.2590    0.3408    1.3367 H       1  UNL1        0.0778
     25 H          -0.1511    1.7059    0.9257 H       1  UNL1        0.0778
     26 H          -1.8383    2.0388    1.3760 H       1  UNL1        0.0778
     27 H           2.4664    1.4441    1.6608 H       1  UNL1        0.0342
     28 H           3.1892   -0.1988    1.5481 H       1  UNL1        0.0342
     29 H           4.0908    1.2250    0.9822 H       1  UNL1        0.0342
@<TRIPOS>UNITY_ATOM_ATTR
5 1
charge 1
@<TRIPOS>BOND
     1     1     2    1
     2     1    13    1
     3     1    14    1
     4     1    15    1
     5     2     3    1
     6     2     4    1
     7     2     9    1
     8     4     5    1
     9     4    16    1
    10     4    17    1
    11     5     6    1
    12     5     7    1
    13     5     8    1
    14     6    18    1
    15     6    19    1
    16     6    20    1
    17     7    21    1
    18     7    22    1
    19     7    23    1
    20     8    24    1
    21     8    25    1
    22     8    26    1
    23     9    10    1
    24    10    11    2
    25    10    12    1
    26    12    27    1
    27    12    28    1
    28    12    29    1
