@<TRIPOS>MOLECULE
ZINC00000401
 39 39 0 0 0
SMALL
GASTEIGER

@<TRIPOS>ATOM
      1 C          -1.2445   -3.2705   -2.6567 C.3     1  UNL1       -0.0601
      2 C           0.2538   -3.1027   -2.4437 C.3     1  UNL1       -0.0098
      3 C           0.9013   -4.0986   -1.4737 C.3     1  UNL1        0.0081
      4 H           1.9912   -3.9851   -1.4976 H       1  UNL1        0.0880
      5 C           0.4291   -3.9862    0.0162 C.3     1  UNL1        0.1226
      6 H          -0.6542   -4.1474    0.0765 H       1  UNL1        0.0701
      7 C           0.7585   -2.6790    0.7110 C.ar    1  UNL1       -0.0101
      8 C          -0.1589   -1.6079    0.6352 C.ar    1  UNL1       -0.0522
      9 C           0.1087   -0.3782    1.2354 C.ar    1  UNL1       -0.0162
     10 C           1.2891   -0.2105    1.9380 C.ar    1  UNL1        0.1582
     11 C           2.1987   -1.2578    2.0493 C.ar    1  UNL1        0.1586
     12 C           1.9523   -2.4844    1.4351 C.ar    1  UNL1       -0.0107
     13 O           3.3292   -1.0223    2.7803 O.3     1  UNL1       -0.5033
     14 O           1.5477    0.9929    2.5233 O.3     1  UNL1       -0.5033
     15 O           1.0052   -5.1166    0.7027 O.3     1  UNL1       -0.3816
     16 N           0.6383   -5.5437   -1.9136 N.4     1  UNL1        0.2330
     17 C           1.1031   -6.0134   -3.2625 C.3     1  UNL1       -0.0281
     18 C           2.6199   -5.9581   -3.3660 C.3     1  UNL1       -0.0219
     19 C           0.5977   -7.4397   -3.4684 C.3     1  UNL1       -0.0219
     20 H          -1.4660   -4.1762   -3.2290 H       1  UNL1        0.0232
     21 H          -1.6341   -2.4197   -3.2254 H       1  UNL1        0.0232
     22 H          -1.7935   -3.3172   -1.7131 H       1  UNL1        0.0232
     23 H           0.7515   -3.1669   -3.4188 H       1  UNL1        0.0318
     24 H           0.4483   -2.0831   -2.0936 H       1  UNL1        0.0318
     25 H          -1.1035   -1.7155    0.1039 H       1  UNL1        0.0622
     26 H          -0.5991    0.4454    1.1647 H       1  UNL1        0.0655
     27 H           2.6794   -3.2868    1.5305 H       1  UNL1        0.0659
     28 H           3.8374   -1.8454    2.8685 H       1  UNL1        0.2923
     29 H           2.4150    0.8877    2.9631 H       1  UNL1        0.2923
     30 H           0.9703   -4.9217    1.6615 H       1  UNL1        0.2105
     31 H           1.0607   -6.1254   -1.1645 H       1  UNL1        0.2020
     32 H           0.6394   -5.3644   -4.0112 H       1  UNL1        0.0845
     33 H           3.1012   -6.5165   -2.5563 H       1  UNL1        0.0284
     34 H           2.9526   -6.3933   -4.3156 H       1  UNL1        0.0284
     35 H           2.9858   -4.9276   -3.3396 H       1  UNL1        0.0284
     36 H          -0.4862   -7.5043   -3.3252 H       1  UNL1        0.0284
     37 H           0.8154   -7.7775   -4.4881 H       1  UNL1        0.0284
     38 H           1.0752   -8.1410   -2.7755 H       1  UNL1        0.0284
     39 H          -0.3689   -5.7302   -1.8247 H       1  UNL1        0.2020
@<TRIPOS>UNITY_ATOM_ATTR
16 1
charge 1
@<TRIPOS>BOND
     1     1     2    1
     2     1    20    1
     3     1    21    1
     4     1    22    1
     5     2     3    1
     6     2    23    1
     7     2    24    1
     8     3     4    1
     9     3    16    1
    10     5     7    1
    11     5    15    1
    12     7    12   ar
    13     7     8   ar
    14     8     9   ar
    15     8    25    1
    16     9    10   ar
    17     9    26    1
    18    10    11   ar
    19    10    14    1
    20    11    12   ar
    21    11    13    1
    22    12    27    1
    23    13    28    1
    24    14    29    1
    25    15    30    1
    26    16    17    1
    27    16    31    1
    28    16    39    1
    29    17    18    1
    30    17    19    1
    31    17    32    1
    32    18    33    1
    33    18    34    1
    34    18    35    1
    35    19    36    1
    36    19    37    1
    37    19    38    1
    38     5     6    1
    39     5     3    1
