@<TRIPOS>MOLECULE
ZINC00020246
 48 50 0 0 0
SMALL
GASTEIGER

@<TRIPOS>ATOM
      1 C           0.9208    2.5055   -0.4457 C.3     1  UNL1       -0.0561
      2 C           0.4415    1.5388    0.6507 C.3     1  UNL1        0.0124
      3 H           0.6975    1.9892    1.6143 H       1  UNL1        0.0365
      4 C          -1.1155    1.4374    0.5855 C.3     1  UNL1        0.0247
      5 N          -1.6724    0.4798    1.5530 N.pl3   1  UNL1       -0.2978
      6 C          -1.3849    0.6015    2.9281 C.ar    1  UNL1        0.0479
      7 C          -1.3654    1.8457    3.5732 C.ar    1  UNL1       -0.0393
      8 C          -1.0818    1.9402    4.9380 C.ar    1  UNL1       -0.0599
      9 C          -0.8055    0.7914    5.6751 C.ar    1  UNL1       -0.0606
     10 C          -0.8644   -0.4591    5.0641 C.ar    1  UNL1       -0.0462
     11 C          -1.1808   -0.5618    3.7060 C.ar    1  UNL1        0.0341
     12 S          -1.3058   -2.1905    2.9606 S.3     1  UNL1       -0.0857
     13 C          -2.5041   -1.8181    1.6769 C.ar    1  UNL1        0.0343
     14 C          -2.5492   -0.5317    1.0956 C.ar    1  UNL1        0.0514
     15 C          -3.5695   -0.2510    0.1653 C.ar    1  UNL1        0.0025
     16 C          -4.5165   -1.2234   -0.1764 C.ar    1  UNL1        0.1219
     17 C          -4.4045   -2.5071    0.3558 C.ar    1  UNL1       -0.0188
     18 C          -3.4034   -2.8121    1.2792 C.ar    1  UNL1       -0.0427
     19 O          -5.5976   -1.0356   -0.9899 O.3     1  UNL1       -0.4950
     20 C          -5.8597    0.2917   -1.4278 C.3     1  UNL1        0.0788
     21 C           1.1419    0.1663    0.5528 C.3     1  UNL1       -0.0283
     22 N           2.6568    0.2623    0.7882 N.4     1  UNL1        0.2311
     23 C           3.0395    0.7637    2.1595 C.3     1  UNL1       -0.0433
     24 C           3.3465   -1.0563    0.5168 C.3     1  UNL1       -0.0433
     25 H           0.7518    3.5405   -0.1312 H       1  UNL1        0.0235
     26 H           0.3810    2.3495   -1.3852 H       1  UNL1        0.0235
     27 H           1.9869    2.4108   -0.6651 H       1  UNL1        0.0235
     28 H          -1.5561    2.4297    0.7461 H       1  UNL1        0.0472
     29 H          -1.3824    1.1500   -0.4391 H       1  UNL1        0.0472
     30 H          -1.6397    2.7520    3.0389 H       1  UNL1        0.0636
     31 H          -1.1039    2.9089    5.4319 H       1  UNL1        0.0618
     32 H          -0.5793    0.8676    6.7366 H       1  UNL1        0.0618
     33 H          -0.6918   -1.3534    5.6604 H       1  UNL1        0.0629
     34 H          -3.6717    0.7592   -0.2099 H       1  UNL1        0.0673
     35 H          -5.1380   -3.2698    0.0864 H       1  UNL1        0.0654
     36 H          -3.3629   -3.8078    1.7108 H       1  UNL1        0.0630
     37 H          -5.9687    0.9835   -0.5827 H       1  UNL1        0.0660
     38 H          -5.0783    0.6293   -2.1137 H       1  UNL1        0.0660
     39 H          -6.8086    0.2889   -1.9731 H       1  UNL1        0.0660
     40 H           0.7744   -0.5520    1.2875 H       1  UNL1        0.0817
     41 H           1.0138   -0.2553   -0.4508 H       1  UNL1        0.0817
     42 H           2.5941    0.1103    2.9128 H       1  UNL1        0.0777
     43 H           4.1317    0.7557    2.2309 H       1  UNL1        0.0777
     44 H           2.6945    1.7939    2.2640 H       1  UNL1        0.0777
     45 H           3.1099   -1.3523   -0.5150 H       1  UNL1        0.0777
     46 H           4.4225   -0.8990    0.6144 H       1  UNL1        0.0777
     47 H           2.9881   -1.7942    1.2326 H       1  UNL1        0.0777
     48 H           3.0517    0.9197    0.1086 H       1  UNL1        0.2028
@<TRIPOS>UNITY_ATOM_ATTR
22 1
charge 1
@<TRIPOS>BOND
     1     1     2    1
     2     1    25    1
     3     1    26    1
     4     1    27    1
     5     2     3    1
     6     2     4    1
     7     2    21    1
     8     4     5    1
     9     4    28    1
    10     4    29    1
    11     5    14    1
    12     5     6    1
    13     6    11   ar
    14     6     7   ar
    15     7     8   ar
    16     7    30    1
    17     8     9   ar
    18     8    31    1
    19     9    10   ar
    20     9    32    1
    21    10    11   ar
    22    10    33    1
    23    11    12    1
    24    12    13    1
    25    13    18   ar
    26    13    14   ar
    27    14    15   ar
    28    15    16   ar
    29    15    34    1
    30    16    17   ar
    31    16    19    1
    32    17    18   ar
    33    17    35    1
    34    18    36    1
    35    19    20    1
    36    20    37    1
    37    20    38    1
    38    20    39    1
    39    21    22    1
    40    21    40    1
    41    21    41    1
    42    22    23    1
    43    22    24    1
    44    22    48    1
    45    23    42    1
    46    23    43    1
    47    23    44    1
    48    24    45    1
    49    24    46    1
    50    24    47    1
