@<TRIPOS>MOLECULE
ZINC00057261
 36 36 0 0 0
SMALL
GASTEIGER

@<TRIPOS>ATOM
      1 C           1.3868   -3.1984   -3.4051 C.3     1  UNL1       -0.0193
      2 C           0.6506   -2.7072   -2.1539 C.3     1  UNL1       -0.0203
      3 C          -0.8676   -2.8436   -2.3067 C.3     1  UNL1       -0.0193
      4 C           1.1126   -3.5155   -0.9315 C.3     1  UNL1       -0.0193
      5 N           1.0172   -1.2546   -1.8687 N.4     1  UNL1        0.2328
      6 C           0.5505   -0.2027   -2.8448 C.3     1  UNL1       -0.0023
      7 C           0.8871    1.2422   -2.3988 C.3     1  UNL1        0.1198
      8 H           0.3868    1.4160   -1.4377 H       1  UNL1        0.0698
      9 C           2.3456    1.6239   -2.2611 C.ar    1  UNL1       -0.0112
     10 C           2.6817    2.7037   -1.4295 C.ar    1  UNL1       -0.0357
     11 C           4.0041    3.1731   -1.3422 C.ar    1  UNL1        0.0633
     12 C           5.0321    2.5965   -2.1005 C.ar    1  UNL1        0.0617
     13 C           4.6999    1.4776   -2.8862 C.ar    1  UNL1        0.0633
     14 C           3.3755    1.0215   -2.9921 C.ar    1  UNL1       -0.0357
     15 CL          5.9073    0.6420   -3.8028 Cl      1  UNL1       -0.0816
     16 N           6.3796    2.9758   -1.9122 N.pl3   1  UNL1       -0.3557
     17 CL          4.3174    4.5249   -0.3104 Cl      1  UNL1       -0.0816
     18 O           0.2878    2.1211   -3.3481 O.3     1  UNL1       -0.3819
     19 H           0.9415   -4.1348   -3.7686 H       1  UNL1        0.0287
     20 H           2.4415   -3.4011   -3.1982 H       1  UNL1        0.0287
     21 H           1.3397   -2.4882   -4.2341 H       1  UNL1        0.0287
     22 H          -1.1529   -3.8972   -2.4074 H       1  UNL1        0.0287
     23 H          -1.3960   -2.4414   -1.4354 H       1  UNL1        0.0287
     24 H          -1.2395   -2.3320   -3.2009 H       1  UNL1        0.0287
     25 H           2.1851   -3.3851   -0.7469 H       1  UNL1        0.0287
     26 H           0.5798   -3.2082   -0.0243 H       1  UNL1        0.0287
     27 H           0.9287   -4.5864   -1.0774 H       1  UNL1        0.0287
     28 H           0.6453   -1.0147   -0.9389 H       1  UNL1        0.2020
     29 H           0.9807   -0.4248   -3.8251 H       1  UNL1        0.0843
     30 H          -0.5364   -0.2900   -2.9281 H       1  UNL1        0.0843
     31 H           1.9146    3.2164   -0.8460 H       1  UNL1        0.0636
     32 H           3.1767    0.2052   -3.6854 H       1  UNL1        0.0636
     33 H           6.4888    3.9385   -1.5976 H       1  UNL1        0.1424
     34 H           6.9858    2.7449   -2.6934 H       1  UNL1        0.1424
     35 H           0.6312    3.0249   -3.2173 H       1  UNL1        0.2105
     36 H           2.0416   -1.1939   -1.7742 H       1  UNL1        0.2020
@<TRIPOS>UNITY_ATOM_ATTR
5 1
charge 1
@<TRIPOS>BOND
     1     1     2    1
     2     1    19    1
     3     1    20    1
     4     1    21    1
     5     2     3    1
     6     2     4    1
     7     2     5    1
     8     3    22    1
     9     3    23    1
    10     3    24    1
    11     4    25    1
    12     4    26    1
    13     4    27    1
    14     5     6    1
    15     5    28    1
    16     5    36    1
    17     6     7    1
    18     6    29    1
    19     6    30    1
    20     7     8    1
    21     7     9    1
    22     7    18    1
    23     9    14   ar
    24     9    10   ar
    25    10    11   ar
    26    10    31    1
    27    11    12   ar
    28    11    17    1
    29    12    13   ar
    30    12    16    1
    31    13    14   ar
    32    13    15    1
    33    14    32    1
    34    16    33    1
    35    16    34    1
    36    18    35    1
