@<TRIPOS>MOLECULE
ZINC01542901
 57 59 0 0 0
SMALL
GASTEIGER

@<TRIPOS>ATOM
      1 C           4.1699    0.5118   -0.3036 C.3     1  UNL1       -0.0244
      2 C           2.7207    0.6643   -0.5827 C.ar    1  UNL1        0.0140
      3 C           1.6422    0.0634    0.0307 C.ar    1  UNL1       -0.0302
      4 C           0.4491    0.4750   -0.6249 C.ar    1  UNL1        0.0415
      5 C           0.8528    1.4148   -1.5895 C.ar    1  UNL1        0.0502
      6 N           2.2331    1.4920   -1.5561 N.ar    1  UNL1       -0.3580
      7 H           2.7902    2.0788   -2.1657 H       1  UNL1        0.1656
      8 C          -0.0449    2.1003   -2.4178 C.ar    1  UNL1       -0.0376
      9 C          -1.4059    1.8293   -2.2537 C.ar    1  UNL1       -0.0563
     10 C          -1.8340    0.8644   -1.3434 C.ar    1  UNL1       -0.0192
     11 C          -0.9302    0.1551   -0.5326 C.ar    1  UNL1        0.1298
     12 O          -1.5134   -0.9175    0.1424 O.3     1  UNL1       -0.4874
     13 C          -0.9975   -1.3123    1.4132 C.3     1  UNL1        0.1315
     14 C          -0.2510   -2.6705    1.3258 C.3     1  UNL1        0.1762
     15 H           0.4996   -2.5769    0.5347 H       1  UNL1        0.0823
     16 C          -1.1788   -3.8442    0.8758 C.3     1  UNL1        0.0081
     17 N          -0.5038   -5.1391    0.3525 N.4     1  UNL1        0.2334
     18 C           0.3248   -6.0553    1.2462 C.3     1  UNL1       -0.0203
     19 C          -0.4863   -6.4113    2.4945 C.3     1  UNL1       -0.0193
     20 C           0.6084   -7.4013    0.5310 C.3     1  UNL1       -0.0193
     21 C           1.7096   -5.4230    1.4042 C.3     1  UNL1       -0.0193
     22 O           0.5375   -2.8398    2.5451 O.3     1  UNL1       -0.4490
     23 C           0.0224   -3.1896    3.7417 C.2     1  UNL1        0.3397
     24 O          -1.1345   -3.5154    3.9254 O.2     1  UNL1       -0.2449
     25 C           1.0769   -3.1156    4.8165 C.ar    1  UNL1        0.0590
     26 C           0.8615   -3.6956    6.0765 C.ar    1  UNL1       -0.0478
     27 C           1.7309   -3.4111    7.1397 C.ar    1  UNL1       -0.0610
     28 C           2.8236   -2.5630    6.9447 C.ar    1  UNL1       -0.0617
     29 C           3.0988   -2.0630    5.6765 C.ar    1  UNL1       -0.0610
     30 C           2.2405   -2.3472    4.6054 C.ar    1  UNL1       -0.0478
     31 H           4.5710   -0.3326   -0.8727 H       1  UNL1        0.0292
     32 H           4.7436    1.4084   -0.5567 H       1  UNL1        0.0292
     33 H           4.3289    0.3004    0.7615 H       1  UNL1        0.0292
     34 H           1.7300   -0.6004    0.8759 H       1  UNL1        0.0642
     35 H           0.2902    2.8173   -3.1614 H       1  UNL1        0.0638
     36 H          -2.1331    2.3621   -2.8680 H       1  UNL1        0.0619
     37 H          -2.9002    0.6642   -1.2641 H       1  UNL1        0.0654
     38 H          -0.3925   -0.5303    1.8888 H       1  UNL1        0.0736
     39 H          -1.8660   -1.4369    2.0717 H       1  UNL1        0.0736
     40 H          -1.9139   -4.1402    1.6246 H       1  UNL1        0.0852
     41 H          -1.7376   -3.5050   -0.0054 H       1  UNL1        0.0852
     42 H          -1.2759   -5.7141   -0.0146 H       1  UNL1        0.2020
     43 H          -1.2631   -7.1515    2.2496 H       1  UNL1        0.0287
     44 H           0.1360   -6.8452    3.2807 H       1  UNL1        0.0287
     45 H          -1.0348   -5.5789    2.9203 H       1  UNL1        0.0287
     46 H           0.9480   -7.2672   -0.4988 H       1  UNL1        0.0287
     47 H           1.4080   -7.9342    1.0701 H       1  UNL1        0.0287
     48 H          -0.2523   -8.0777    0.5274 H       1  UNL1        0.0287
     49 H           2.2057   -5.3745    0.4242 H       1  UNL1        0.0287
     50 H           1.7161   -4.4098    1.7703 H       1  UNL1        0.0287
     51 H           2.3525   -6.0053    2.0691 H       1  UNL1        0.0287
     52 H           0.0067   -4.3418    6.2636 H       1  UNL1        0.0626
     53 H           1.5423   -3.8130    8.1351 H       1  UNL1        0.0618
     54 H           3.4570   -2.2800    7.7839 H       1  UNL1        0.0618
     55 H           3.9651   -1.4263    5.5141 H       1  UNL1        0.0618
     56 H           2.4722   -1.9458    3.6318 H       1  UNL1        0.0626
     57 H           0.0502   -4.8962   -0.4799 H       1  UNL1        0.2020
@<TRIPOS>UNITY_ATOM_ATTR
17 1
charge 1
@<TRIPOS>BOND
     1     1     2    1
     2     1    31    1
     3     1    32    1
     4     1    33    1
     5     2     6   ar
     6     2     3   ar
     7     3     4   ar
     8     3    34    1
     9     4    11   ar
    10     4     5   ar
    11     5     6   ar
    12     5     8   ar
    13     6     7    1
    14     8     9   ar
    15     8    35    1
    16     9    10   ar
    17     9    36    1
    18    10    11   ar
    19    10    37    1
    20    11    12    1
    21    12    13    1
    22    13    38    1
    23    13    39    1
    24    14    16    1
    25    14    22    1
    26    16    17    1
    27    16    40    1
    28    16    41    1
    29    17    18    1
    30    17    42    1
    31    17    57    1
    32    18    19    1
    33    18    20    1
    34    18    21    1
    35    19    43    1
    36    19    44    1
    37    19    45    1
    38    20    46    1
    39    20    47    1
    40    20    48    1
    41    21    49    1
    42    21    50    1
    43    21    51    1
    44    22    23    1
    45    23    24    2
    46    23    25    1
    47    25    30   ar
    48    25    26   ar
    49    26    27   ar
    50    26    52    1
    51    27    28   ar
    52    27    53    1
    53    28    29   ar
    54    28    54    1
    55    29    30   ar
    56    29    55    1
    57    30    56    1
    58    14    15    1
    59    14    13    1
