@<TRIPOS>MOLECULE
ZINC00000199
 51 53 0 0 0
SMALL
GASTEIGER

@<TRIPOS>ATOM
      1 C           1.4153   -0.7940   -0.3767 C.ar    1  UNL1       -0.0617
      2 C           0.3810   -1.7029   -0.5974 C.ar    1  UNL1       -0.0614
      3 C          -0.9470   -1.2730   -0.5705 C.ar    1  UNL1       -0.0558
      4 C          -1.2848    0.0692   -0.3252 C.ar    1  UNL1       -0.0157
      5 C          -0.2211    0.9569   -0.0703 C.ar    1  UNL1       -0.0558
      6 C           1.1142    0.5322   -0.1115 C.ar    1  UNL1       -0.0614
      7 C          -2.7500    0.5503   -0.3902 C.3     1  UNL1        0.0985
      8 C          -3.0856    1.3633    0.8929 C.3     1  UNL1        0.0208
      9 C          -4.5657    1.7359    1.0033 C.3     1  UNL1       -0.0289
     10 C          -4.7496    1.4522    3.5245 C.3     1  UNL1       -0.0319
     11 C          -5.3519    2.0986    4.7664 C.3     1  UNL1       -0.0123
     12 C          -4.7729    3.4881    5.0145 C.3     1  UNL1       -0.0434
     13 C          -4.9426    4.3742    3.7855 C.3     1  UNL1       -0.0123
     14 C          -4.3177    3.7347    2.5526 C.3     1  UNL1       -0.0319
     15 C          -3.0935    1.2872   -1.7304 C.3     1  UNL1       -0.0078
     16 C          -2.3819    2.6116   -2.0110 C.3     1  UNL1       -0.0473
     17 C          -2.4607    2.8063   -3.5193 C.3     1  UNL1       -0.0527
     18 C          -2.5788    1.4192   -4.1323 C.3     1  UNL1       -0.0527
     19 C          -2.8439    0.4436   -2.9931 C.3     1  UNL1       -0.0473
     20 O          -3.6194   -0.5966   -0.2751 O.3     1  UNL1       -0.3835
     21 H           2.4530   -1.1253   -0.4205 H       1  UNL1        0.0618
     22 H           0.6144   -2.7438   -0.8062 H       1  UNL1        0.0618
     23 H          -1.7275   -2.0132   -0.7685 H       1  UNL1        0.0621
     24 H          -0.3943    2.0091    0.1373 H       1  UNL1        0.0621
     25 H           1.9196    1.2474    0.0510 H       1  UNL1        0.0618
     26 H          -2.8266    0.7295    1.7515 H       1  UNL1        0.0348
     27 H          -2.4686    2.2634    0.9648 H       1  UNL1        0.0348
     28 H          -4.8467    2.4644    0.2358 H       1  UNL1        0.0815
     29 H          -5.2245    0.8675    0.9004 H       1  UNL1        0.0815
     30 H          -3.6781    1.2784    3.6589 H       1  UNL1        0.0814
     31 H          -5.2557    0.5098    3.2921 H       1  UNL1        0.0814
     32 H          -5.1644    1.4620    5.6386 H       1  UNL1        0.0317
     33 H          -6.4412    2.1723    4.6551 H       1  UNL1        0.0317
     34 H          -5.2643    3.9489    5.8782 H       1  UNL1        0.0269
     35 H          -3.7067    3.4024    5.2596 H       1  UNL1        0.0269
     36 H          -6.0104    4.5542    3.6096 H       1  UNL1        0.0317
     37 H          -4.4805    5.3513    3.9675 H       1  UNL1        0.0317
     38 H          -4.5227    4.3352    1.6607 H       1  UNL1        0.0814
     39 H          -3.2379    3.6036    2.6724 H       1  UNL1        0.0814
     40 H          -4.1730    1.4974   -1.7316 H       1  UNL1        0.0332
     41 H          -2.8583    3.4444   -1.4826 H       1  UNL1        0.0269
     42 H          -1.3310    2.6012   -1.7256 H       1  UNL1        0.0269
     43 H          -1.5743    3.3301   -3.8953 H       1  UNL1        0.0265
     44 H          -3.3331    3.4116   -3.7864 H       1  UNL1        0.0265
     45 H          -1.6562    1.1421   -4.6555 H       1  UNL1        0.0265
     46 H          -3.3855    1.3923   -4.8726 H       1  UNL1        0.0265
     47 H          -1.9836   -0.2228   -2.8937 H       1  UNL1        0.0269
     48 H          -3.7098   -0.1896   -3.2184 H       1  UNL1        0.0269
     49 H          -4.2097   -0.6430   -1.0472 H       1  UNL1        0.2106
     50 N          -4.9328    2.3736    2.3358 N.4     1  UNL1        0.2353
     51 H          -5.9478    2.5317    2.2682 H       1  UNL1        0.2033
@<TRIPOS>UNITY_ATOM_ATTR
50 1
charge 1
@<TRIPOS>BOND
     1     1     6   ar
     2     1     2   ar
     3     1    21    1
     4     2     3   ar
     5     2    22    1
     6     3     4   ar
     7     3    23    1
     8     4     5   ar
     9     4     7    1
    10     5     6   ar
    11     5    24    1
    12     6    25    1
    13     7     8    1
    14     7    15    1
    15     7    20    1
    16     8     9    1
    17     8    26    1
    18     8    27    1
    19     9    28    1
    20     9    29    1
    21     9    50    1
    22    10    11    1
    23    10    30    1
    24    10    31    1
    25    10    50    1
    26    11    12    1
    27    11    32    1
    28    11    33    1
    29    12    13    1
    30    12    34    1
    31    12    35    1
    32    13    14    1
    33    13    36    1
    34    13    37    1
    35    14    38    1
    36    14    39    1
    37    14    50    1
    38    15    19    1
    39    15    16    1
    40    15    40    1
    41    16    17    1
    42    16    41    1
    43    16    42    1
    44    17    18    1
    45    17    43    1
    46    17    44    1
    47    18    19    1
    48    18    45    1
    49    18    46    1
    50    19    47    1
    51    19    48    1
    52    20    49    1
    53    50    51    1
