@<TRIPOS>MOLECULE
ZINC03831430
 35 37 0 0 0
SMALL
GASTEIGER

@<TRIPOS>ATOM
      1 C           2.6578   -0.1893    1.6701 C.3     1  UNL1       -0.0212
      2 C           2.1336    0.1138    0.2660 C.3     1  UNL1       -0.0215
      3 H           2.4858    1.1074   -0.0346 H       1  UNL1        0.0853
      4 C           0.5838    0.0315    0.0916 C.3     1  UNL1        0.0140
      5 C           0.0153   -1.3557    0.5021 C.3     1  UNL1       -0.0394
      6 C          -1.5100   -1.4084    0.3205 C.3     1  UNL1       -0.0398
      7 C          -2.1587   -0.3339    1.2064 C.3     1  UNL1       -0.0473
      8 C          -1.6518    1.0579    0.7981 C.3     1  UNL1       -0.0398
      9 C          -0.1194    1.1116    0.9664 C.3     1  UNL1       -0.0394
     10 C          -2.0192    1.3107   -0.6707 C.3     1  UNL1       -0.0473
     11 C          -1.3551    0.2530   -1.5625 C.3     1  UNL1       -0.0398
     12 C          -1.8501   -1.1427   -1.1536 C.3     1  UNL1       -0.0473
     13 C           0.1719    0.3154   -1.3838 C.3     1  UNL1       -0.0394
     14 N           2.8291   -0.8405   -0.6577 N.4     1  UNL1        0.2209
     15 H           3.7521   -0.1326    1.6965 H       1  UNL1        0.0284
     16 H           2.2787    0.5309    2.3988 H       1  UNL1        0.0284
     17 H           2.3824   -1.1929    2.0070 H       1  UNL1        0.0284
     18 H           0.4710   -2.1543   -0.0947 H       1  UNL1        0.0275
     19 H           0.2470   -1.5713    1.5516 H       1  UNL1        0.0275
     20 H          -1.8795   -2.3981    0.6118 H       1  UNL1        0.0301
     21 H          -3.2506   -0.3797    1.1114 H       1  UNL1        0.0271
     22 H          -1.9234   -0.5234    2.2611 H       1  UNL1        0.0271
     23 H          -2.1193    1.8207    1.4308 H       1  UNL1        0.0301
     24 H           0.2425    2.1116    0.6921 H       1  UNL1        0.0275
     25 H           0.1197    0.9701    2.0267 H       1  UNL1        0.0275
     26 H          -3.1090    1.2731   -0.7960 H       1  UNL1        0.0271
     27 H          -1.6994    2.3151   -0.9732 H       1  UNL1        0.0271
     28 H          -1.6116    0.4417   -2.6114 H       1  UNL1        0.0301
     29 H          -2.9327   -1.2189   -1.3086 H       1  UNL1        0.0271
     30 H          -1.3829   -1.9061   -1.7885 H       1  UNL1        0.0271
     31 H           0.6251   -0.4120   -2.0664 H       1  UNL1        0.0275
     32 H           0.5364    1.3058   -1.6902 H       1  UNL1        0.0275
     33 H           2.6553   -0.6152   -1.6463 H       1  UNL1        0.1997
     34 H           3.8487   -0.8053   -0.5294 H       1  UNL1        0.1997
     35 H           2.5410   -1.8137   -0.5020 H       1  UNL1        0.1997
@<TRIPOS>UNITY_ATOM_ATTR
14 1
charge 1
@<TRIPOS>BOND
     1     1     2    1
     2     1    15    1
     3     1    16    1
     4     1    17    1
     5     2     3    1
     6     2    14    1
     7     4     2    1
     8     4     9    1
     9     4    13    1
    10     4     5    1
    11     5     6    1
    12     5    18    1
    13     5    19    1
    14     6    12    1
    15     6     7    1
    16     6    20    1
    17     7     8    1
    18     7    21    1
    19     7    22    1
    20     8     9    1
    21     8    10    1
    22     8    23    1
    23     9    24    1
    24     9    25    1
    25    10    11    1
    26    10    26    1
    27    10    27    1
    28    11    12    1
    29    11    13    1
    30    11    28    1
    31    12    29    1
    32    12    30    1
    33    13    31    1
    34    13    32    1
    35    14    33    1
    36    14    34    1
    37    14    35    1
