@<TRIPOS>MOLECULE
ZINC00083315
 27 28 0 0 0
SMALL
GASTEIGER

@<TRIPOS>ATOM
      1 CZ3         2.1948   -0.6688    0.0022 C.ar    1  TRP1       -0.0611
      2 CH2         2.1533    0.7227   -0.0007 C.ar    1  TRP1       -0.0598
      3 CZ2         0.9349    1.4071   -0.0017 C.ar    1  TRP1       -0.0378
      4 CE2        -0.2377    0.6429   -0.0143 C.ar    1  TRP1        0.0467
      5 CD2        -0.2303   -0.7517   -0.0215 C.ar    1  TRP1        0.0030
      6 CE3         1.0130   -1.4174   -0.0023 C.ar    1  TRP1       -0.0523
      7 CG         -1.5954   -1.1867   -0.0480 C.ar    1  TRP1       -0.0165
      8 CD1        -2.3773   -0.0484   -0.0706 C.ar    1  TRP1        0.0061
      9 NE1        -1.5526    1.0441   -0.0463 N.ar    1  TRP1       -0.3604
     10 HE1        -1.8579    2.0079   -0.0706 H       1  TRP1        0.1653
     11 CB         -2.0932   -2.6064   -0.0467 C.3     1  TRP1        0.0281
     12 CA         -2.3225   -3.1340    1.3705 C.3     1  TRP1        0.0826
     13 HA         -3.0370   -2.5218    1.9292 H       1  TRP1        0.0973
     14 C          -2.8171   -4.5942    1.2508 C.2     1  TRP1        0.4029
     15 O          -1.8457   -5.4064    1.2968 O.co2   1  TRP1       -0.2400
     16 OXT        -4.0618   -4.7659    1.2355 O.co2   1  TRP1       -0.2400
     17 N          -1.0182   -3.0722    2.1555 N.4     1  TRP1        0.2291
     18 HZ3         3.1551   -1.1793   -0.0103 H       1  TRP1        0.0618
     19 HH2         3.0828    1.2882   -0.0151 H       1  TRP1        0.0618
     20 HZ2         0.9067    2.4918   -0.0129 H       1  TRP1        0.0638
     21 HE3         1.0667   -2.5023   -0.0212 H       1  TRP1        0.0624
     22 HD1        -3.4520    0.0790   -0.1178 H       1  TRP1        0.0810
     23 HB1        -3.0249   -2.6499   -0.6267 H       1  TRP1        0.0375
     24 HB2        -1.3782   -3.2475   -0.5808 H       1  TRP1        0.0375
     25 H1         -0.3914   -3.7595    1.7085 H       1  TRP1        0.2003
     26 H2         -0.6006   -2.1401    2.2086 H       1  TRP1        0.2003
     27 H3         -1.2057   -3.4819    3.0749 H       1  TRP1        0.2003
@<TRIPOS>UNITY_ATOM_ATTR
17 1
charge 1
@<TRIPOS>BOND
     1     1     6   ar
     2     1     2   ar
     3     1    18    1
     4     2     3   ar
     5     2    19    1
     6     3     4   ar
     7     3    20    1
     8     4     9   ar
     9     4     5   ar
    10     5     6   ar
    11     5     7   ar
    12     6    21    1
    13     7     8   ar
    14     7    11    1
    15     8     9   ar
    16     8    22    1
    17     9    10    1
    18    11    12    1
    19    11    23    1
    20    11    24    1
    21    12    13    1
    22    12    14    1
    23    12    17    1
    24    14    15   ar
    25    14    16   ar
    26    17    25    1
    27    17    26    1
    28    17    27    1
