@<TRIPOS>MOLECULE
ZINC01713960
 46 49 0 0 0
SMALL
GASTEIGER

@<TRIPOS>ATOM
      1 C           1.6121   -2.5907    0.2059 C.3     1  UNL1       -0.0431
      2 N           1.0541   -1.2770    0.6854 N.4     1  UNL1        0.2333
      3 C           1.3363   -1.0358    2.1382 C.3     1  UNL1       -0.0321
      4 C           0.5862    0.2157    2.5584 C.3     1  UNL1       -0.0121
      5 C           1.0366    1.4289    1.7470 C.3     1  UNL1       -0.0406
      6 C           0.9721    1.2039    0.2204 C.3     1  UNL1        0.0003
      7 H          -0.0871    1.2186   -0.0672 H       1  UNL1        0.0353
      8 C           1.5505   -0.1550   -0.1767 C.3     1  UNL1       -0.0292
      9 C           1.6941    2.3861   -0.5023 C.3     1  UNL1       -0.0344
     10 C           1.8218    2.3454   -2.0740 C.3     1  UNL1        0.0118
     11 C           2.8606    1.3076   -2.4977 C.ar    1  UNL1       -0.0262
     12 C           4.1669    1.4184   -1.9684 C.ar    1  UNL1       -0.0569
     13 C           5.0870    0.3750   -2.0742 C.ar    1  UNL1       -0.0614
     14 C           4.7434   -0.7773   -2.7656 C.ar    1  UNL1       -0.0607
     15 C           3.5057   -0.8512   -3.3992 C.ar    1  UNL1       -0.0477
     16 C           2.5657    0.1888   -3.2871 C.ar    1  UNL1        0.0165
     17 S           1.0155   -0.0822   -4.0932 S.3     1  UNL1       -0.0889
     18 C           0.0115    1.2783   -3.5727 C.ar    1  UNL1        0.0165
     19 C           0.4434    2.2992   -2.7187 C.ar    1  UNL1       -0.0262
     20 C          -0.4593    3.3517   -2.4392 C.ar    1  UNL1       -0.0569
     21 C          -1.7629    3.3502   -2.9354 C.ar    1  UNL1       -0.0614
     22 C          -2.1914    2.3120   -3.7460 C.ar    1  UNL1       -0.0607
     23 C          -1.3030    1.2910   -4.0754 C.ar    1  UNL1       -0.0477
     24 H           2.7042   -2.5520    0.2749 H       1  UNL1        0.0777
     25 H           1.2050   -3.3840    0.8315 H       1  UNL1        0.0777
     26 H           1.2952   -2.7329   -0.8328 H       1  UNL1        0.0777
     27 H           0.9913   -1.9106    2.6963 H       1  UNL1        0.0814
     28 H           2.4211   -0.9267    2.2579 H       1  UNL1        0.0814
     29 H           0.7582    0.4021    3.6248 H       1  UNL1        0.0317
     30 H          -0.4928    0.0630    2.4317 H       1  UNL1        0.0317
     31 H           2.0631    1.6777    2.0429 H       1  UNL1        0.0272
     32 H           0.4151    2.2917    2.0181 H       1  UNL1        0.0272
     33 H           2.6418   -0.1671   -0.1109 H       1  UNL1        0.0817
     34 H           1.2143   -0.4172   -1.1773 H       1  UNL1        0.0817
     35 H           1.1797    3.3126   -0.2144 H       1  UNL1        0.0279
     36 H           2.6946    2.4912   -0.0623 H       1  UNL1        0.0279
     37 H           2.2522    3.3099   -2.3874 H       1  UNL1        0.0398
     38 H           4.4689    2.3131   -1.4236 H       1  UNL1        0.0621
     39 H           6.0667    0.4603   -1.6092 H       1  UNL1        0.0618
     40 H           5.4448   -1.6052   -2.8367 H       1  UNL1        0.0618
     41 H           3.2706   -1.7453   -3.9769 H       1  UNL1        0.0629
     42 H          -0.1507    4.1996   -1.8296 H       1  UNL1        0.0621
     43 H          -2.4427    4.1658   -2.6944 H       1  UNL1        0.0618
     44 H          -3.2052    2.2999   -4.1394 H       1  UNL1        0.0618
     45 H          -1.6475    0.5014   -4.7415 H       1  UNL1        0.0629
     46 H           0.0332   -1.3308    0.5642 H       1  UNL1        0.2031
@<TRIPOS>UNITY_ATOM_ATTR
2 1
charge 1
@<TRIPOS>BOND
     1     1     2    1
     2     1    24    1
     3     1    25    1
     4     1    26    1
     5     2     8    1
     6     2     3    1
     7     2    46    1
     8     3     4    1
     9     3    27    1
    10     3    28    1
    11     4     5    1
    12     4    29    1
    13     4    30    1
    14     5     6    1
    15     5    31    1
    16     5    32    1
    17     6     8    1
    18     8    33    1
    19     8    34    1
    20     9    10    1
    21     9    35    1
    22     9    36    1
    23    10    19    1
    24    10    11    1
    25    10    37    1
    26    11    16   ar
    27    11    12   ar
    28    12    13   ar
    29    12    38    1
    30    13    14   ar
    31    13    39    1
    32    14    15   ar
    33    14    40    1
    34    15    16   ar
    35    15    41    1
    36    16    17    1
    37    17    18    1
    38    18    23   ar
    39    18    19   ar
    40    19    20   ar
    41    20    21   ar
    42    20    42    1
    43    21    22   ar
    44    21    43    1
    45    22    23   ar
    46    22    44    1
    47    23    45    1
    48     6     9    1
    49     6     7    1
