@<TRIPOS>MOLECULE
ZINC03830507
 41 43 0 0 0
SMALL
GASTEIGER

@<TRIPOS>ATOM
      1 C          -1.9167    0.6694   -0.7703 C.3     1  UNL1        0.0332
      2 C          -0.6397    1.4169   -1.0263 C.2     1  UNL1        0.3043
      3 O           0.3053    1.4058   -0.2516 O.2     1  UNL1       -0.2512
      4 O          -0.6780    1.9906   -2.2574 O.3     1  UNL1       -0.4603
      5 C           0.5252    2.6555   -2.7208 C.3     1  UNL1        0.1166
      6 C           1.0534    1.9347   -3.9563 C.2     1  UNL1        0.0057
      7 CA          1.7311    2.5707   -4.9514 C.2     1  UNL1        0.1295
      8 N           2.1313    1.8516   -6.0456 N.am    1  UNL1       -0.2488
      9 C           1.5710    0.5788   -6.4262 C.3     1  UNL1        0.1042
     10 H           0.5326    0.6336   -6.7728 H       1  UNL1        0.0644
     11 CA          2.6181    0.5370   -7.5750 C.3     1  UNL1        0.1283
     12 HA          2.1549    0.6681   -8.5615 H       1  UNL1        0.0622
     13 C           3.1348    1.8871   -6.9562 C.2     1  UNL1        0.2440
     14 O           4.1017    2.5940   -7.1294 O.2     1  UNL1       -0.2731
     15 N           3.5489   -0.6328   -7.5608 N.am    1  UNL1       -0.3015
     16 C           4.2571   -1.0383   -8.6687 C.2     1  UNL1        0.2185
     17 O           4.1916   -0.4723   -9.7576 O.2     1  UNL1       -0.2754
     18 C           5.1257   -2.2668   -8.4512 C.3     1  UNL1        0.0553
     19 C           4.2976   -3.5155   -8.5470 C.ar    1  UNL1       -0.0015
     20 C           3.9571   -4.2353   -9.6768 C.ar    1  UNL1       -0.0511
     21 C           3.1500   -5.3684   -9.3774 C.ar    1  UNL1       -0.0545
     22 C           2.9139   -5.4912   -8.0277 C.ar    1  UNL1       -0.0241
     23 S           3.6618   -4.2433   -7.1301 S.2     1  UNL1       -0.1011
     24 S           1.8395   -0.5596   -5.0317 S.3     1  UNL1       -0.1310
     25 C           0.8016    0.4394   -3.9250 C.3     1  UNL1        0.0220
     26 C           2.0636    4.1186   -4.8768 C.2     1  UNL1        0.4007
     27 O           1.9240    4.7356   -5.9709 O.co2   1  UNL1       -0.2392
     28 OXT         2.3241    4.5634   -3.7207 O.co2   1  UNL1       -0.2392
     29 H          -2.1242    0.6664    0.3038 H       1  UNL1        0.0342
     30 H          -1.8178   -0.3573   -1.1313 H       1  UNL1        0.0342
     31 H          -2.7563    1.1582   -1.2710 H       1  UNL1        0.0342
     32 H           0.2067    3.6775   -2.9438 H       1  UNL1        0.0746
     33 H           1.2986    2.6835   -1.9449 H       1  UNL1        0.0746
     34 H           3.5947   -1.1927   -6.7131 H       1  UNL1        0.1495
     35 H           5.9047   -2.2758   -9.2238 H       1  UNL1        0.0412
     36 H           5.6421   -2.1899   -7.4878 H       1  UNL1        0.0412
     37 H           4.2658   -3.9516  -10.6773 H       1  UNL1        0.0626
     38 H           2.7630   -6.0628  -10.1172 H       1  UNL1        0.0623
     39 H           2.3375   -6.2542   -7.5230 H       1  UNL1        0.0693
     40 H          -0.2443    0.2489   -4.1882 H       1  UNL1        0.0424
     41 H           0.9778    0.0504   -2.9186 H       1  UNL1        0.0424
@<TRIPOS>BOND
     1     1     2    1
     2     1    29    1
     3     1    30    1
     4     1    31    1
     5     2     3    2
     6     2     4    1
     7     4     5    1
     8     5     6    1
     9     5    32    1
    10     5    33    1
    11     6    25    1
    12     6     7    2
    13     7     8    1
    14     7    26    1
    15     8    13   am
    16     8     9    1
    17     9    10    1
    18     9    11    1
    19     9    24    1
    20    11    13    1
    21    13    14    2
    22    15    16   am
    23    15    34    1
    24    16    17    2
    25    16    18    1
    26    18    19    1
    27    18    35    1
    28    18    36    1
    29    19    23   ar
    30    19    20   ar
    31    20    21   ar
    32    20    37    1
    33    21    22   ar
    34    21    38    1
    35    22    23   ar
    36    22    39    1
    37    24    25    1
    38    25    40    1
    39    25    41    1
    40    26    27   ar
    41    26    28   ar
    42    11    15    1
    43    11    12    1
