@<TRIPOS>MOLECULE
ZINC00001748
 27 28 0 0 0
SMALL
GASTEIGER

@<TRIPOS>ATOM
      1 C           1.3592   -0.0041   -0.7608 C.ar    1  UNL1       -0.0617
      2 C           0.4922   -1.0379   -1.1068 C.ar    1  UNL1       -0.0614
      3 C          -0.8761   -0.9101   -0.8642 C.ar    1  UNL1       -0.0554
      4 C          -1.3943    0.2520   -0.2698 C.ar    1  UNL1       -0.0104
      5 C          -0.5097    1.2808    0.0815 C.ar    1  UNL1       -0.0554
      6 C           0.8598    1.1512   -0.1617 C.ar    1  UNL1       -0.0614
      7 C          -2.8930    0.4252   -0.1609 C.3     1  UNL1        0.1146
      8 O          -3.2718    1.1525    1.0103 O.3     1  UNL1       -0.4874
      9 C          -4.6252    1.3016    1.1871 C.ar    1  UNL1        0.1212
     10 C          -5.0415    1.5278    2.5010 C.ar    1  UNL1       -0.0165
     11 C          -6.4002    1.6811    2.7973 C.ar    1  UNL1       -0.0167
     12 C          -7.3389    1.6243    1.7730 C.ar    1  UNL1        0.1171
     13 C          -6.9379    1.4261    0.4574 C.ar    1  UNL1       -0.0167
     14 C          -5.5802    1.2687    0.1652 C.ar    1  UNL1       -0.0165
     15 O          -8.6530    1.7718    2.0982 O.3     1  UNL1       -0.5068
     16 H           2.4227   -0.0958   -0.9649 H       1  UNL1        0.0618
     17 H           0.8788   -1.9374   -1.5785 H       1  UNL1        0.0618
     18 H          -1.5406   -1.7189   -1.1608 H       1  UNL1        0.0621
     19 H          -0.8868    2.1977    0.5303 H       1  UNL1        0.0621
     20 H           1.5362    1.9596    0.1040 H       1  UNL1        0.0618
     21 H          -3.2005    0.9653   -1.0643 H       1  UNL1        0.0748
     22 H          -3.3714   -0.5621   -0.1339 H       1  UNL1        0.0748
     23 H          -4.3089    1.5724    3.3030 H       1  UNL1        0.0655
     24 H          -6.7217    1.8432    3.8210 H       1  UNL1        0.0655
     25 H          -7.6605    1.3960   -0.3526 H       1  UNL1        0.0655
     26 H          -5.3023    1.1363   -0.8746 H       1  UNL1        0.0655
     27 H          -9.1867    1.6970    1.2894 H       1  UNL1        0.2921
@<TRIPOS>BOND
     1     1     6   ar
     2     1     2   ar
     3     1    16    1
     4     2     3   ar
     5     2    17    1
     6     3     4   ar
     7     3    18    1
     8     4     5   ar
     9     4     7    1
    10     5     6   ar
    11     5    19    1
    12     6    20    1
    13     7     8    1
    14     7    21    1
    15     7    22    1
    16     8     9    1
    17     9    14   ar
    18     9    10   ar
    19    10    11   ar
    20    10    23    1
    21    11    12   ar
    22    11    24    1
    23    12    13   ar
    24    12    15    1
    25    13    14   ar
    26    13    25    1
    27    14    26    1
    28    15    27    1
