@<TRIPOS>MOLECULE
ZINC01529425
 22 21 0 0 0
SMALL
GASTEIGER

@<TRIPOS>ATOM
      1 C           0.8929    0.1141    0.0001 C.3     1  UNL1       -0.0478
      2 C           0.4872   -1.0131   -0.9607 C.3     1  UNL1       -0.0427
      3 C           1.1111   -0.8389   -2.3376 C.3     1  UNL1        0.0492
      4 C           2.6550   -0.9905   -2.2888 C.2     1  UNL1        0.3560
      5 O           3.2425   -0.6611   -3.3573 O.co2   1  UNL1       -0.2464
      6 O           3.1222   -1.3955   -1.1722 O.co2   1  UNL1       -0.2464
      7 C           0.4954   -0.1738    1.4457 C.3     1  UNL1       -0.0126
      8 C           1.0782   -1.4620    2.0169 C.3     1  UNL1       -0.0354
      9 N           2.5468   -1.4992    1.8461 N.4     1  UNL1        0.2185
     10 H           0.4329    1.0522   -0.3278 H       1  UNL1        0.0267
     11 H           1.9707    0.3077   -0.0240 H       1  UNL1        0.0267
     12 H           0.7916   -1.9933   -0.5793 H       1  UNL1        0.0270
     13 H          -0.6053   -1.0432   -1.0386 H       1  UNL1        0.0270
     14 H           0.7100   -1.6078   -3.0144 H       1  UNL1        0.0379
     15 H           0.8261    0.1342   -2.7625 H       1  UNL1        0.0379
     16 H           0.8186    0.6712    2.0670 H       1  UNL1        0.0317
     17 H          -0.5975   -0.2121    1.5170 H       1  UNL1        0.0317
     18 H           0.8663   -1.5298    3.0904 H       1  UNL1        0.0813
     19 H           0.6752   -2.3594    1.5395 H       1  UNL1        0.0813
     20 H           3.0092   -0.6772    2.2529 H       1  UNL1        0.1994
     21 H           2.9592   -2.3383    2.2627 H       1  UNL1        0.1994
     22 H           2.8197   -1.5163    0.8278 H       1  UNL1        0.1994
@<TRIPOS>UNITY_ATOM_ATTR
9 1
charge 1
@<TRIPOS>BOND
     1     1     2    1
     2     1     7    1
     3     1    10    1
     4     1    11    1
     5     2     3    1
     6     2    12    1
     7     2    13    1
     8     3     4    1
     9     3    14    1
    10     3    15    1
    11     4     5   ar
    12     4     6   ar
    13     7     8    1
    14     7    16    1
    15     7    17    1
    16     8     9    1
    17     8    18    1
    18     8    19    1
    19     9    20    1
    20     9    21    1
    21     9    22    1
