@<TRIPOS>MOLECULE
ZINC00897322
 31 32 0 0 0
SMALL
GASTEIGER

@<TRIPOS>ATOM
      1 C           2.4316    1.2271    0.3542 C.3     1  UNL1       -0.0396
      2 C           1.1594    0.4334    0.3345 C.ar    1  UNL1       -0.0467
      3 C          -0.0744    1.0689    0.1711 C.ar    1  UNL1       -0.0557
      4 C          -1.2584    0.3225    0.0869 C.ar    1  UNL1       -0.0467
      5 C          -1.1900   -1.0796    0.1284 C.ar    1  UNL1       -0.0170
      6 C           0.0404   -1.7251    0.2753 C.ar    1  UNL1        0.1212
      7 C           1.1988   -0.9600    0.4394 C.ar    1  UNL1       -0.0170
      8 O           0.0302   -3.1013    0.2191 O.3     1  UNL1       -0.4882
      9 C           1.2814   -3.6645   -0.1987 C.3     1  UNL1        0.1279
     10 C           1.1398   -5.1342   -0.6009 C.3     1  UNL1        0.1538
     11 H           0.4005   -5.2428   -1.3992 H       1  UNL1        0.0785
     12 C           0.8209   -6.0502    0.5610 C.3     1  UNL1        0.0551
     13 N           2.1197   -6.4414    0.9907 N.am    1  UNL1       -0.2775
     14 C           3.0182   -6.2928   -0.0296 C.2     1  UNL1        0.4008
     15 O           4.1560   -6.7183   -0.0386 O.2     1  UNL1       -0.2265
     16 O           2.4275   -5.6064   -1.0569 O.3     1  UNL1       -0.4421
     17 C          -2.5654    1.0400   -0.0870 C.3     1  UNL1       -0.0396
     18 H           2.4953    1.8451   -0.5476 H       1  UNL1        0.0278
     19 H           2.4773    1.8652    1.2403 H       1  UNL1        0.0278
     20 H           3.3091    0.5706    0.3574 H       1  UNL1        0.0278
     21 H          -0.1139    2.1543    0.0958 H       1  UNL1        0.0623
     22 H          -2.0948   -1.6732    0.0208 H       1  UNL1        0.0657
     23 H           2.1590   -1.4308    0.6231 H       1  UNL1        0.0657
     24 H           1.6712   -3.1210   -1.0706 H       1  UNL1        0.0734
     25 H           2.0140   -3.5807    0.6137 H       1  UNL1        0.0734
     26 H           0.3091   -6.9547    0.2153 H       1  UNL1        0.0501
     27 H           0.2546   -5.5937    1.3746 H       1  UNL1        0.0501
     28 H           2.3305   -7.1035    1.7305 H       1  UNL1        0.1521
     29 H          -2.7163    1.7512    0.7321 H       1  UNL1        0.0278
     30 H          -2.5715    1.5853   -1.0366 H       1  UNL1        0.0278
     31 H          -3.4119    0.3462   -0.0876 H       1  UNL1        0.0278
@<TRIPOS>BOND
     1     1     2    1
     2     1    18    1
     3     1    19    1
     4     1    20    1
     5     2     7   ar
     6     2     3   ar
     7     3     4   ar
     8     3    21    1
     9     4     5   ar
    10     4    17    1
    11     5     6   ar
    12     5    22    1
    13     6     7   ar
    14     6     8    1
    15     7    23    1
    16     8     9    1
    17     9    10    1
    18     9    24    1
    19     9    25    1
    20    10    11    1
    21    10    16    1
    22    10    12    1
    23    12    13    1
    24    12    26    1
    25    12    27    1
    26    13    14   am
    27    13    28    1
    28    14    15    2
    29    14    16    1
    30    17    29    1
    31    17    30    1
    32    17    31    1
