@<TRIPOS>MOLECULE
ZINC00154964
 41 42 0 0 0
SMALL
GASTEIGER

@<TRIPOS>ATOM
      1 C          -6.0161    3.8266   -2.5065 C.3     1  UNL1       -0.0379
      2 C          -4.9802    4.6275   -3.2439 C.ar    1  UNL1       -0.0290
      3 C          -5.4797    5.5516   -4.1932 C.ar    1  UNL1       -0.0571
      4 C          -4.6369    6.4014   -4.8987 C.ar    1  UNL1       -0.0611
      5 C          -3.2668    6.2983   -4.7201 C.ar    1  UNL1       -0.0571
      6 C          -2.7286    5.3762   -3.8061 C.ar    1  UNL1       -0.0290
      7 C          -3.5882    4.5773   -3.0053 C.ar    1  UNL1        0.0394
      8 N          -3.0075    3.8961   -1.8911 N.am    1  UNL1       -0.2804
      9 C          -3.2763    2.6088   -1.4853 C.2     1  UNL1        0.2655
     10 O          -3.8930    1.7712   -2.1418 O.2     1  UNL1       -0.2693
     11 C          -2.8202    2.1901   -0.0462 C.3     1  UNL1        0.0567
     12 H          -3.5419    2.6672    0.6294 H       1  UNL1        0.0950
     13 C          -1.3991    2.5399    0.3924 C.3     1  UNL1       -0.0008
     14 C          -0.3212    1.6675   -0.2469 C.3     1  UNL1       -0.0427
     15 C          -0.6117    0.1736   -0.1411 C.3     1  UNL1       -0.0123
     16 C          -2.0158   -0.1635   -0.6119 C.3     1  UNL1       -0.0314
     17 N          -3.0312    0.6633    0.1379 N.4     1  UNL1        0.2418
     18 C          -3.2398    0.2168    1.5547 C.3     1  UNL1       -0.0424
     19 C          -1.2330    5.1902   -3.8182 C.3     1  UNL1       -0.0379
     20 H          -5.8600    2.7572   -2.6391 H       1  UNL1        0.0278
     21 H          -6.0237    4.0902   -1.4462 H       1  UNL1        0.0278
     22 H          -7.0209    4.0149   -2.9022 H       1  UNL1        0.0278
     23 H          -6.5520    5.6378   -4.3665 H       1  UNL1        0.0621
     24 H          -5.0477    7.1255   -5.5982 H       1  UNL1        0.0618
     25 H          -2.6158    6.9342   -5.3192 H       1  UNL1        0.0621
     26 H          -2.1617    4.3341   -1.5479 H       1  UNL1        0.1550
     27 H          -1.1771    3.5926    0.1887 H       1  UNL1        0.0325
     28 H          -1.3288    2.4317    1.4834 H       1  UNL1        0.0325
     29 H          -0.2173    1.9405   -1.3027 H       1  UNL1        0.0269
     30 H           0.6433    1.8780    0.2300 H       1  UNL1        0.0269
     31 H           0.1170   -0.3787   -0.7444 H       1  UNL1        0.0317
     32 H          -0.4687   -0.1591    0.8924 H       1  UNL1        0.0317
     33 H          -2.2600   -1.2176   -0.4479 H       1  UNL1        0.0814
     34 H          -2.1334    0.0499   -1.6792 H       1  UNL1        0.0814
     35 H          -3.5398   -0.8348    1.5365 H       1  UNL1        0.0778
     36 H          -2.3091    0.3365    2.1147 H       1  UNL1        0.0778
     37 H          -4.0330    0.8228    1.9977 H       1  UNL1        0.0778
     38 H          -0.7858    5.4983   -2.8700 H       1  UNL1        0.0278
     39 H          -0.9972    4.1384   -4.0200 H       1  UNL1        0.0278
     40 H          -0.7634    5.7738   -4.6200 H       1  UNL1        0.0278
     41 H          -3.9187    0.4898   -0.3675 H       1  UNL1        0.2038
@<TRIPOS>UNITY_ATOM_ATTR
17 1
charge 1
@<TRIPOS>BOND
     1     1     2    1
     2     1    20    1
     3     1    21    1
     4     1    22    1
     5     2     7   ar
     6     2     3   ar
     7     3     4   ar
     8     3    23    1
     9     4     5   ar
    10     4    24    1
    11     5     6   ar
    12     5    25    1
    13     6     7   ar
    14     6    19    1
    15     7     8    1
    16     8     9   am
    17     8    26    1
    18     9    10    2
    19    11    17    1
    20    11    13    1
    21    13    14    1
    22    13    27    1
    23    13    28    1
    24    14    15    1
    25    14    29    1
    26    14    30    1
    27    15    16    1
    28    15    31    1
    29    15    32    1
    30    16    17    1
    31    16    33    1
    32    16    34    1
    33    18    35    1
    34    18    36    1
    35    18    37    1
    36    19    38    1
    37    19    39    1
    38    19    40    1
    39    11    12    1
    40    11     9    1
    41    17    41    1
    42    17    18    1
