@<TRIPOS>MOLECULE
ZINC00402980
 39 39 0 0 0
SMALL
GASTEIGER

@<TRIPOS>ATOM
      1 C           0.9084   -0.9643    2.0683 C.3     1  UNL1       -0.0601
      2 C           0.4831   -2.2532    1.3767 C.3     1  UNL1       -0.0098
      3 C           0.8765   -2.3867   -0.1204 C.3     1  UNL1        0.0081
      4 H           0.4417   -1.5526   -0.6773 H       1  UNL1        0.0880
      5 C           0.3763   -3.7849   -0.6473 C.3     1  UNL1        0.1226
      6 H          -0.6934   -3.8856   -0.4225 H       1  UNL1        0.0701
      7 C           0.5635   -4.0476   -2.1312 C.ar    1  UNL1       -0.0101
      8 C          -0.0187   -3.1905   -3.0858 C.ar    1  UNL1       -0.0522
      9 C           0.2542   -3.3435   -4.4505 C.ar    1  UNL1       -0.0162
     10 C           1.0781   -4.3755   -4.8714 C.ar    1  UNL1        0.1582
     11 C           1.6139   -5.2658   -3.9564 C.ar    1  UNL1        0.1586
     12 C           1.3540   -5.1233   -2.5940 C.ar    1  UNL1       -0.0107
     13 O           2.4283   -6.2557   -4.4364 O.3     1  UNL1       -0.5033
     14 O           1.3598   -4.5032   -6.1991 O.3     1  UNL1       -0.5033
     15 O           1.0759   -4.7826    0.1132 O.3     1  UNL1       -0.3816
     16 N           2.3988   -2.2688   -0.2183 N.4     1  UNL1        0.2330
     17 C           3.0509   -2.1312   -1.5701 C.3     1  UNL1       -0.0281
     18 C           2.5333   -0.9077   -2.3131 C.3     1  UNL1       -0.0219
     19 C           4.5605   -2.0426   -1.3723 C.3     1  UNL1       -0.0219
     20 H           1.9940   -0.9043    2.1886 H       1  UNL1        0.0232
     21 H           0.4777   -0.9285    3.0756 H       1  UNL1        0.0232
     22 H           0.5627   -0.0838    1.5207 H       1  UNL1        0.0232
     23 H           0.8854   -3.0936    1.9560 H       1  UNL1        0.0318
     24 H          -0.6098   -2.3245    1.4495 H       1  UNL1        0.0318
     25 H          -0.6706   -2.3703   -2.7877 H       1  UNL1        0.0622
     26 H          -0.1684   -2.6615   -5.1846 H       1  UNL1        0.0655
     27 H           1.8105   -5.8188   -1.8984 H       1  UNL1        0.0659
     28 H           2.6832   -6.8528   -3.7125 H       1  UNL1        0.2923
     29 H           1.9114   -5.3087   -6.2737 H       1  UNL1        0.2923
     30 H           0.5323   -5.5949    0.0630 H       1  UNL1        0.2105
     31 H           2.7223   -1.4859    0.3599 H       1  UNL1        0.2020
     32 H           2.8550   -3.0422   -2.1266 H       1  UNL1        0.0845
     33 H           2.7631    0.0178   -1.7769 H       1  UNL1        0.0284
     34 H           2.9937   -0.8495   -3.3057 H       1  UNL1        0.0284
     35 H           1.4538   -0.9387   -2.4730 H       1  UNL1        0.0284
     36 H           4.9399   -2.9144   -0.8292 H       1  UNL1        0.0284
     37 H           5.0652   -2.0143   -2.3450 H       1  UNL1        0.0284
     38 H           4.8447   -1.1413   -0.8197 H       1  UNL1        0.0284
     39 H           2.7608   -3.1272    0.2294 H       1  UNL1        0.2020
@<TRIPOS>UNITY_ATOM_ATTR
16 1
charge 1
@<TRIPOS>BOND
     1     1     2    1
     2     1    20    1
     3     1    21    1
     4     1    22    1
     5     2    23    1
     6     2    24    1
     7     3     5    1
     8     3    16    1
     9     5     6    1
    10     5     7    1
    11     5    15    1
    12     7    12   ar
    13     7     8   ar
    14     8     9   ar
    15     8    25    1
    16     9    10   ar
    17     9    26    1
    18    10    11   ar
    19    10    14    1
    20    11    12   ar
    21    11    13    1
    22    12    27    1
    23    13    28    1
    24    14    29    1
    25    15    30    1
    26    16    17    1
    27    16    31    1
    28    16    39    1
    29    17    18    1
    30    17    19    1
    31    17    32    1
    32    18    33    1
    33    18    34    1
    34    18    35    1
    35    19    36    1
    36    19    37    1
    37    19    38    1
    38     3     4    1
    39     3     2    1
