@<TRIPOS>MOLECULE
ZINC01529266
 36 35 0 0 0
SMALL
GASTEIGER

@<TRIPOS>ATOM
      1 C          -0.0442    1.0928   -2.2611 C.3     1  UNL1       -0.0493
      2 C           1.2570    1.1983   -3.0486 C.3     1  UNL1        0.0103
      3 N           1.8050   -0.1275   -3.4007 N.am    1  UNL1       -0.3189
      4 C           1.3103   -0.6642   -4.6800 C.3     1  UNL1        0.0103
      5 C           2.1858   -0.2388   -5.8500 C.3     1  UNL1       -0.0493
      6 C           2.7258   -0.8010   -2.5646 C.2     1  UNL1        0.1200
      7 S           3.2763   -0.2151   -1.0759 S.2     1  UNL1       -0.0271
      8 S           3.2547   -2.4239   -3.0854 S.3     1  UNL1       -0.0271
      9 S           5.2879   -2.1781   -3.3690 S.3     1  UNL1       -0.0271
     10 C           5.8680   -3.7142   -4.0514 C.2     1  UNL1        0.1200
     11 S           5.0394   -4.6073   -5.2105 S.2     1  UNL1       -0.0271
     12 N           7.1808   -3.9972   -3.6459 N.am    1  UNL1       -0.3189
     13 C           8.2181   -4.3502   -4.6304 C.3     1  UNL1        0.0103
     14 C           9.4320   -3.4387   -4.5276 C.3     1  UNL1       -0.0493
     15 C           7.4551   -4.2974   -2.2318 C.3     1  UNL1        0.0103
     16 C           7.3559   -5.7870   -1.9201 C.3     1  UNL1       -0.0493
     17 H          -0.8078    0.5473   -2.8256 H       1  UNL1        0.0245
     18 H          -0.4365    2.0913   -2.0413 H       1  UNL1        0.0245
     19 H           0.1018    0.5693   -1.3118 H       1  UNL1        0.0245
     20 H           1.0782    1.7608   -3.9727 H       1  UNL1        0.0461
     21 H           1.9861    1.7809   -2.4790 H       1  UNL1        0.0461
     22 H           1.2380   -1.7524   -4.6442 H       1  UNL1        0.0461
     23 H           0.2856   -0.2991   -4.8374 H       1  UNL1        0.0461
     24 H           3.2095   -0.6086   -5.7379 H       1  UNL1        0.0245
     25 H           1.7801   -0.6264   -6.7873 H       1  UNL1        0.0245
     26 H           2.2372    0.8563   -5.9299 H       1  UNL1        0.0245
     27 H           8.5048   -5.3982   -4.4952 H       1  UNL1        0.0461
     28 H           7.8187   -4.2476   -5.6440 H       1  UNL1        0.0461
     29 H           9.9590   -3.5674   -3.5791 H       1  UNL1        0.0245
     30 H          10.1396   -3.6568   -5.3344 H       1  UNL1        0.0245
     31 H           9.1369   -2.3860   -4.6092 H       1  UNL1        0.0245
     32 H           8.4510   -3.9247   -1.9737 H       1  UNL1        0.0461
     33 H           6.7373   -3.7749   -1.5935 H       1  UNL1        0.0461
     34 H           8.0837   -6.3706   -2.4924 H       1  UNL1        0.0245
     35 H           7.5500   -5.9662   -0.8576 H       1  UNL1        0.0245
     36 H           6.3589   -6.1736   -2.1545 H       1  UNL1        0.0245
@<TRIPOS>BOND
     1     1     2    1
     2     1    17    1
     3     1    18    1
     4     1    19    1
     5     2     3    1
     6     2    20    1
     7     2    21    1
     8     3     4    1
     9     3     6    1
    10     4     5    1
    11     4    22    1
    12     4    23    1
    13     5    24    1
    14     5    25    1
    15     5    26    1
    16     6     7    2
    17     6     8    1
    18     8     9    1
    19     9    10    1
    20    10    11    2
    21    10    12    1
    22    12    13    1
    23    12    15    1
    24    13    14    1
    25    13    27    1
    26    13    28    1
    27    14    29    1
    28    14    30    1
    29    14    31    1
    30    15    16    1
    31    15    32    1
    32    15    33    1
    33    16    34    1
    34    16    35    1
    35    16    36    1
