@<TRIPOS>MOLECULE
ZINC01481910
 33 33 0 0 0
SMALL
GASTEIGER

@<TRIPOS>ATOM
      1 C           0.3730   -2.5772    2.2552 C.3     1  UNL1       -0.0216
      2 C          -0.3134   -2.5501    0.8931 C.3     1  UNL1       -0.0255
      3 H          -1.0485   -3.3618    0.8831 H       1  UNL1        0.0848
      4 C          -1.0207   -1.2135    0.6102 C.3     1  UNL1       -0.0072
      5 C          -1.7092   -1.1047   -0.7663 C.3     1  UNL1       -0.0360
      6 C          -2.7112   -2.2404   -1.0283 C.3     1  UNL1       -0.0500
      7 C          -3.3290   -2.1180   -2.4183 C.3     1  UNL1       -0.0528
      8 C          -3.9945   -0.7622   -2.6260 C.3     1  UNL1       -0.0530
      9 C          -3.0505    0.3925   -2.3038 C.3     1  UNL1       -0.0528
     10 C          -2.4240    0.2505   -0.9157 C.3     1  UNL1       -0.0500
     11 N           0.6716   -2.9142   -0.1851 N.4     1  UNL1        0.2268
     12 C           1.8538   -2.0340   -0.4015 C.3     1  UNL1       -0.0446
     13 H          -0.3691   -2.4739    3.0538 H       1  UNL1        0.0284
     14 H           1.0948   -1.7641    2.3699 H       1  UNL1        0.0284
     15 H           0.8958   -3.5273    2.4096 H       1  UNL1        0.0284
     16 H          -1.7717   -1.0517    1.3946 H       1  UNL1        0.0322
     17 H          -0.3019   -0.3903    0.7116 H       1  UNL1        0.0322
     18 H          -0.9309   -1.1459   -1.5400 H       1  UNL1        0.0303
     19 H          -2.2241   -3.2184   -0.9612 H       1  UNL1        0.0268
     20 H          -3.5018   -2.2234   -0.2685 H       1  UNL1        0.0268
     21 H          -4.0644   -2.9170   -2.5647 H       1  UNL1        0.0265
     22 H          -2.5470   -2.2629   -3.1743 H       1  UNL1        0.0265
     23 H          -4.8847   -0.6941   -1.9911 H       1  UNL1        0.0265
     24 H          -4.3362   -0.6799   -3.6644 H       1  UNL1        0.0265
     25 H          -3.5962    1.3410   -2.3694 H       1  UNL1        0.0265
     26 H          -2.2538    0.4308   -3.0568 H       1  UNL1        0.0265
     27 H          -3.2064    0.3487   -0.1512 H       1  UNL1        0.0268
     28 H          -1.7167    1.0722   -0.7547 H       1  UNL1        0.0268
     29 H           1.0177   -3.8665    0.0116 H       1  UNL1        0.2013
     30 H           2.4033   -1.9338    0.5343 H       1  UNL1        0.0777
     31 H           2.4801   -2.5218   -1.1514 H       1  UNL1        0.0777
     32 H           1.5082   -1.0685   -0.7732 H       1  UNL1        0.0777
     33 H           0.1699   -3.0037   -1.0792 H       1  UNL1        0.2013
@<TRIPOS>UNITY_ATOM_ATTR
11 1
charge 1
@<TRIPOS>BOND
     1     1     2    1
     2     1    13    1
     3     1    14    1
     4     1    15    1
     5     2     3    1
     6     2     4    1
     7     2    11    1
     8     4     5    1
     9     4    16    1
    10     4    17    1
    11     5    10    1
    12     5     6    1
    13     5    18    1
    14     6     7    1
    15     6    19    1
    16     6    20    1
    17     7     8    1
    18     7    21    1
    19     7    22    1
    20     8     9    1
    21     8    23    1
    22     8    24    1
    23     9    10    1
    24     9    25    1
    25     9    26    1
    26    10    27    1
    27    10    28    1
    28    11    12    1
    29    11    29    1
    30    11    33    1
    31    12    30    1
    32    12    31    1
    33    12    32    1
