@<TRIPOS>MOLECULE
ZINC00001041
 30 30 0 0 0
SMALL
GASTEIGER

@<TRIPOS>ATOM
      1 C           0.6260    0.1571    0.2229 C.3     1  UNL1       -0.0244
      2 C           0.2488   -0.9000   -0.8064 C.3     1  UNL1       -0.0332
      3 N           1.0256   -2.2146   -0.6533 N.4     1  UNL1        0.2421
      4 C           0.7254   -2.8293    0.7166 C.3     1  UNL1       -0.0412
      5 C           0.5175   -3.1925   -1.7196 C.3     1  UNL1       -0.0412
      6 C           2.5714   -2.0751   -0.7929 C.3     1  UNL1       -0.0036
      7 C           3.1486   -1.5688   -2.0989 C.ar    1  UNL1        0.0111
      8 C           2.9696   -0.2196   -2.4663 C.ar    1  UNL1       -0.0525
      9 C           3.5188    0.3058   -3.6385 C.ar    1  UNL1       -0.0613
     10 C           4.3066   -0.4928   -4.4515 C.ar    1  UNL1       -0.0607
     11 C           4.5323   -1.8212   -4.1001 C.ar    1  UNL1       -0.0473
     12 C           3.9504   -2.3615   -2.9428 C.ar    1  UNL1        0.0261
     13 BR          4.3371   -4.1886   -2.5885 Br      1  UNL1       -0.0498
     14 H           0.2000   -0.0755    1.2033 H       1  UNL1        0.0281
     15 H           0.2209    1.1266   -0.0850 H       1  UNL1        0.0281
     16 H           1.7036    0.2857    0.3447 H       1  UNL1        0.0281
     17 H          -0.8163   -1.1405   -0.7044 H       1  UNL1        0.0812
     18 H           0.3985   -0.5411   -1.8280 H       1  UNL1        0.0812
     19 H          -0.3604   -2.8782    0.8456 H       1  UNL1        0.0778
     20 H           1.1567   -3.8342    0.7521 H       1  UNL1        0.0778
     21 H           1.1777   -2.2019    1.4898 H       1  UNL1        0.0778
     22 H           0.7026   -2.7657   -2.7076 H       1  UNL1        0.0778
     23 H           1.0416   -4.1445   -1.5992 H       1  UNL1        0.0778
     24 H          -0.5575   -3.3346   -1.5670 H       1  UNL1        0.0778
     25 H           2.9118   -1.4287    0.0227 H       1  UNL1        0.0868
     26 H           2.9621   -3.0660   -0.5429 H       1  UNL1        0.0868
     27 H           2.4181    0.4728   -1.8390 H       1  UNL1        0.0622
     28 H           3.3502    1.3486   -3.9030 H       1  UNL1        0.0618
     29 H           4.7623   -0.0797   -5.3501 H       1  UNL1        0.0618
     30 H           5.1774   -2.4265   -4.7349 H       1  UNL1        0.0629
@<TRIPOS>UNITY_ATOM_ATTR
3 1
charge 1
@<TRIPOS>BOND
     1     1     2    1
     2     1    14    1
     3     1    15    1
     4     1    16    1
     5     2     3    1
     6     2    17    1
     7     2    18    1
     8     3     4    1
     9     3     5    1
    10     3     6    1
    11     4    19    1
    12     4    20    1
    13     4    21    1
    14     5    22    1
    15     5    23    1
    16     5    24    1
    17     6     7    1
    18     6    25    1
    19     6    26    1
    20     7    12   ar
    21     7     8   ar
    22     8     9   ar
    23     8    27    1
    24     9    10   ar
    25     9    28    1
    26    10    11   ar
    27    10    29    1
    28    11    12   ar
    29    11    30    1
    30    12    13    1
