@<TRIPOS>MOLECULE
ZINC03794711
 37 37 0 0 0
SMALL
GASTEIGER

@<TRIPOS>ATOM
      1 C           1.6463   -0.5199   -0.2858 C.3     1  UNL1       -0.0651
      2 C           0.8523   -1.7956   -0.0508 C.3     1  UNL1       -0.0511
      3 C          -0.6585   -1.5737    0.0426 C.3     1  UNL1       -0.0128
      4 C          -1.3521   -0.9811   -1.1868 C.3     1  UNL1       -0.0314
      5 N          -1.1558   -1.7788   -2.4661 N.4     1  UNL1        0.2428
      6 C          -1.5700   -0.9768   -3.7046 C.3     1  UNL1       -0.0023
      7 C          -3.0829   -1.0361   -3.9867 C.3     1  UNL1        0.1231
      8 H          -3.2708   -0.5045   -4.9270 H       1  UNL1        0.0674
      9 C          -3.5868   -2.4799   -4.0845 C.3     1  UNL1        0.1171
     10 H          -4.6819   -2.4702   -4.1649 H       1  UNL1        0.0649
     11 C          -3.2142   -3.2695   -2.8180 C.3     1  UNL1        0.1281
     12 H          -3.4963   -4.3194   -2.9610 H       1  UNL1        0.0678
     13 C          -1.7114   -3.2239   -2.4556 C.3     1  UNL1        0.0319
     14 H          -1.5993   -3.5858   -1.4298 H       1  UNL1        0.0901
     15 C          -0.8229   -4.1382   -3.3350 C.3     1  UNL1        0.0894
     16 O          -0.6209   -3.6313   -4.6433 O.3     1  UNL1       -0.3894
     17 O          -3.9759   -2.8075   -1.6916 O.3     1  UNL1       -0.3835
     18 O          -3.0710   -3.1189   -5.2508 O.3     1  UNL1       -0.3862
     19 O          -3.8025   -0.3569   -2.9483 O.3     1  UNL1       -0.3838
     20 H           1.4119   -0.0734   -1.2560 H       1  UNL1        0.0230
     21 H           2.7192   -0.7394   -0.2705 H       1  UNL1        0.0230
     22 H           1.4447    0.2194    0.4961 H       1  UNL1        0.0230
     23 H           1.0858   -2.5255   -0.8310 H       1  UNL1        0.0264
     24 H           1.1890   -2.2357    0.8964 H       1  UNL1        0.0264
     25 H          -1.1339   -2.5196    0.3232 H       1  UNL1        0.0317
     26 H          -0.8520   -0.8964    0.8853 H       1  UNL1        0.0317
     27 H          -2.4218   -0.8913   -0.9952 H       1  UNL1        0.0814
     28 H          -0.9563    0.0228   -1.3752 H       1  UNL1        0.0814
     29 H          -0.9887   -1.3509   -4.5503 H       1  UNL1        0.0841
     30 H          -1.2518    0.0567   -3.5310 H       1  UNL1        0.0841
     31 H           0.1651   -4.2257   -2.8764 H       1  UNL1        0.0614
     32 H          -1.2422   -5.1488   -3.4019 H       1  UNL1        0.0614
     33 H          -1.4436   -3.7960   -5.1588 H       1  UNL1        0.2097
     34 H          -4.1606   -1.8520   -1.7990 H       1  UNL1        0.2102
     35 H          -3.6463   -2.8769   -6.0065 H       1  UNL1        0.2100
     36 H          -4.6687   -0.0818   -3.3145 H       1  UNL1        0.2101
     37 H          -0.1386   -1.8825   -2.5785 H       1  UNL1        0.2039
@<TRIPOS>UNITY_ATOM_ATTR
5 1
charge 1
@<TRIPOS>BOND
     1     1     2    1
     2     1    20    1
     3     1    21    1
     4     1    22    1
     5     2     3    1
     6     2    23    1
     7     2    24    1
     8     3     4    1
     9     3    25    1
    10     3    26    1
    11     4    27    1
    12     4    28    1
    13     5    13    1
    14     5     6    1
    15     6     7    1
    16     6    29    1
    17     6    30    1
    18     7     8    1
    19     7     9    1
    20     7    19    1
    21     9    10    1
    22     9    11    1
    23     9    18    1
    24    11    13    1
    25    13    14    1
    26    13    15    1
    27    15    16    1
    28    15    31    1
    29    15    32    1
    30    16    33    1
    31    17    34    1
    32    18    35    1
    33    19    36    1
    34     5    37    1
    35     5     4    1
    36    11    17    1
    37    11    12    1
