@<TRIPOS>MOLECULE
ZINC00897258
 50 51 0 0 0
SMALL
GASTEIGER

@<TRIPOS>ATOM
      1 C           3.4837    5.2124    1.6563 C.3     1  UNL1       -0.0213
      2 C           2.7224    3.9422    1.2860 C.3     1  UNL1       -0.0214
      3 H           1.6544    4.1951    1.3032 H       1  UNL1        0.0851
      4 C           2.9460    2.7715    2.2640 C.3     1  UNL1        0.0152
      5 C           4.2939    2.0940    2.4033 C.ar    1  UNL1       -0.0418
      6 C           4.4950    0.8337    1.8258 C.ar    1  UNL1       -0.0549
      7 C           5.5598    0.0261    2.2323 C.ar    1  UNL1       -0.0197
      8 C           6.4867    0.4809    3.1689 C.ar    1  UNL1        0.1201
      9 C           6.3593    1.7720    3.6739 C.ar    1  UNL1       -0.0197
     10 C           5.2668    2.5714    3.3016 C.ar    1  UNL1       -0.0549
     11 O           7.4017   -0.4533    3.5614 O.3     1  UNL1       -0.4951
     12 C           8.6465    0.0357    4.0429 C.3     1  UNL1        0.0788
     13 N           3.0100    3.5755   -0.1503 N.4     1  UNL1        0.2313
     14 C           2.0483    2.5671   -0.7650 C.3     1  UNL1       -0.0025
     15 C           2.3317    2.3054   -2.2696 C.3     1  UNL1        0.1197
     16 H           1.6440    1.5233   -2.6157 H       1  UNL1        0.0698
     17 C           3.7537    1.8032   -2.4732 C.ar    1  UNL1       -0.0121
     18 C           4.0595    0.5021   -2.0457 C.ar    1  UNL1       -0.0524
     19 C           5.3833    0.0732   -2.0012 C.ar    1  UNL1       -0.0180
     20 C           6.4125    0.9055   -2.4325 C.ar    1  UNL1        0.1380
     21 C           6.1428    2.1860   -2.9355 C.ar    1  UNL1        0.0755
     22 C           4.7938    2.6027   -2.9687 C.ar    1  UNL1       -0.0311
     23 N           7.0827    3.1468   -3.3572 N.am    1  UNL1       -0.2852
     24 C           8.4216    2.9887   -3.6121 C.2     1  UNL1        0.2042
     25 O           9.0487    1.9294   -3.5922 O.2     1  UNL1       -0.2792
     26 O           7.6544    0.3659   -2.2662 O.3     1  UNL1       -0.5049
     27 O           1.9815    3.4832   -2.9881 O.3     1  UNL1       -0.3819
     28 H           3.5075    5.9309    0.8299 H       1  UNL1        0.0284
     29 H           4.5155    5.0151    1.9568 H       1  UNL1        0.0284
     30 H           2.9833    5.7083    2.4969 H       1  UNL1        0.0284
     31 H           2.6498    3.1036    3.2683 H       1  UNL1        0.0368
     32 H           2.2138    1.9884    2.0265 H       1  UNL1        0.0368
     33 H           3.7794    0.4047    1.1313 H       1  UNL1        0.0621
     34 H           5.6460   -0.9918    1.8569 H       1  UNL1        0.0654
     35 H           7.0560    2.1482    4.4223 H       1  UNL1        0.0654
     36 H           5.1452    3.5296    3.8035 H       1  UNL1        0.0621
     37 H           9.0780    0.7604    3.3469 H       1  UNL1        0.0660
     38 H           8.5482    0.4585    5.0474 H       1  UNL1        0.0660
     39 H           9.3312   -0.8173    4.1063 H       1  UNL1        0.0660
     40 H           2.9297    4.4397   -0.7149 H       1  UNL1        0.2017
     41 H           2.1382    1.6483   -0.1805 H       1  UNL1        0.0843
     42 H           1.0468    2.9943   -0.6491 H       1  UNL1        0.0843
     43 H           3.2843   -0.1910   -1.7238 H       1  UNL1        0.0622
     44 H           5.6238   -0.9178   -1.6142 H       1  UNL1        0.0655
     45 H           4.5803    3.5789   -3.3952 H       1  UNL1        0.0641
     46 H           6.7349    4.0725   -3.5782 H       1  UNL1        0.1546
     47 H           8.9022    3.9336   -3.8715 H       1  UNL1        0.1255
     48 H           8.2740    0.7830   -2.8994 H       1  UNL1        0.2922
     49 H           2.7279    4.0875   -3.0931 H       1  UNL1        0.2105
     50 H           3.9817    3.2532   -0.2375 H       1  UNL1        0.2017
@<TRIPOS>UNITY_ATOM_ATTR
13 1
charge 1
@<TRIPOS>BOND
     1     1    28    1
     2     1    29    1
     3     1    30    1
     4     2     4    1
     5     2    13    1
     6     4     5    1
     7     4    31    1
     8     4    32    1
     9     5    10   ar
    10     5     6   ar
    11     6     7   ar
    12     6    33    1
    13     7     8   ar
    14     7    34    1
    15     8     9   ar
    16     8    11    1
    17     9    10   ar
    18     9    35    1
    19    10    36    1
    20    11    12    1
    21    12    37    1
    22    12    38    1
    23    12    39    1
    24    13    14    1
    25    13    40    1
    26    13    50    1
    27    14    41    1
    28    14    42    1
    29    15    17    1
    30    15    27    1
    31    17    22   ar
    32    17    18   ar
    33    18    19   ar
    34    18    43    1
    35    19    20   ar
    36    19    44    1
    37    20    21   ar
    38    20    26    1
    39    21    22   ar
    40    21    23    1
    41    22    45    1
    42    23    24   am
    43    23    46    1
    44    24    25    2
    45    24    47    1
    46    26    48    1
    47    27    49    1
    48     2     3    1
    49     2     1    1
    50    15    16    1
    51    15    14    1
