@<TRIPOS>MOLECULE
ZINC00005560
 32 33 0 0 0
SMALL
GASTEIGER

@<TRIPOS>ATOM
      1 C           1.1264    0.8375   -1.8657 C.3     1  UNL1       -0.0480
      2 C           0.5297    1.4560   -0.6020 C.3     1  UNL1        0.0828
      3 H           0.8454    2.5080   -0.5774 H       1  UNL1        0.0461
      4 C          -0.9910    1.4095   -0.5780 C.ar    1  UNL1       -0.0331
      5 C          -1.7463    2.5874   -0.4965 C.ar    1  UNL1       -0.0578
      6 C          -3.1427    2.5408   -0.4102 C.ar    1  UNL1       -0.0608
      7 C          -3.8031    1.3120   -0.3814 C.ar    1  UNL1       -0.0509
      8 C          -3.0668    0.1271   -0.4654 C.ar    1  UNL1        0.0225
      9 C          -1.6753    0.1862   -0.6109 C.ar    1  UNL1       -0.0470
     10 C          -3.7866   -1.1753   -0.4152 C.2     1  UNL1        0.1931
     11 O          -4.9454   -1.2386   -0.8179 O.2     1  UNL1       -0.2867
     12 C          -3.1315   -2.4082    0.1031 C.ar    1  UNL1        0.0223
     13 C          -3.4945   -3.6409   -0.4570 C.ar    1  UNL1       -0.0509
     14 C          -2.8671   -4.8138   -0.0345 C.ar    1  UNL1       -0.0611
     15 C          -1.8819   -4.7626    0.9530 C.ar    1  UNL1       -0.0617
     16 C          -1.5389   -3.5426    1.5327 C.ar    1  UNL1       -0.0611
     17 C          -2.1730   -2.3690    1.1210 C.ar    1  UNL1       -0.0509
     18 C           1.1725    0.7580    0.6216 C.2     1  UNL1        0.3630
     19 O           1.0180   -0.4964    0.7073 O.co2   1  UNL1       -0.2457
     20 O           1.8193    1.5288    1.3907 O.co2   1  UNL1       -0.2457
     21 H           0.8630    1.4337   -2.7461 H       1  UNL1        0.0241
     22 H           0.7732   -0.1841   -2.0426 H       1  UNL1        0.0241
     23 H           2.2195    0.7966   -1.8020 H       1  UNL1        0.0241
     24 H          -1.2451    3.5533   -0.4906 H       1  UNL1        0.0621
     25 H          -3.7118    3.4639   -0.3485 H       1  UNL1        0.0618
     26 H          -4.8851    1.2784   -0.2805 H       1  UNL1        0.0625
     27 H          -1.0930   -0.7270   -0.7130 H       1  UNL1        0.0628
     28 H          -4.2495   -3.6811   -1.2380 H       1  UNL1        0.0625
     29 H          -3.1315   -5.7640   -0.4880 H       1  UNL1        0.0618
     30 H          -1.3710   -5.6682    1.2652 H       1  UNL1        0.0618
     31 H          -0.7560   -3.4877    2.2872 H       1  UNL1        0.0618
     32 H          -1.8717   -1.4321    1.5886 H       1  UNL1        0.0625
@<TRIPOS>BOND
     1     1     2    1
     2     1    21    1
     3     1    22    1
     4     1    23    1
     5     2     3    1
     6     2     4    1
     7     2    18    1
     8     4     9   ar
     9     4     5   ar
    10     5     6   ar
    11     5    24    1
    12     6     7   ar
    13     6    25    1
    14     7     8   ar
    15     7    26    1
    16     8     9   ar
    17     8    10    1
    18     9    27    1
    19    10    11    2
    20    10    12    1
    21    12    17   ar
    22    12    13   ar
    23    13    14   ar
    24    13    28    1
    25    14    15   ar
    26    14    29    1
    27    15    16   ar
    28    15    30    1
    29    16    17   ar
    30    16    31    1
    31    17    32    1
    32    18    19   ar
    33    18    20   ar
