@<TRIPOS>MOLECULE
ZINC01529323
 53 55 0 0 0
SMALL
GASTEIGER

@<TRIPOS>ATOM
      1 C           0.9411   -0.1773   -0.9498 C.3     0  UNK0        0.0011
      2 N          -0.0027    0.9358   -0.8111 N.pl3   0  UNK0       -0.3271
      3 C          -1.2183    0.8137   -1.6508 C.3     0  UNK0        0.0555
      4 C          -2.2079   -0.1584   -1.0370 C.ar    0  UNK0        0.0774
      5 C          -2.6152   -0.0286    0.2795 C.ar    0  UNK0        0.0528
      6 N          -3.3572   -0.9702    0.9170 N.ar    0  UNK0       -0.2324
      7 C          -3.6959   -2.0681    0.2335 C.ar    0  UNK0        0.1851
      8 C          -3.3794   -2.1513   -1.1267 C.ar    0  UNK0        0.1477
      9 N          -2.6351   -1.2077   -1.7797 N.ar    0  UNK0       -0.2419
     10 C          -3.8496   -3.3074   -1.7387 C.ar    0  UNK0        0.1491
     11 N          -4.4523   -4.3129   -1.0855 N.ar    0  UNK0       -0.1978
     12 C          -4.5974   -4.1553    0.2269 C.ar    0  UNK0        0.2163
     13 N          -4.2960   -3.0515    0.8990 N.ar    0  UNK0       -0.1932
     14 N          -5.1107   -5.2139    0.9454 N.pl3   0  UNK0       -0.3274
     15 N          -3.7817   -3.4429   -3.1365 N.pl3   0  UNK0       -0.3413
     16 C           0.5182    2.2256   -0.6180 C.ar    0  UNK0        0.0298
     17 C          -0.3320    3.3142   -0.3766 C.ar    0  UNK0       -0.0399
     18 C           0.1582    4.6231   -0.2413 C.ar    0  UNK0       -0.0479
     19 C           1.5229    4.9028   -0.3162 C.ar    0  UNK0        0.0368
     20 C           2.3970    3.8256   -0.4671 C.ar    0  UNK0       -0.0479
     21 C           1.8965    2.5126   -0.6055 C.ar    0  UNK0       -0.0399
     22 C           1.9290    6.3470   -0.2691 C.2     0  UNK0        0.2447
     23 O           1.0451    7.1994   -0.2205 O.2     0  UNK0       -0.2702
     24 N           3.2669    6.6480   -0.3228 N.am    1  GLU1       -0.2982
     25 CA          3.8114    8.0420   -0.4048 C.3     1  GLU1        0.1254
     26 HA          3.1258    8.6047   -1.0519 H       1  GLU1        0.0616
     27 CB          3.7859    8.6983    0.9925 C.3     1  GLU1       -0.0137
     28 CG          4.4475   10.0787    1.0695 C.3     1  GLU1        0.0514
     29 CD          4.1811   10.9093    2.3342 C.2     1  GLU1        0.3561
     30 OE1         4.7617   12.0387    2.3593 O.co2   1  GLU1       -0.2464
     31 OE2         3.4190   10.4101    3.2102 O.co2   1  GLU1       -0.2464
     32 C           5.2162    8.0107   -1.1124 C.2     1  GLU1        0.3759
     33 O           6.1436    7.4410   -0.4596 O.co2   1  GLU1       -0.2443
     34 OXT         5.2260    8.3886   -2.3237 O.co2   1  GLU1       -0.2443
     35 H           0.4124   -1.1337   -1.0367 H       0  UNK0        0.0428
     36 H           1.5846   -0.2606   -0.0671 H       0  UNK0        0.0428
     37 H           1.5589   -0.0649   -1.8481 H       0  UNK0        0.0428
     38 H          -1.7440    1.7587   -1.8252 H       0  UNK0        0.0529
     39 H          -0.9292    0.4487   -2.6443 H       0  UNK0        0.0529
     40 H          -2.3161    0.8215    0.8860 H       0  UNK0        0.0849
     41 H          -5.6939   -5.7957    0.3623 H       0  UNK0        0.1452
     42 H          -5.4897   -4.8874    1.8237 H       0  UNK0        0.1452
     43 H          -2.9043   -3.0842   -3.5019 H       0  UNK0        0.1438
     44 H          -4.0138   -4.3915   -3.4053 H       0  UNK0        0.1438
     45 H          -1.4041    3.1785   -0.2765 H       0  UNK0        0.0636
     46 H          -0.5561    5.4350   -0.0926 H       0  UNK0        0.0626
     47 H           3.4719    3.9740   -0.4954 H       0  UNK0        0.0626
     48 H           2.6355    1.7268   -0.7329 H       0  UNK0        0.0636
     49 H           3.9946    5.9509   -0.3791 H       1  GLU1        0.1498
     50 HB1         2.7367    8.7916    1.3027 H       1  GLU1        0.0294
     51 HB2         4.2550    8.0347    1.7298 H       1  GLU1        0.0294
     52 HG1         5.5351    9.9580    0.9910 H       1  GLU1        0.0380
     53 HG2         4.1263   10.6862    0.2147 H       1  GLU1        0.0380
@<TRIPOS>BOND
     1     1     2    1
     2     1    35    1
     3     1    36    1
     4     1    37    1
     5     2     3    1
     6     2    16    1
     7     3     4    1
     8     3    38    1
     9     3    39    1
    10     4     9   ar
    11     4     5   ar
    12     5     6   ar
    13     5    40    1
    14     6     7   ar
    15     7    13   ar
    16     7     8   ar
    17     8     9   ar
    18     8    10   ar
    19    10    11   ar
    20    10    15    1
    21    11    12   ar
    22    12    13   ar
    23    12    14    1
    24    14    41    1
    25    14    42    1
    26    15    43    1
    27    15    44    1
    28    16    21   ar
    29    16    17   ar
    30    17    18   ar
    31    17    45    1
    32    18    19   ar
    33    18    46    1
    34    19    20   ar
    35    19    22    1
    36    20    21   ar
    37    20    47    1
    38    21    48    1
    39    22    23    2
    40    22    24   am
    41    24    25    1
    42    24    49    1
    43    25    26    1
    44    25    27    1
    45    25    32    1
    46    27    28    1
    47    27    50    1
    48    27    51    1
    49    28    29    1
    50    28    52    1
    51    28    53    1
    52    29    30   ar
    53    29    31   ar
    54    32    33   ar
    55    32    34   ar
