@<TRIPOS>MOLECULE
ZINC00000786
 31 31 0 0 0
SMALL
GASTEIGER

@<TRIPOS>ATOM
      1 C           2.3897    1.2201    0.0946 C.3     1  UNL1       -0.0379
      2 C           1.1714    0.3384   -0.0043 C.ar    1  UNL1       -0.0290
      3 C           1.3465   -1.0477    0.1141 C.ar    1  UNL1       -0.0571
      4 C           0.2681   -1.9057   -0.0112 C.ar    1  UNL1       -0.0611
      5 C          -0.9910   -1.3910   -0.3071 C.ar    1  UNL1       -0.0571
      6 C          -1.2051   -0.0023   -0.4555 C.ar    1  UNL1       -0.0290
      7 C          -0.1214    0.8730   -0.2422 C.ar    1  UNL1        0.0394
      8 N          -0.2652    2.2695   -0.0356 N.am    1  UNL1       -0.2804
      9 C          -0.6998    3.2013   -0.9573 C.2     1  UNL1        0.2651
     10 O          -1.1982    2.9895   -2.0600 O.2     1  UNL1       -0.2693
     11 C          -0.5205    4.6726   -0.4921 C.3     1  UNL1        0.0506
     12 H          -1.1167    4.8204    0.4143 H       1  UNL1        0.0946
     13 C           0.9323    5.0721   -0.2641 C.3     1  UNL1       -0.0130
     14 N          -1.0836    5.6215   -1.5154 N.4     1  UNL1        0.2272
     15 C          -2.6124    0.4371   -0.7500 C.3     1  UNL1       -0.0379
     16 H           2.4359    1.8923   -0.7698 H       1  UNL1        0.0278
     17 H           2.3707    1.8110    1.0161 H       1  UNL1        0.0278
     18 H           3.3139    0.6332    0.0905 H       1  UNL1        0.0278
     19 H           2.3336   -1.4642    0.3066 H       1  UNL1        0.0621
     20 H           0.4068   -2.9780    0.1160 H       1  UNL1        0.0618
     21 H          -1.8213   -2.0914   -0.3947 H       1  UNL1        0.0621
     22 H           0.3682    2.6094    0.6771 H       1  UNL1        0.1550
     23 H           1.4974    5.0818   -1.2032 H       1  UNL1        0.0289
     24 H           0.9933    6.0748    0.1736 H       1  UNL1        0.0289
     25 H           1.4485    4.3883    0.4163 H       1  UNL1        0.0289
     26 H          -0.5180    5.6114   -2.3766 H       1  UNL1        0.2002
     27 H          -2.0099    5.2789   -1.8103 H       1  UNL1        0.2002
     28 H          -3.0322    0.9984    0.0885 H       1  UNL1        0.0278
     29 H          -2.6513    1.0315   -1.6648 H       1  UNL1        0.0278
     30 H          -3.2666   -0.4271   -0.9261 H       1  UNL1        0.0278
     31 H          -1.1738    6.5905   -1.1842 H       1  UNL1        0.2002
@<TRIPOS>UNITY_ATOM_ATTR
14 1
charge 1
@<TRIPOS>BOND
     1     1     2    1
     2     1    16    1
     3     1    17    1
     4     1    18    1
     5     2     7   ar
     6     2     3   ar
     7     3     4   ar
     8     3    19    1
     9     4     5   ar
    10     4    20    1
    11     5     6   ar
    12     5    21    1
    13     6     7   ar
    14     6    15    1
    15     7     8    1
    16     8     9   am
    17     8    22    1
    18     9    10    2
    19     9    11    1
    20    11    12    1
    21    11    13    1
    22    11    14    1
    23    13    23    1
    24    13    24    1
    25    13    25    1
    26    14    26    1
    27    14    27    1
    28    14    31    1
    29    15    28    1
    30    15    29    1
    31    15    30    1
