@<TRIPOS>MOLECULE
ZINC01420561
 55 57 0 0 0
SMALL
GASTEIGER

@<TRIPOS>ATOM
      1 C           1.7467    7.9751   -3.3955 C.3     1  UNL1       -0.0245
      2 C           1.9197    6.5607   -3.9271 C.3     1  UNL1       -0.0348
      3 N           0.8235    5.6372   -3.4162 N.4     1  UNL1        0.2349
      4 C          -0.5925    6.1003   -3.7304 C.3     1  UNL1       -0.0348
      5 C          -0.8702    6.1814   -5.2227 C.3     1  UNL1       -0.0245
      6 C           1.0028    4.1782   -3.8319 C.3     1  UNL1       -0.0305
      7 C           2.2715    3.5570   -3.2762 C.3     1  UNL1        0.0032
      8 C           2.3509    2.0735   -3.7065 C.3     1  UNL1        0.0173
      9 N           2.3957    1.9452   -5.1800 N.pl3   1  UNL1       -0.3260
     10 C           3.5089    2.5758   -5.8050 C.ar    1  UNL1        0.0299
     11 C           3.4170    3.0003   -7.1355 C.ar    1  UNL1       -0.0407
     12 C           4.4689    3.6942   -7.7528 C.ar    1  UNL1       -0.0600
     13 C           5.6422    3.9643   -7.0585 C.ar    1  UNL1       -0.0616
     14 C           5.7826    3.4949   -5.7666 C.ar    1  UNL1       -0.0600
     15 C           4.7351    2.8157   -5.1454 C.ar    1  UNL1       -0.0407
     16 C           2.0245    0.6095   -5.8575 C.3     1  UNL1        0.0315
     17 C           3.2587   -0.2899   -6.0819 C.3     1  UNL1       -0.0085
     18 C           3.3681   -0.8295   -4.6907 C.ar    1  UNL1       -0.0424
     19 C           4.4410   -0.7681   -3.8343 C.ar    1  UNL1       -0.0583
     20 C           4.2291   -1.1119   -2.4966 C.ar    1  UNL1       -0.0615
     21 C           2.9956   -1.6412   -2.0818 C.ar    1  UNL1       -0.0615
     22 C           1.9006   -1.6550   -2.9465 C.ar    1  UNL1       -0.0583
     23 C           2.0896   -1.0915   -4.1911 C.ar    1  UNL1       -0.0424
     24 C           1.0808   -0.3651   -5.0492 C.3     1  UNL1       -0.0085
     25 H           0.8690    8.4693   -3.8224 H       1  UNL1        0.0281
     26 H           2.6170    8.5840   -3.6620 H       1  UNL1        0.0281
     27 H           1.6539    7.9821   -2.3045 H       1  UNL1        0.0281
     28 H           1.9217    6.5260   -5.0201 H       1  UNL1        0.0812
     29 H           2.8716    6.1741   -3.5548 H       1  UNL1        0.0812
     30 H          -1.2723    5.3890   -3.2489 H       1  UNL1        0.0812
     31 H          -0.7406    7.0674   -3.2423 H       1  UNL1        0.0812
     32 H          -0.7831    5.2054   -5.7091 H       1  UNL1        0.0281
     33 H          -1.8940    6.5311   -5.3876 H       1  UNL1        0.0281
     34 H          -0.2005    6.8805   -5.7307 H       1  UNL1        0.0281
     35 H           0.1401    3.6381   -3.4258 H       1  UNL1        0.0815
     36 H           0.9730    4.1459   -4.9236 H       1  UNL1        0.0815
     37 H           3.1482    4.1069   -3.6246 H       1  UNL1        0.0332
     38 H           2.2889    3.6169   -2.1839 H       1  UNL1        0.0332
     39 H           3.2142    1.6086   -3.2176 H       1  UNL1        0.0466
     40 H           1.4678    1.5811   -3.3021 H       1  UNL1        0.0466
     41 H           2.5128    2.8150   -7.7047 H       1  UNL1        0.0636
     42 H           4.3681    4.0161   -8.7836 H       1  UNL1        0.0618
     43 H           6.4538    4.5091   -7.5405 H       1  UNL1        0.0618
     44 H           6.7156    3.6726   -5.2205 H       1  UNL1        0.0618
     45 H           4.9168    2.4386   -4.1568 H       1  UNL1        0.0636
     46 H           1.5270    0.8598   -6.8014 H       1  UNL1        0.0506
     47 H           3.0062   -1.1083   -6.7764 H       1  UNL1        0.0331
     48 H           4.1617    0.1933   -6.4478 H       1  UNL1        0.0331
     49 H           5.3805   -0.3184   -4.1501 H       1  UNL1        0.0620
     50 H           5.0134   -0.9396   -1.7634 H       1  UNL1        0.0618
     51 H           2.8749   -1.9731   -1.0553 H       1  UNL1        0.0618
     52 H           0.9277   -1.9949   -2.6104 H       1  UNL1        0.0620
     53 H           0.3398    0.1645   -4.4467 H       1  UNL1        0.0331
     54 H           0.5753   -1.0757   -5.7144 H       1  UNL1        0.0331
     55 H           0.8991    5.6497   -2.3907 H       1  UNL1        0.2033
@<TRIPOS>UNITY_ATOM_ATTR
3 1
charge 1
@<TRIPOS>BOND
     1     1     2    1
     2     1    25    1
     3     1    26    1
     4     1    27    1
     5     2     3    1
     6     2    28    1
     7     2    29    1
     8     3     4    1
     9     3     6    1
    10     3    55    1
    11     4     5    1
    12     4    30    1
    13     4    31    1
    14     5    32    1
    15     5    33    1
    16     5    34    1
    17     6     7    1
    18     6    35    1
    19     6    36    1
    20     7     8    1
    21     7    37    1
    22     7    38    1
    23     8     9    1
    24     8    39    1
    25     8    40    1
    26     9    10    1
    27     9    16    1
    28    10    15   ar
    29    10    11   ar
    30    11    12   ar
    31    11    41    1
    32    12    13   ar
    33    12    42    1
    34    13    14   ar
    35    13    43    1
    36    14    15   ar
    37    14    44    1
    38    15    45    1
    39    16    24    1
    40    16    17    1
    41    16    46    1
    42    17    18    1
    43    17    47    1
    44    17    48    1
    45    18    23   ar
    46    18    19   ar
    47    19    20   ar
    48    19    49    1
    49    20    21   ar
    50    20    50    1
    51    21    22   ar
    52    21    51    1
    53    22    23   ar
    54    22    52    1
    55    23    24    1
    56    24    53    1
    57    24    54    1
