@<TRIPOS>MOLECULE
ZINC03813061
 44 45 0 0 0
SMALL
GASTEIGER

@<TRIPOS>ATOM
      1 C           0.7175   -0.4695   -2.1498 C.3     1  UNL1       -0.0652
      2 C           0.1477   -1.5474   -1.2394 C.3     1  UNL1       -0.0545
      3 C          -1.1093   -1.0518   -0.5341 C.3     1  UNL1       -0.0377
      4 C          -1.8039   -2.1202    0.3050 C.3     1  UNL1        0.0092
      5 N          -1.0199   -2.4990    1.4872 N.pl3   1  UNL1       -0.3409
      6 C          -1.7463   -3.0192    2.5896 C.ar    1  UNL1        0.0728
      7 C          -3.0145   -3.6004    2.3604 C.ar    1  UNL1       -0.0230
      8 C          -3.8224   -4.1310    3.3694 C.ar    1  UNL1        0.0670
      9 C          -3.3273   -4.1127    4.6668 C.ar    1  UNL1       -0.0175
     10 C          -2.0433   -3.6184    4.9295 C.ar    1  UNL1        0.1496
     11 C          -1.2310   -3.0672    3.9081 C.ar    1  UNL1        0.1754
     12 O           0.0411   -2.7277    4.3315 O.3     1  UNL1       -0.4522
     13 C           0.8758   -1.8429    3.7061 C.ar    1  UNL1        0.1286
     14 C           2.2408   -2.1349    3.8186 C.ar    1  UNL1       -0.0193
     15 C           3.1969   -1.3175    3.2130 C.ar    1  UNL1       -0.0583
     16 C           2.7888   -0.1941    2.4974 C.ar    1  UNL1       -0.0615
     17 C           1.4361    0.1386    2.4430 C.ar    1  UNL1       -0.0583
     18 C           0.4839   -0.6626    3.0811 C.ar    1  UNL1       -0.0193
     19 S          -1.3889   -3.7855    6.5633 S.O2    1  UNL1        0.0595
     20 O          -0.3287   -4.7663    6.5497 O.2     1  UNL1       -0.1531
     21 O          -1.2268   -2.4789    7.1592 O.2     1  UNL1       -0.1531
     22 N          -2.6197   -4.5291    7.4558 N.3     1  UNL1       -0.2034
     23 C          -5.1712   -4.7294    3.0391 C.2     1  UNL1        0.3867
     24 O          -5.7889   -5.2898    3.9996 O.co2   1  UNL1       -0.2406
     25 O          -5.5755   -4.6316    1.8430 O.co2   1  UNL1       -0.2406
     26 H           0.0234   -0.2405   -2.9659 H       1  UNL1        0.0230
     27 H           1.6602   -0.8060   -2.5930 H       1  UNL1        0.0230
     28 H           0.9096    0.4547   -1.5954 H       1  UNL1        0.0230
     29 H          -0.0819   -2.4367   -1.8369 H       1  UNL1        0.0263
     30 H           0.9059   -1.8332   -0.5011 H       1  UNL1        0.0263
     31 H          -0.8732   -0.1808    0.0883 H       1  UNL1        0.0280
     32 H          -1.8260   -0.7093   -1.2939 H       1  UNL1        0.0280
     33 H          -2.7584   -1.6738    0.6136 H       1  UNL1        0.0461
     34 H          -2.0148   -3.0032   -0.3090 H       1  UNL1        0.0461
     35 H          -0.2548   -3.1347    1.2677 H       1  UNL1        0.1462
     36 H          -3.4242   -3.6644    1.3527 H       1  UNL1        0.0645
     37 H          -3.9601   -4.5194    5.4514 H       1  UNL1        0.0646
     38 H           2.5569   -3.0084    4.3845 H       1  UNL1        0.0654
     39 H           4.2516   -1.5627    3.2954 H       1  UNL1        0.0619
     40 H           3.5235    0.4255    1.9911 H       1  UNL1        0.0618
     41 H           1.1116    1.0182    1.8940 H       1  UNL1        0.0619
     42 H          -0.5647   -0.3857    3.0415 H       1  UNL1        0.0654
     43 H          -2.7671   -5.4905    7.1491 H       1  UNL1        0.1442
     44 H          -2.4203   -4.4442    8.4516 H       1  UNL1        0.1442
@<TRIPOS>BOND
     1     1     2    1
     2     1    26    1
     3     1    27    1
     4     1    28    1
     5     2     3    1
     6     2    29    1
     7     2    30    1
     8     3     4    1
     9     3    31    1
    10     3    32    1
    11     4     5    1
    12     4    33    1
    13     4    34    1
    14     5     6    1
    15     5    35    1
    16     6    11   ar
    17     6     7   ar
    18     7     8   ar
    19     7    36    1
    20     8     9   ar
    21     8    23    1
    22     9    10   ar
    23     9    37    1
    24    10    11   ar
    25    10    19    1
    26    11    12    1
    27    12    13    1
    28    13    18   ar
    29    13    14   ar
    30    14    15   ar
    31    14    38    1
    32    15    16   ar
    33    15    39    1
    34    16    17   ar
    35    16    40    1
    36    17    18   ar
    37    17    41    1
    38    18    42    1
    39    19    20    2
    40    19    21    2
    41    19    22    1
    42    22    43    1
    43    22    44    1
    44    23    24   ar
    45    23    25   ar
