@<TRIPOS>MOLECULE
ZINC01530922
 38 40 0 0 0
SMALL
GASTEIGER

@<TRIPOS>ATOM
      1 C           1.5549   -0.2801    0.1861 C.ar    1  UNL1       -0.0617
      2 C           1.0132   -0.0356   -1.0725 C.ar    1  UNL1       -0.0614
      3 C          -0.3594    0.1994   -1.2182 C.ar    1  UNL1       -0.0557
      4 C          -1.2268    0.1661   -0.1106 C.ar    1  UNL1       -0.0108
      5 C          -0.6456   -0.0592    1.1555 C.ar    1  UNL1       -0.0557
      6 C           0.7267   -0.2811    1.3028 C.ar    1  UNL1       -0.0614
      7 C          -2.7564    0.3396   -0.2649 C.3     1  UNL1        0.1637
      8 C          -3.3182   -0.5170   -1.4618 C.2     1  UNL1        0.2575
      9 O          -2.9916   -0.3640   -2.6344 O.2     1  UNL1       -0.2719
     10 N          -4.1964   -1.4426   -0.9666 N.am    1  UNL1       -0.1990
     11 C          -4.2116   -1.4034    0.3832 C.2     1  UNL1        0.3117
     12 O          -4.7686   -2.1058    1.2105 O.2     1  UNL1       -0.2521
     13 N          -3.4427   -0.3447    0.8066 N.am    1  UNL1       -0.2775
     14 C          -4.9596   -2.3644   -1.7834 C.3     1  UNL1        0.1357
     15 O          -6.3115   -2.3531   -1.3512 O.3     1  UNL1       -0.2637
     16 P          -7.3501   -3.3175   -2.3432 P.3     1  UNL1        0.5334
     17 O          -6.9839   -2.3543   -3.4934 O.2     1  UNL1       -0.2224
     18 C          -3.2065    1.8153   -0.2796 C.ar    1  UNL1       -0.0108
     19 C          -3.0409    2.6170    0.8669 C.ar    1  UNL1       -0.0557
     20 C          -3.5949    3.8981    0.9458 C.ar    1  UNL1       -0.0614
     21 C          -4.3098    4.4163   -0.1320 C.ar    1  UNL1       -0.0617
     22 C          -4.4279    3.6704   -1.2976 C.ar    1  UNL1       -0.0614
     23 C          -3.8786    2.3864   -1.3767 C.ar    1  UNL1       -0.0557
     24 H           2.6166   -0.4822    0.2937 H       1  UNL1        0.0618
     25 H           1.6516   -0.0483   -1.9518 H       1  UNL1        0.0618
     26 H          -0.7446    0.3724   -2.2223 H       1  UNL1        0.0621
     27 H          -1.2668   -0.0978    2.0476 H       1  UNL1        0.0621
     28 H           1.1388   -0.4792    2.2881 H       1  UNL1        0.0618
     29 H          -3.7126    0.0725    1.6795 H       1  UNL1        0.1519
     30 H          -4.8610   -2.0399   -2.8230 H       1  UNL1        0.0782
     31 H          -4.4992   -3.3480   -1.6691 H       1  UNL1        0.0782
     32 H          -2.5057    2.2325    1.7326 H       1  UNL1        0.0621
     33 H          -3.4943    4.4804    1.8574 H       1  UNL1        0.0618
     34 H          -4.7818    5.3903   -0.0583 H       1  UNL1        0.0618
     35 H          -4.9850    4.0637   -2.1475 H       1  UNL1        0.0618
     36 H          -4.0291    1.8340   -2.3034 H       1  UNL1        0.0621
     37 O          -6.4594   -4.5144   -1.9462 O.3     1  UNL1       -0.1145
     38 O          -8.3887   -4.2818   -3.3352 O.3     1  UNL1       -0.1145
@<TRIPOS>BOND
     1     1     6   ar
     2     1     2   ar
     3     1    24    1
     4     2     3   ar
     5     2    25    1
     6     3     4   ar
     7     3    26    1
     8     4     5   ar
     9     4     7    1
    10     5     6   ar
    11     5    27    1
    12     6    28    1
    13     7    13    1
    14     7     8    1
    15     7    18    1
    16     8     9    2
    17     8    10   am
    18    10    11   am
    19    10    14    1
    20    11    12    2
    21    11    13   am
    22    13    29    1
    23    14    15    1
    24    14    30    1
    25    14    31    1
    26    15    16    1
    27    16    17    2
    28    16    37    1
    29    16    38    1
    30    18    23   ar
    31    18    19   ar
    32    19    20   ar
    33    19    32    1
    34    20    21   ar
    35    20    33    1
    36    21    22   ar
    37    21    34    1
    38    22    23   ar
    39    22    35    1
    40    23    36    1
