@<TRIPOS>MOLECULE
ZINC00000922
 17 17 0 0 0
SMALL
GASTEIGER

@<TRIPOS>ATOM
      1 C          -1.2750   -1.0587    0.0350 C.ar    1  UNL1       -0.0400
      2 C          -0.0896   -1.8029    0.0033 C.ar    1  UNL1       -0.0423
      3 C           1.1616   -1.1679   -0.0122 C.ar    1  UNL1        0.1045
      4 C           1.1798    0.2331    0.0148 C.ar    1  UNL1        0.1327
      5 C          -0.0020    0.9778    0.0478 C.ar    1  UNL1        0.0013
      6 C          -1.2416    0.3383    0.0078 C.ar    1  UNL1        0.0281
      7 N          -2.4276    1.0755    0.1687 N.pl3   1  UNL1       -0.3579
      8 O           2.3579    0.9383    0.0211 O.3     1  UNL1       -0.5059
      9 C           2.4370   -1.9746   -0.0310 C.2     1  UNL1        0.3901
     10 O           3.5194   -1.2972   -0.0364 O.co2   1  UNL1       -0.2405
     11 O           2.3443   -3.2408   -0.0391 O.co2   1  UNL1       -0.2405
     12 H          -2.2216   -1.5879    0.0806 H       1  UNL1        0.0636
     13 H          -0.1314   -2.8910    0.0064 H       1  UNL1        0.0627
     14 H           0.0657    2.0590    0.1005 H       1  UNL1        0.0673
     15 H          -2.3395    2.0250   -0.1782 H       1  UNL1        0.1423
     16 H          -3.2388    0.5953   -0.2044 H       1  UNL1        0.1423
     17 H           3.0736    0.2436    0.0029 H       1  UNL1        0.2922
@<TRIPOS>BOND
     1     1     6   ar
     2     1     2   ar
     3     1    12    1
     4     2     3   ar
     5     2    13    1
     6     3     4   ar
     7     3     9    1
     8     4     5   ar
     9     4     8    1
    10     5     6   ar
    11     5    14    1
    12     6     7    1
    13     7    15    1
    14     7    16    1
    15     8    17    1
    16     9    10   ar
    17     9    11   ar
