@<TRIPOS>MOLECULE
ZINC01530598
 48 50 0 0 0
SMALL
GASTEIGER

@<TRIPOS>ATOM
      1 C           0.4706   -0.0827    0.6011 C.3     1  UNL1        0.0788
      2 O           0.4027    1.0827   -0.2140 O.3     1  UNL1       -0.4951
      3 C           0.7556    2.2627    0.3830 C.ar    1  UNL1        0.1201
      4 C           1.2375    3.2472   -0.4814 C.ar    1  UNL1       -0.0194
      5 C           1.6339    4.4999    0.0062 C.ar    1  UNL1       -0.0505
      6 C           1.5332    4.7935    1.3721 C.ar    1  UNL1       -0.0157
      7 C           1.0179    3.8125    2.2303 C.ar    1  UNL1       -0.0505
      8 C           0.6320    2.5541    1.7402 C.ar    1  UNL1       -0.0194
      9 C           2.0293    6.0935    1.9124 C.2     1  UNL1        0.0082
     10 C           1.2286    7.1882    1.9847 C.2     1  UNL1        0.0563
     11 C           1.6471    8.5194    2.4872 C.ar    1  UNL1       -0.0059
     12 C           1.4554    8.8806    3.8277 C.ar    1  UNL1       -0.0497
     13 C           1.8185   10.1562    4.2811 C.ar    1  UNL1       -0.0194
     14 C           2.3941   11.0850    3.4131 C.ar    1  UNL1        0.1201
     15 C           2.5809   10.7407    2.0760 C.ar    1  UNL1       -0.0194
     16 C           2.2082    9.4667    1.6167 C.ar    1  UNL1       -0.0497
     17 O           2.6810   12.3054    3.9648 O.3     1  UNL1       -0.4951
     18 C           3.7459   13.0302    3.3580 C.3     1  UNL1        0.0788
     19 CL         -0.4391    7.1546    1.4772 Cl      1  UNL1       -0.0823
     20 C           3.4331    6.1972    2.3888 C.ar    1  UNL1       -0.0157
     21 C           4.4606    6.5119    1.4942 C.ar    1  UNL1       -0.0505
     22 C           5.7832    6.5647    1.9401 C.ar    1  UNL1       -0.0194
     23 C           6.0930    6.3189    3.2795 C.ar    1  UNL1        0.1201
     24 C           5.0701    6.0030    4.1740 C.ar    1  UNL1       -0.0194
     25 C           3.7473    5.9417    3.7310 C.ar    1  UNL1       -0.0505
     26 O           7.4257    6.3657    3.5821 O.3     1  UNL1       -0.4951
     27 C           7.7490    6.6750    4.9323 C.3     1  UNL1        0.0788
     28 H           0.2592   -0.9476   -0.0367 H       1  UNL1        0.0660
     29 H          -0.2858   -0.0693    1.3916 H       1  UNL1        0.0660
     30 H           1.4753   -0.2141    1.0174 H       1  UNL1        0.0660
     31 H           1.3257    3.0293   -1.5431 H       1  UNL1        0.0654
     32 H           2.0318    5.2334   -0.6903 H       1  UNL1        0.0625
     33 H           0.9178    4.0166    3.2935 H       1  UNL1        0.0625
     34 H           0.2273    1.8309    2.4398 H       1  UNL1        0.0654
     35 H           1.0106    8.1793    4.5290 H       1  UNL1        0.0625
     36 H           1.6514   10.4277    5.3208 H       1  UNL1        0.0654
     37 H           2.9832   11.4479    1.3579 H       1  UNL1        0.0654
     38 H           2.3455    9.2251    0.5649 H       1  UNL1        0.0625
     39 H           4.6676   12.4387    3.3505 H       1  UNL1        0.0660
     40 H           3.4855   13.3684    2.3507 H       1  UNL1        0.0660
     41 H           3.9275   13.9238    3.9643 H       1  UNL1        0.0660
     42 H           4.2442    6.7122    0.4484 H       1  UNL1        0.0625
     43 H           6.5798    6.8006    1.2396 H       1  UNL1        0.0654
     44 H           5.2730    5.7735    5.2143 H       1  UNL1        0.0654
     45 H           2.9596    5.6800    4.4345 H       1  UNL1        0.0625
     46 H           7.3033    7.6293    5.2323 H       1  UNL1        0.0660
     47 H           7.4568    5.8703    5.6137 H       1  UNL1        0.0660
     48 H           8.8369    6.7781    4.9957 H       1  UNL1        0.0660
@<TRIPOS>BOND
     1     1     2    1
     2     1    28    1
     3     1    29    1
     4     1    30    1
     5     2     3    1
     6     3     8   ar
     7     3     4   ar
     8     4     5   ar
     9     4    31    1
    10     5     6   ar
    11     5    32    1
    12     6     7   ar
    13     6     9    1
    14     7     8   ar
    15     7    33    1
    16     8    34    1
    17     9    10    2
    18     9    20    1
    19    10    11    1
    20    10    19    1
    21    11    16   ar
    22    11    12   ar
    23    12    13   ar
    24    12    35    1
    25    13    14   ar
    26    13    36    1
    27    14    15   ar
    28    14    17    1
    29    15    16   ar
    30    15    37    1
    31    16    38    1
    32    17    18    1
    33    18    39    1
    34    18    40    1
    35    18    41    1
    36    20    25   ar
    37    20    21   ar
    38    21    22   ar
    39    21    42    1
    40    22    23   ar
    41    22    43    1
    42    23    24   ar
    43    23    26    1
    44    24    25   ar
    45    24    44    1
    46    25    45    1
    47    26    27    1
    48    27    46    1
    49    27    47    1
    50    27    48    1
