@<TRIPOS>MOLECULE
ZINC00057340
 32 32 0 0 0
SMALL
GASTEIGER

@<TRIPOS>ATOM
      1 C          -0.3966    2.1170    1.1557 C.3     1  UNL1        0.0790
      2 O           0.4224    0.9358    1.1600 O.3     1  UNL1       -0.4915
      3 C           0.8685    0.6041    2.4121 C.ar    1  UNL1        0.1615
      4 C          -0.0214    0.6704    3.4966 C.ar    1  UNL1       -0.0163
      5 C           0.4524    0.6690    4.8035 C.ar    1  UNL1       -0.0581
      6 C           1.8121    0.5184    5.0338 C.ar    1  UNL1       -0.0581
      7 C           2.6684    0.2687    3.9610 C.ar    1  UNL1       -0.0163
      8 C           2.2077    0.2665    2.6369 C.ar    1  UNL1        0.1620
      9 O           3.2010   -0.0216    1.7493 O.3     1  UNL1       -0.4856
     10 C           2.9276   -0.2199    0.3673 C.3     1  UNL1        0.1188
     11 C           3.2023    1.0493   -0.4512 C.3     1  UNL1        0.1231
     12 H           2.5028    1.8213   -0.1232 H       1  UNL1        0.0662
     13 C           4.6404    1.5870   -0.3040 C.3     1  UNL1        0.1231
     14 O           4.9964    1.9380    1.0342 O.3     1  UNL1       -0.4478
     15 C           4.4467    3.0818    1.5081 C.2     1  UNL1        0.3977
     16 O           3.7392    3.8513    0.8976 O.2     1  UNL1       -0.2267
     17 N           4.7792    3.2217    2.8135 N.am    1  UNL1       -0.2950
     18 O           2.9448    0.7823   -1.8345 O.3     1  UNL1       -0.3850
     19 H           0.0351    2.8438    0.4631 H       1  UNL1        0.0660
     20 H          -0.4832    2.6263    2.1234 H       1  UNL1        0.0660
     21 H          -1.3974    1.8439    0.8095 H       1  UNL1        0.0660
     22 H          -1.0867    0.8029    3.3260 H       1  UNL1        0.0655
     23 H          -0.2376    0.8278    5.6280 H       1  UNL1        0.0619
     24 H           2.2030    0.5812    6.0431 H       1  UNL1        0.0619
     25 H           3.7268    0.0953    4.1554 H       1  UNL1        0.0655
     26 H           3.6015   -1.0183    0.0170 H       1  UNL1        0.0724
     27 H           1.9273   -0.6255    0.1785 H       1  UNL1        0.0724
     28 H           5.3595    0.8269   -0.6398 H       1  UNL1        0.0725
     29 H           4.8000    2.4435   -0.9725 H       1  UNL1        0.0725
     30 H           5.1870    2.4260    3.2768 H       1  UNL1        0.1482
     31 H           4.2938    3.9241    3.3497 H       1  UNL1        0.1482
     32 H           2.8632    1.6475   -2.2738 H       1  UNL1        0.2101
@<TRIPOS>BOND
     1     1     2    1
     2     1    19    1
     3     1    20    1
     4     1    21    1
     5     2     3    1
     6     3     8   ar
     7     3     4   ar
     8     4     5   ar
     9     4    22    1
    10     5     6   ar
    11     5    23    1
    12     6     7   ar
    13     6    24    1
    14     7     8   ar
    15     7    25    1
    16     8     9    1
    17     9    10    1
    18    10    11    1
    19    10    26    1
    20    10    27    1
    21    11    12    1
    22    11    13    1
    23    11    18    1
    24    13    14    1
    25    13    28    1
    26    13    29    1
    27    14    15    1
    28    15    16    2
    29    15    17   am
    30    17    30    1
    31    17    31    1
    32    18    32    1
