@<TRIPOS>MOLECULE
ZINC00002062
 28 29 0 0 0
SMALL
GASTEIGER

@<TRIPOS>ATOM
      1 C          -1.8715    0.1007    0.3547 C.ar    1  UNL1       -0.0608
      2 C          -1.2631   -1.1415    0.2006 C.ar    1  UNL1       -0.0583
      3 C           0.1278   -1.2293    0.1279 C.ar    1  UNL1       -0.0194
      4 C           0.9173   -0.0756    0.1779 C.ar    1  UNL1        0.1308
      5 C           0.3220    1.1789    0.3291 C.ar    1  UNL1        0.1007
      6 C          -1.0826    1.2524    0.4301 C.ar    1  UNL1       -0.0442
      7 C           1.0511    2.4690    0.4660 C.2     1  UNL1        0.3480
      8 O           0.5720    3.4100    1.0876 O.2     1  UNL1       -0.2444
      9 O           2.2363    2.4486   -0.2450 O.3     1  UNL1       -0.4214
     10 C           3.1424    3.5420   -0.3092 C.ar    1  UNL1        0.1461
     11 C           3.2709    4.4294    0.7658 C.ar    1  UNL1       -0.0184
     12 C           4.2104    5.4622    0.7314 C.ar    1  UNL1       -0.0582
     13 C           5.0266    5.6179   -0.3837 C.ar    1  UNL1       -0.0608
     14 C           4.9003    4.7335   -1.4608 C.ar    1  UNL1       -0.0440
     15 C           3.9664    3.6775   -1.4493 C.ar    1  UNL1        0.1054
     16 C           3.8963    2.7471   -2.6345 C.2     1  UNL1        0.3901
     17 O           4.4033    3.1704   -3.7334 O.co2   1  UNL1       -0.2405
     18 O           3.3682    1.5952   -2.4644 O.co2   1  UNL1       -0.2405
     19 O           2.2619   -0.2836    0.1057 O.3     1  UNL1       -0.5059
     20 H          -2.9538    0.1773    0.4191 H       1  UNL1        0.0618
     21 H          -1.8687   -2.0423    0.1356 H       1  UNL1        0.0619
     22 H           0.6045   -2.1999    0.0215 H       1  UNL1        0.0654
     23 H          -1.5703    2.2176    0.5678 H       1  UNL1        0.0627
     24 H           2.6572    4.3189    1.6550 H       1  UNL1        0.0654
     25 H           4.2881    6.1452    1.5684 H       1  UNL1        0.0619
     26 H           5.7634    6.4133   -0.4148 H       1  UNL1        0.0618
     27 H           5.5553    4.8556   -2.3256 H       1  UNL1        0.0627
     28 H           2.5972    0.1989   -0.7026 H       1  UNL1        0.2922
@<TRIPOS>BOND
     1     1     6   ar
     2     1     2   ar
     3     1    20    1
     4     2     3   ar
     5     2    21    1
     6     3     4   ar
     7     3    22    1
     8     4     5   ar
     9     4    19    1
    10     5     6   ar
    11     5     7    1
    12     6    23    1
    13     7     8    2
    14     7     9    1
    15     9    10    1
    16    10    15   ar
    17    10    11   ar
    18    11    12   ar
    19    11    24    1
    20    12    13   ar
    21    12    25    1
    22    13    14   ar
    23    13    26    1
    24    14    15   ar
    25    14    27    1
    26    15    16    1
    27    16    17   ar
    28    16    18   ar
    29    19    28    1
