@<TRIPOS>MOLECULE
ZINC01812122
 59 60 0 0 0
SMALL
GASTEIGER

@<TRIPOS>ATOM
      1 C           1.8553   -1.8717   -0.6796 C.3     1  UNL1       -0.0244
      2 C           0.5202   -2.3760   -1.2077 C.3     1  UNL1       -0.0331
      3 N           0.6307   -3.1182   -2.5552 N.4     1  UNL1        0.2432
      4 C           1.6038   -4.2979   -2.4192 C.3     1  UNL1       -0.0412
      5 C          -0.7662   -3.6358   -2.9888 C.3     1  UNL1       -0.0331
      6 C          -1.3075   -4.7693   -2.1259 C.3     1  UNL1       -0.0244
      7 C           1.2051   -2.2079   -3.6897 C.3     1  UNL1        0.0047
      8 C           0.4008   -0.9430   -4.0266 C.3     1  UNL1        0.1322
      9 O           0.2438    0.0249   -2.9766 O.3     1  UNL1       -0.4570
     10 C           1.3108    0.8492   -2.7292 C.2     1  UNL1        0.3442
     11 O           2.4598    0.5193   -3.0102 O.2     1  UNL1       -0.2472
     12 C           0.8504    2.2834   -2.2773 C.3     1  UNL1        0.1901
     13 C           1.4201    2.7455   -0.9269 C.ar    1  UNL1       -0.0051
     14 C           0.7383    3.7412   -0.1828 C.ar    1  UNL1       -0.0553
     15 C           1.2461    4.2507    1.0111 C.ar    1  UNL1       -0.0614
     16 C           2.4386    3.7705    1.5175 C.ar    1  UNL1       -0.0617
     17 C           3.1260    2.7733    0.8226 C.ar    1  UNL1       -0.0614
     18 C           2.6308    2.2774   -0.3943 C.ar    1  UNL1       -0.0553
     19 C           1.2658    3.2252   -3.4812 C.3     1  UNL1        0.0026
     20 C           0.6654    2.7123   -4.8184 C.3     1  UNL1       -0.0467
     21 C           0.9750    3.6045   -6.0107 C.3     1  UNL1       -0.0527
     22 C           0.5069    5.0224   -5.7496 C.3     1  UNL1       -0.0530
     23 C           1.1953    5.5766   -4.5135 C.3     1  UNL1       -0.0527
     24 C           0.9209    4.7169   -3.2770 C.3     1  UNL1       -0.0467
     25 O          -0.5809    2.2587   -2.1085 O.3     1  UNL1       -0.3730
     26 H           2.4663   -2.6979   -0.3024 H       1  UNL1        0.0281
     27 H           1.6878   -1.1824    0.1543 H       1  UNL1        0.0281
     28 H           2.4490   -1.3429   -1.4219 H       1  UNL1        0.0281
     29 H           0.1037   -3.0786   -0.4804 H       1  UNL1        0.0812
     30 H          -0.2050   -1.5673   -1.3278 H       1  UNL1        0.0812
     31 H           1.3394   -4.8741   -1.5290 H       1  UNL1        0.0778
     32 H           1.5302   -4.9104   -3.3227 H       1  UNL1        0.0778
     33 H           2.6205   -3.9073   -2.3183 H       1  UNL1        0.0778
     34 H          -1.4532   -2.7839   -2.9620 H       1  UNL1        0.0812
     35 H          -0.6722   -3.9819   -4.0245 H       1  UNL1        0.0812
     36 H          -1.4504   -4.4689   -1.0850 H       1  UNL1        0.0281
     37 H          -2.2850   -5.0830   -2.5087 H       1  UNL1        0.0281
     38 H          -0.6645   -5.6536   -2.1507 H       1  UNL1        0.0281
     39 H           2.2371   -1.9684   -3.4262 H       1  UNL1        0.0849
     40 H           1.2393   -2.8405   -4.5868 H       1  UNL1        0.0849
     41 H           0.8769   -0.4568   -4.8869 H       1  UNL1        0.0752
     42 H          -0.6060   -1.2042   -4.3662 H       1  UNL1        0.0752
     43 H          -0.2045    4.1523   -0.5469 H       1  UNL1        0.0621
     44 H           0.7045    5.0414    1.5413 H       1  UNL1        0.0618
     45 H           2.8408    4.1641    2.4474 H       1  UNL1        0.0618
     46 H           4.0660    2.3968    1.2192 H       1  UNL1        0.0618
     47 H           3.2261    1.5250   -0.9045 H       1  UNL1        0.0621
     48 H           2.3607    3.1715   -3.5805 H       1  UNL1        0.0337
     49 H           1.0681    1.7263   -5.0608 H       1  UNL1        0.0269
     50 H          -0.4218    2.6005   -4.7262 H       1  UNL1        0.0269
     51 H           0.4834    3.2034   -6.9038 H       1  UNL1        0.0265
     52 H           2.0544    3.5936   -6.2069 H       1  UNL1        0.0265
     53 H          -0.5806    5.0330   -5.6084 H       1  UNL1        0.0265
     54 H           0.7288    5.6518   -6.6170 H       1  UNL1        0.0265
     55 H           0.8510    6.5984   -4.3261 H       1  UNL1        0.0265
     56 H           2.2781    5.6283   -4.6862 H       1  UNL1        0.0265
     57 H          -0.1335    4.8354   -3.0031 H       1  UNL1        0.0269
     58 H           1.5160    5.1262   -2.4521 H       1  UNL1        0.0269
     59 H          -0.9704    3.0014   -2.5956 H       1  UNL1        0.2113
@<TRIPOS>UNITY_ATOM_ATTR
3 1
charge 1
@<TRIPOS>BOND
     1     1     2    1
     2     1    26    1
     3     1    27    1
     4     1    28    1
     5     2     3    1
     6     2    29    1
     7     2    30    1
     8     3     4    1
     9     3     5    1
    10     3     7    1
    11     4    31    1
    12     4    32    1
    13     4    33    1
    14     5     6    1
    15     5    34    1
    16     5    35    1
    17     6    36    1
    18     6    37    1
    19     6    38    1
    20     7     8    1
    21     7    39    1
    22     7    40    1
    23     8     9    1
    24     8    41    1
    25     8    42    1
    26     9    10    1
    27    10    11    2
    28    12    10    1
    29    12    13    1
    30    12    19    1
    31    12    25    1
    32    13    18   ar
    33    13    14   ar
    34    14    15   ar
    35    14    43    1
    36    15    16   ar
    37    15    44    1
    38    16    17   ar
    39    16    45    1
    40    17    18   ar
    41    17    46    1
    42    18    47    1
    43    19    24    1
    44    19    20    1
    45    19    48    1
    46    20    21    1
    47    20    49    1
    48    20    50    1
    49    21    22    1
    50    21    51    1
    51    21    52    1
    52    22    23    1
    53    22    53    1
    54    22    54    1
    55    23    24    1
    56    23    55    1
    57    23    56    1
    58    24    57    1
    59    24    58    1
    60    25    59    1
