@<TRIPOS>MOLECULE
ZINC03830405
 42 45 0 0 0
SMALL
GASTEIGER

@<TRIPOS>ATOM
      1 C           3.3072    2.7102   -5.3547 C.3     1  UNL1       -0.0140
      2 C           3.3755    2.1707   -3.9724 C.ar    1  UNL1        0.0999
      3 N           4.2615    2.5349   -3.0690 N.ar    1  UNL1       -0.1457
      4 N           4.0794    1.8690   -1.8694 N.ar    1  UNL1       -0.1348
      5 C           3.0723    1.0204   -1.9157 C.ar    1  UNL1        0.1588
      6 S           2.2477    0.9962   -3.4204 S.2     1  UNL1       -0.0445
      7 S           2.5753    0.0784   -0.5259 S.3     1  UNL1       -0.0925
      8 C           4.2080   -0.4654    0.0588 C.3     1  UNL1        0.0244
      9 C           4.1124   -1.4147    1.2491 C.2     1  UNL1       -0.0210
     10 CA          3.6581   -2.6972    1.1762 C.2     1  UNL1        0.1271
     11 N           3.5781   -3.4479    2.3202 N.am    1  UNL1       -0.2488
     12 C           3.5806   -2.8795    3.6441 C.3     1  UNL1        0.1042
     13 H           2.6718   -2.3145    3.8789 H       1  UNL1        0.0644
     14 CA          3.5648   -4.3316    4.1919 C.3     1  UNL1        0.1284
     15 HA          2.6878   -4.5350    4.8173 H       1  UNL1        0.0622
     16 C           3.3728   -4.7341    2.6876 C.2     1  UNL1        0.2440
     17 O           3.2425   -5.7905    2.1152 O.2     1  UNL1       -0.2731
     18 N           4.8203   -4.8322    4.8432 N.am    1  UNL1       -0.3002
     19 C           4.8800   -6.0476    5.4822 C.2     1  UNL1        0.2353
     20 O           3.9029   -6.7714    5.6587 O.2     1  UNL1       -0.2738
     21 C           6.2413   -6.4434    5.9886 C.3     1  UNL1        0.1209
     22 N           6.6159   -5.6195    7.1072 N.ar    1  UNL1       -0.2232
     23 C           6.3404   -5.7916    8.4226 C.ar    1  UNL1        0.1386
     24 N           6.9089   -4.8174    9.0986 N.ar    1  UNL1       -0.1169
     25 N           7.5459   -4.0379    8.1646 N.ar    1  UNL1       -0.0233
     26 N           7.3802   -4.5276    6.9426 N.ar    1  UNL1       -0.0437
     27 S           5.1205   -1.9435    3.8385 S.3     1  UNL1       -0.1311
     28 C           4.6670   -0.7797    2.5153 C.3     1  UNL1        0.0196
     29 C           3.2070   -3.3299   -0.2056 C.2     1  UNL1        0.4006
     30 O           3.9484   -3.0550   -1.1944 O.co2   1  UNL1       -0.2392
     31 OXT         2.1273   -3.9846   -0.1615 O.co2   1  UNL1       -0.2392
     32 H           3.5265    1.9301   -6.0902 H       1  UNL1        0.0298
     33 H           2.3176    3.1266   -5.5689 H       1  UNL1        0.0298
     34 H           4.0403    3.5130   -5.4895 H       1  UNL1        0.0298
     35 H           4.8153   -0.8851   -0.7469 H       1  UNL1        0.0427
     36 H           4.7313    0.4489    0.3671 H       1  UNL1        0.0427
     37 H           5.6550   -4.2528    4.7649 H       1  UNL1        0.1496
     38 H           6.2228   -7.4854    6.3254 H       1  UNL1        0.0606
     39 H           6.9953   -6.3504    5.2006 H       1  UNL1        0.0606
     40 H           5.7502   -6.6016    8.8293 H       1  UNL1        0.1063
     41 H           3.9368   -0.0666    2.9113 H       1  UNL1        0.0423
     42 H           5.5847   -0.2254    2.2882 H       1  UNL1        0.0423
@<TRIPOS>BOND
     1     1     2    1
     2     1    32    1
     3     1    33    1
     4     1    34    1
     5     2     6   ar
     6     2     3   ar
     7     3     4   ar
     8     4     5   ar
     9     5     6   ar
    10     5     7    1
    11     7     8    1
    12     8     9    1
    13     8    35    1
    14     8    36    1
    15     9    28    1
    16     9    10    2
    17    10    11    1
    18    10    29    1
    19    11    16   am
    20    11    12    1
    21    12    13    1
    22    12    14    1
    23    12    27    1
    24    14    16    1
    25    16    17    2
    26    18    19   am
    27    18    37    1
    28    19    20    2
    29    19    21    1
    30    21    22    1
    31    21    38    1
    32    21    39    1
    33    22    26   ar
    34    22    23   ar
    35    23    24   ar
    36    23    40    1
    37    24    25   ar
    38    25    26   ar
    39    27    28    1
    40    28    41    1
    41    28    42    1
    42    29    30   ar
    43    29    31   ar
    44    14    18    1
    45    14    15    1
