@<TRIPOS>MOLECULE
ZINC00538564
 43 44 0 0 0
SMALL
GASTEIGER

@<TRIPOS>ATOM
      1 C           0.6242    2.6343    0.1262 C.3     1  UNL1       -0.0259
      2 C           0.2258    1.3878    0.9592 C.3     1  UNL1        0.1583
      3 C           1.2289    0.2849    0.5886 C.3     1  UNL1        0.1078
      4 S           1.1718   -1.2440    1.4833 S.O2    1  UNL1        0.0001
      5 O          -0.1886   -1.7370    1.5404 O.2     1  UNL1       -0.1693
      6 O           2.2055   -2.0804    0.8881 O.2     1  UNL1       -0.1693
      7 C           1.6669   -1.0291    3.1962 C.ar    1  UNL1        0.0885
      8 C           0.6910   -0.7193    4.1565 C.ar    1  UNL1       -0.0342
      9 C           0.9854   -0.8370    5.5194 C.ar    1  UNL1       -0.0247
     10 C           2.2375   -1.2919    5.9178 C.ar    1  UNL1        0.1235
     11 C           3.2088   -1.6180    4.9778 C.ar    1  UNL1       -0.0247
     12 C           2.9271   -1.4864    3.6125 C.ar    1  UNL1       -0.0342
     13 F           2.4985   -1.4522    7.2218 F       1  UNL1       -0.2055
     14 C          -1.2842    0.9632    0.6561 C.2     1  UNL1        0.2503
     15 O          -1.5540    0.0026   -0.0602 O.2     1  UNL1       -0.2723
     16 N          -2.2713    1.8277    1.1299 N.am    1  UNL1       -0.2831
     17 C          -3.6681    1.5228    1.2492 C.ar    1  UNL1        0.0341
     18 C          -4.5819    2.5447    0.9616 C.ar    1  UNL1       -0.0392
     19 C          -5.9600    2.3803    1.1883 C.ar    1  UNL1       -0.0421
     20 C          -6.4769    1.2033    1.7474 C.ar    1  UNL1        0.0635
     21 C          -5.5855    0.1516    2.0364 C.ar    1  UNL1        0.0739
     22 C          -4.1816    0.3196    1.7594 C.ar    1  UNL1       -0.0276
     23 C          -6.0696   -1.1364    2.6823 C.3     1  UNL1        0.4187
     24 F          -7.4207   -1.2378    2.8121 F       1  UNL1       -0.1659
     25 F          -5.6932   -2.2427    1.9886 F       1  UNL1       -0.1659
     26 F          -5.5752   -1.2913    3.9420 F       1  UNL1       -0.1659
     27 C          -7.9070    1.1663    2.0158 C.1     1  UNL1        0.0997
     28 N          -9.0418    1.1993    2.2353 N.1     1  UNL1       -0.1909
     29 O           0.4679    1.7420    2.3186 O.3     1  UNL1       -0.3780
     30 H           0.5886    2.4503   -0.9527 H       1  UNL1        0.0263
     31 H           1.6478    2.9537    0.3764 H       1  UNL1        0.0263
     32 H          -0.0119    3.4977    0.3474 H       1  UNL1        0.0263
     33 H           1.0879    0.0027   -0.4648 H       1  UNL1        0.0538
     34 H           2.2641    0.6426    0.6770 H       1  UNL1        0.0538
     35 H          -0.3155   -0.4416    3.8542 H       1  UNL1        0.0637
     36 H           0.2316   -0.6257    6.2728 H       1  UNL1        0.0647
     37 H           4.1617   -2.0186    5.3139 H       1  UNL1        0.0647
     38 H           3.6707   -1.8161    2.8899 H       1  UNL1        0.0637
     39 H          -2.0550    2.8098    1.0221 H       1  UNL1        0.1549
     40 H          -4.2465    3.4825    0.5346 H       1  UNL1        0.0636
     41 H          -6.6352    3.1979    0.9317 H       1  UNL1        0.0631
     42 H          -3.4968   -0.4941    2.0137 H       1  UNL1        0.0642
     43 H           0.1648    2.6508    2.4829 H       1  UNL1        0.2109
@<TRIPOS>BOND
     1     1    30    1
     2     1    31    1
     3     1    32    1
     4     2    14    1
     5     2    29    1
     6     3     4    1
     7     3    33    1
     8     3    34    1
     9     4     5    2
    10     4     6    2
    11     4     7    1
    12     7    12   ar
    13     7     8   ar
    14     8     9   ar
    15     8    35    1
    16     9    10   ar
    17     9    36    1
    18    10    11   ar
    19    10    13    1
    20    11    12   ar
    21    11    37    1
    22    12    38    1
    23    14    15    2
    24    14    16   am
    25    16    17    1
    26    16    39    1
    27    17    22   ar
    28    17    18   ar
    29    18    19   ar
    30    18    40    1
    31    19    20   ar
    32    19    41    1
    33    20    21   ar
    34    20    27    1
    35    21    22   ar
    36    21    23    1
    37    22    42    1
    38    23    24    1
    39    23    25    1
    40    23    26    1
    41    27    28    3
    42    29    43    1
    43     2     3    1
    44     2     1    1
