@<TRIPOS>MOLECULE
ZINC00057524
 42 43 0 0 0
SMALL
GASTEIGER

@<TRIPOS>ATOM
      1 C           0.6572   -0.8653   -0.1105 C.3     1  UNL1       -0.0433
      2 N           0.2978   -0.5901   -1.5366 N.4     1  UNL1        0.2318
      3 C           0.6516   -1.7639   -2.4017 C.3     1  UNL1       -0.0433
      4 C          -1.1151   -0.1101   -1.7928 C.3     1  UNL1       -0.0193
      5 C          -1.5052    1.2051   -1.0708 C.3     1  UNL1        0.0417
      6 N          -0.8630    2.5074   -1.3464 N.3     1  UNL1       -0.2663
      7 C          -1.3675    3.5646   -0.4381 C.3     1  UNL1        0.0266
      8 C          -1.2749    3.3629    1.0706 C.ar    1  UNL1       -0.0333
      9 C          -2.1952    4.0252    1.8984 C.ar    1  UNL1       -0.0573
     10 C          -2.1072    3.9399    3.2892 C.ar    1  UNL1       -0.0615
     11 C          -1.0889    3.2001    3.8849 C.ar    1  UNL1       -0.0617
     12 C          -0.1673    2.5338    3.0953 C.ar    1  UNL1       -0.0615
     13 C          -0.2724    2.6101    1.6998 C.ar    1  UNL1       -0.0573
     14 C           0.5093    2.5563   -1.7216 C.3     1  UNL1        0.1451
     15 C           1.5852    3.0397   -0.8708 C.2     1  UNL1       -0.0425
     16 C           2.8515    2.6362   -1.0864 C.2     1  UNL1       -0.0611
     17 C           3.1840    1.8997   -2.2938 C.2     1  UNL1       -0.0484
     18 C           2.2102    1.6842   -3.1909 C.2     1  UNL1       -0.0089
     19 N           0.8743    1.9327   -2.9027 N.pl3   1  UNL1       -0.3257
     20 H           0.1153   -1.7532    0.2253 H       1  UNL1        0.0777
     21 H           0.4011   -0.0058    0.5026 H       1  UNL1        0.0777
     22 H           1.7380   -1.0297   -0.0627 H       1  UNL1        0.0777
     23 H           0.1007   -2.6376   -2.0391 H       1  UNL1        0.0777
     24 H           0.3788   -1.5358   -3.4342 H       1  UNL1        0.0777
     25 H           1.7299   -1.9289   -2.3271 H       1  UNL1        0.0777
     26 H          -1.2304    0.0074   -2.8755 H       1  UNL1        0.0827
     27 H          -1.7770   -0.9182   -1.4591 H       1  UNL1        0.0827
     28 H          -2.5721    1.3434   -1.2962 H       1  UNL1        0.0480
     29 H          -1.4739    0.9805   -0.0016 H       1  UNL1        0.0480
     30 H          -0.9103    4.5308   -0.6870 H       1  UNL1        0.0476
     31 H          -2.4312    3.6912   -0.6849 H       1  UNL1        0.0476
     32 H          -2.9944    4.6289    1.4655 H       1  UNL1        0.0621
     33 H          -2.8285    4.4615    3.9152 H       1  UNL1        0.0618
     34 H          -1.0100    3.1540    4.9677 H       1  UNL1        0.0618
     35 H           0.6342    1.9681    3.5481 H       1  UNL1        0.0618
     36 H           0.4690    2.0707    1.1353 H       1  UNL1        0.0621
     37 H           1.3758    3.7109   -0.0467 H       1  UNL1        0.0608
     38 H           3.6594    2.9523   -0.4334 H       1  UNL1        0.0616
     39 H           4.2236    1.6662   -2.4954 H       1  UNL1        0.0630
     40 H           2.4019    1.2826   -4.1822 H       1  UNL1        0.0778
     41 H           0.3597    2.3348   -3.6931 H       1  UNL1        0.1477
     42 H           0.8854    0.2007   -1.8499 H       1  UNL1        0.2028
@<TRIPOS>UNITY_ATOM_ATTR
2 1
charge 1
@<TRIPOS>BOND
     1     1     2    1
     2     1    20    1
     3     1    21    1
     4     1    22    1
     5     2     3    1
     6     2     4    1
     7     2    42    1
     8     3    23    1
     9     3    24    1
    10     3    25    1
    11     4     5    1
    12     4    26    1
    13     4    27    1
    14     5     6    1
    15     5    28    1
    16     5    29    1
    17     6     7    1
    18     6    14    1
    19     7     8    1
    20     7    30    1
    21     7    31    1
    22     8    13   ar
    23     8     9   ar
    24     9    10   ar
    25     9    32    1
    26    10    11   ar
    27    10    33    1
    28    11    12   ar
    29    11    34    1
    30    12    13   ar
    31    12    35    1
    32    13    36    1
    33    14    19    1
    34    14    15    1
    35    15    16    2
    36    15    37    1
    37    16    17    1
    38    16    38    1
    39    17    18    2
    40    17    39    1
    41    18    19    1
    42    18    40    1
    43    19    41    1
