@<TRIPOS>MOLECULE
ZINC03008621
 25 24 0 0 0
SMALL
GASTEIGER

@<TRIPOS>ATOM
      1 C           1.0889    1.9972    1.5865 C.3     1  UNL1       -0.0653
      2 C           0.5291    1.5292    0.2514 C.3     1  UNL1       -0.0552
      3 C           1.0739    2.3670   -0.9090 C.3     1  UNL1       -0.0402
      4 C           0.5834    1.8986   -2.2913 C.3     1  UNL1        0.0607
      5 C          -0.9483    1.9214   -2.4689 C.3     1  UNL1       -0.0402
      6 C          -1.5967    3.2931   -2.2551 C.3     1  UNL1       -0.0552
      7 C          -3.1019    3.2320   -2.4757 C.3     1  UNL1       -0.0653
      8 C           1.2736    2.6439   -3.4650 C.2     1  UNL1        0.3590
      9 O           0.8912    2.2935   -4.6187 O.co2   1  UNL1       -0.2461
     10 O           2.1544    3.4893   -3.1480 O.co2   1  UNL1       -0.2461
     11 H           2.1770    1.8836    1.6189 H       1  UNL1        0.0230
     12 H           0.6611    1.4069    2.4028 H       1  UNL1        0.0230
     13 H           0.8465    3.0495    1.7658 H       1  UNL1        0.0230
     14 H           0.7911    0.4752    0.1017 H       1  UNL1        0.0263
     15 H          -0.5623    1.5936    0.2924 H       1  UNL1        0.0263
     16 H           0.8217    3.4230   -0.7528 H       1  UNL1        0.0273
     17 H           2.1705    2.3132   -0.8828 H       1  UNL1        0.0273
     18 H           0.9007    0.8518   -2.4060 H       1  UNL1        0.0415
     19 H          -1.2113    1.5609   -3.4716 H       1  UNL1        0.0273
     20 H          -1.4008    1.2006   -1.7770 H       1  UNL1        0.0273
     21 H          -1.4117    3.6463   -1.2356 H       1  UNL1        0.0263
     22 H          -1.1657    4.0310   -2.9412 H       1  UNL1        0.0263
     23 H          -3.5592    2.4462   -1.8661 H       1  UNL1        0.0230
     24 H          -3.5648    4.1851   -2.2013 H       1  UNL1        0.0230
     25 H          -3.3358    3.0318   -3.5261 H       1  UNL1        0.0230
@<TRIPOS>BOND
     1     1     2    1
     2     1    11    1
     3     1    12    1
     4     1    13    1
     5     2     3    1
     6     2    14    1
     7     2    15    1
     8     3     4    1
     9     3    16    1
    10     3    17    1
    11     4     5    1
    12     4     8    1
    13     4    18    1
    14     5     6    1
    15     5    19    1
    16     5    20    1
    17     6     7    1
    18     6    21    1
    19     6    22    1
    20     7    23    1
    21     7    24    1
    22     7    25    1
    23     8     9   ar
    24     8    10   ar
