@<TRIPOS>MOLECULE
ZINC00001115
 37 37 0 0 0
SMALL
GASTEIGER

@<TRIPOS>ATOM
      1 C           1.4500   -0.1653   -0.0102 C.ar    1  UNL1       -0.0568
      2 C           0.9170    1.1314    0.0520 C.ar    1  UNL1       -0.0404
      3 C          -0.4652    1.3595    0.1222 C.ar    1  UNL1        0.0298
      4 C          -1.2924    0.2294    0.0876 C.ar    1  UNL1       -0.0404
      5 C          -0.7728   -1.0652    0.0031 C.ar    1  UNL1       -0.0568
      6 C           0.6075   -1.2776   -0.0304 C.ar    1  UNL1       -0.0472
      7 C           1.1507   -2.6838   -0.0613 C.3     1  UNL1       -0.0272
      8 C           1.3748   -3.3158    1.3203 C.3     1  UNL1       -0.0388
      9 C           0.1497   -3.4218    2.2294 C.3     1  UNL1        0.0495
     10 C          -1.0422   -4.2592    1.7612 C.2     1  UNL1        0.3560
     11 O          -2.0368   -4.2284    2.5425 O.co2   1  UNL1       -0.2464
     12 N          -1.0083    2.6322    0.2541 N.pl3   1  UNL1       -0.3276
     13 C          -0.4125    3.7972   -0.4108 C.3     1  UNL1        0.0257
     14 C          -0.9370    3.9091   -1.8427 C.3     1  UNL1        0.0383
     15 CL         -0.2920    5.3663   -2.6437 Cl      1  UNL1       -0.1238
     16 C          -2.0312    2.8647    1.2878 C.3     1  UNL1        0.0257
     17 C          -1.5018    2.7040    2.7172 C.3     1  UNL1        0.0383
     18 CL         -0.2479    3.9137    3.1165 Cl      1  UNL1       -0.1238
     19 H           2.5288   -0.2981   -0.0264 H       1  UNL1        0.0621
     20 H           1.6206    1.9555    0.1072 H       1  UNL1        0.0636
     21 H          -2.3743    0.3275    0.1088 H       1  UNL1        0.0636
     22 H          -1.4521   -1.9172   -0.0149 H       1  UNL1        0.0621
     23 H           0.5002   -3.3097   -0.6821 H       1  UNL1        0.0313
     24 H           2.1133   -2.6731   -0.5919 H       1  UNL1        0.0313
     25 H           1.7898   -4.3202    1.1702 H       1  UNL1        0.0274
     26 H           2.1429   -2.7405    1.8525 H       1  UNL1        0.0274
     27 H           0.4788   -3.8657    3.1781 H       1  UNL1        0.0379
     28 H          -0.2152   -2.4182    2.4785 H       1  UNL1        0.0379
     29 H          -0.6763    4.7119    0.1345 H       1  UNL1        0.0475
     30 H           0.6818    3.7653   -0.4071 H       1  UNL1        0.0475
     31 H          -0.6509    3.0415   -2.4440 H       1  UNL1        0.0445
     32 H          -2.0298    3.9850   -1.8528 H       1  UNL1        0.0445
     33 H          -2.4549    3.8714    1.1707 H       1  UNL1        0.0475
     34 H          -2.8804    2.1886    1.1419 H       1  UNL1        0.0475
     35 H          -2.3186    2.8553    3.4295 H       1  UNL1        0.0445
     36 H          -1.0787    1.7106    2.8910 H       1  UNL1        0.0445
     37 O          -0.9068   -4.8749    0.6697 O.co2   1  UNL1       -0.2464
@<TRIPOS>BOND
     1     1     6   ar
     2     1     2   ar
     3     1    19    1
     4     2     3   ar
     5     2    20    1
     6     3     4   ar
     7     3    12    1
     8     4     5   ar
     9     4    21    1
    10     5     6   ar
    11     5    22    1
    12     6     7    1
    13     7     8    1
    14     7    23    1
    15     7    24    1
    16     8     9    1
    17     8    25    1
    18     8    26    1
    19     9    10    1
    20     9    27    1
    21     9    28    1
    22    10    11   ar
    23    10    37   ar
    24    12    13    1
    25    12    16    1
    26    13    14    1
    27    13    29    1
    28    13    30    1
    29    14    15    1
    30    14    31    1
    31    14    32    1
    32    16    17    1
    33    16    33    1
    34    16    34    1
    35    17    18    1
    36    17    35    1
    37    17    36    1
