@<TRIPOS>MOLECULE
ZINC03861770
 18 17 0 0 0
SMALL
GASTEIGER

@<TRIPOS>ATOM
      1 H           4.5712    1.3892    1.7087 H       1  UNL1        0.2546
      2 C           2.7025    0.7653    1.0878 C.cat   1  UNL1        0.3436
      3 N           2.1249    0.0761    0.0800 N.pl3   1  UNL1       -0.2917
      4 N           1.9489    1.4078    2.0403 N.pl3   1  UNL1       -0.2573
      5 C           0.4825    1.5005    2.0299 C.3     1  UNL1        0.0565
      6 C           2.6152    2.2476    3.0965 C.3     1  UNL1        0.1678
      7 C           3.6014    3.2116    2.4257 C.2     1  UNL1        0.3891
      8 O           3.0919    4.2134    1.8673 O.co2   1  UNL1       -0.2428
      9 H           1.1293    0.0676   -0.0545 H       1  UNL1        0.2546
     10 H           2.6969   -0.4048   -0.5964 H       1  UNL1        0.2546
     11 H           0.1024    1.1233    2.9839 H       1  UNL1        0.0620
     12 H           0.1895    2.5477    1.9066 H       1  UNL1        0.0620
     13 H           0.0280    0.9167    1.2301 H       1  UNL1        0.0620
     14 H           1.8585    2.8158    3.6486 H       1  UNL1        0.0776
     15 H           3.1086    1.5674    3.7986 H       1  UNL1        0.0776
     16 N           4.0438    0.7287    1.1027 N.pl3   1  UNL1       -0.2917
     17 H           4.6004    0.3333    0.3668 H       1  UNL1        0.2546
     18 O           4.7778    2.7353    2.3515 O.co2   1  UNL1       -0.2428
@<TRIPOS>BOND
     1     1    16    1
     2     2     3    1
     3     2     4    1
     4     2    16    2
     5     3     9    1
     6     3    10    1
     7     4     5    1
     8     4     6    1
     9     5    11    1
    10     5    12    1
    11     5    13    1
    12     6     7    1
    13     6    14    1
    14     6    15    1
    15     7     8   ar
    16     7    18   ar
    17    16    17    1
