@<TRIPOS>MOLECULE
ZINC00075008
 32 33 0 0 0
SMALL
GASTEIGER

@<TRIPOS>ATOM
      1 C          -0.1722    0.5413   -0.3817 C.3     1  UNL1       -0.0645
      2 C           0.4659    0.8621    0.9600 C.3     1  UNL1       -0.0426
      3 C           1.2125    2.1950    0.9722 C.3     1  UNL1        0.0624
      4 H           2.0390    2.1502    0.2495 H       1  UNL1        0.0417
      5 C           0.4067    3.4779    0.7298 C.3     1  UNL1        0.0114
      6 H           0.3217    3.6852   -0.3436 H       1  UNL1        0.0345
      7 C           1.3240    4.4943    1.3962 C.3     1  UNL1        0.0964
      8 O           1.8391    3.8289    2.5459 O.3     1  UNL1       -0.4641
      9 C           1.8412    2.4802    2.3177 C.2     1  UNL1        0.3106
     10 O           2.2846    1.6582    3.0996 O.2     1  UNL1       -0.2505
     11 C          -1.0030    3.4856    1.3613 C.3     1  UNL1       -0.0063
     12 C          -1.7394    4.7622    1.1136 C.2     1  UNL1        0.0276
     13 C          -2.0668    5.3676   -0.0821 C.2     1  UNL1        0.0200
     14 N          -2.6980    6.5481    0.2118 N.2     1  UNL1       -0.3539
     15 C          -2.8149    6.6954    1.5321 C.2     1  UNL1        0.0638
     16 N          -2.2644    5.6113    2.1056 N.pl3   1  UNL1       -0.2979
     17 C          -2.2827    5.4144    3.5580 C.3     1  UNL1        0.0063
     18 H          -0.9898    1.2256   -0.6186 H       1  UNL1        0.0230
     19 H          -0.5836   -0.4737   -0.3661 H       1  UNL1        0.0230
     20 H           0.5634    0.5953   -1.1901 H       1  UNL1        0.0230
     21 H          -0.2903    0.8265    1.7540 H       1  UNL1        0.0271
     22 H           1.1782    0.0605    1.1982 H       1  UNL1        0.0271
     23 H           2.1638    4.7754    0.7502 H       1  UNL1        0.0700
     24 H           0.8159    5.4095    1.7114 H       1  UNL1        0.0700
     25 H          -1.6226    2.6934    0.9307 H       1  UNL1        0.0330
     26 H          -0.9379    3.2818    2.4319 H       1  UNL1        0.0330
     27 H          -1.9096    5.1151   -1.1180 H       1  UNL1        0.0823
     28 H          -3.2780    7.5304    2.0442 H       1  UNL1        0.0982
     29 H          -1.7041    6.2146    4.0262 H       1  UNL1        0.0432
     30 H          -3.3203    5.4636    3.8989 H       1  UNL1        0.0432
     31 H          -1.8661    4.4499    3.8448 H       1  UNL1        0.0432
     32 H          -3.0435    7.2200   -0.4691 H       1  UNL1        0.1660
@<TRIPOS>BOND
     1     1     2    1
     2     1    18    1
     3     1    19    1
     4     1    20    1
     5     2     3    1
     6     2    21    1
     7     2    22    1
     8     3     4    1
     9     3     9    1
    10     3     5    1
    11     5     6    1
    12     5     7    1
    13     5    11    1
    14     7     8    1
    15     7    23    1
    16     7    24    1
    17     8     9    1
    18     9    10    2
    19    11    12    1
    20    11    25    1
    21    11    26    1
    22    12    16    1
    23    12    13    2
    24    13    14    1
    25    13    27    1
    26    14    15    2
    27    14    32    1
    28    15    16    1
    29    15    28    1
    30    16    17    1
    31    17    29    1
    32    17    30    1
    33    17    31    1
