@<TRIPOS>MOLECULE
ZINC03873156
 44 46 0 0 0
SMALL
GASTEIGER

@<TRIPOS>ATOM
      1 C           1.4024   -0.1552    0.1574 C.3     1  UNL1       -0.0471
      2 C           0.7039    0.2896    1.4346 C.3     1  UNL1        0.0206
      3 N           1.0355    1.6863    1.7592 N.ar    1  UNL1       -0.3436
      4 C           2.1351    1.9588    2.5578 C.ar    1  UNL1        0.0230
      5 C           2.5840    3.1655    2.9395 C.ar    1  UNL1        0.1263
      6 C           1.8281    4.3383    2.4657 C.ar    1  UNL1        0.2037
      7 O           2.0382    5.4978    2.8029 O.2     1  UNL1       -0.2863
      8 C           0.6922    4.0859    1.5424 C.ar    1  UNL1        0.0516
      9 C           0.3116    2.7677    1.2163 C.ar    1  UNL1        0.0904
     10 C          -0.7952    2.6393    0.3518 C.ar    1  UNL1        0.1711
     11 C          -1.5285    3.7329   -0.1690 C.ar    1  UNL1        0.1034
     12 C          -1.0850    5.0106    0.2029 C.ar    1  UNL1        0.1479
     13 C           0.0053    5.1970    1.0359 C.ar    1  UNL1       -0.0116
     14 F          -1.7589    6.1007   -0.2035 F       1  UNL1       -0.2034
     15 N          -2.6274    3.5378   -1.0042 N.pl3   1  UNL1       -0.3150
     16 C          -3.5704    2.4384   -0.7621 C.3     1  UNL1        0.0526
     17 C          -4.9893    3.0051   -0.5616 C.3     1  UNL1       -0.0173
     18 N          -5.3578    3.9397   -1.6911 N.4     1  UNL1        0.2312
     19 C          -4.3507    5.0731   -1.8643 C.3     1  UNL1       -0.0094
     20 H          -4.3901    5.6573   -0.9376 H       1  UNL1        0.0863
     21 C          -2.9435    4.4753   -2.0857 C.3     1  UNL1        0.0551
     22 C          -4.7948    5.9150   -3.0492 C.3     1  UNL1       -0.0202
     23 F          -1.1783    1.4147   -0.0551 F       1  UNL1       -0.2013
     24 C           3.8280    3.2480    3.8185 C.2     1  UNL1        0.3916
     25 O           4.5102    4.3050    3.7451 O.co2   1  UNL1       -0.2404
     26 O           4.0795    2.1996    4.4912 O.co2   1  UNL1       -0.2404
     27 H           1.1936    0.5168   -0.6809 H       1  UNL1        0.0247
     28 H           1.0757   -1.1618   -0.1222 H       1  UNL1        0.0247
     29 H           2.4883   -0.1816    0.2993 H       1  UNL1        0.0247
     30 H          -0.3752    0.1230    1.3811 H       1  UNL1        0.0489
     31 H           1.0275   -0.3679    2.2526 H       1  UNL1        0.0489
     32 H           2.6697    1.0690    2.8902 H       1  UNL1        0.0818
     33 H           0.3110    6.2060    1.3031 H       1  UNL1        0.0654
     34 H          -3.5548    1.7600   -1.6232 H       1  UNL1        0.0516
     35 H          -3.3346    1.8500    0.1303 H       1  UNL1        0.0516
     36 H          -5.7385    2.2084   -0.5493 H       1  UNL1        0.0829
     37 H          -5.0594    3.5886    0.3624 H       1  UNL1        0.0829
     38 H          -6.2902    4.3309   -1.5133 H       1  UNL1        0.2017
     39 H          -2.9251    3.9168   -3.0307 H       1  UNL1        0.0519
     40 H          -2.2011    5.2709   -2.2063 H       1  UNL1        0.0519
     41 H          -4.8261    5.3225   -3.9704 H       1  UNL1        0.0285
     42 H          -5.7930    6.3329   -2.8817 H       1  UNL1        0.0285
     43 H          -4.1027    6.7480   -3.2078 H       1  UNL1        0.0285
     44 H          -5.4114    3.3979   -2.5625 H       1  UNL1        0.2017
@<TRIPOS>UNITY_ATOM_ATTR
18 1
charge 1
@<TRIPOS>BOND
     1     1     2    1
     2     1    27    1
     3     1    28    1
     4     1    29    1
     5     2     3    1
     6     2    30    1
     7     2    31    1
     8     3     9   ar
     9     3     4   ar
    10     4     5   ar
    11     4    32    1
    12     5     6   ar
    13     5    24    1
    14     6     7    2
    15     6     8   ar
    16     8    13   ar
    17     8     9   ar
    18     9    10   ar
    19    10    11   ar
    20    10    23    1
    21    11    12   ar
    22    11    15    1
    23    12    13   ar
    24    12    14    1
    25    13    33    1
    26    15    21    1
    27    15    16    1
    28    16    17    1
    29    16    34    1
    30    16    35    1
    31    17    18    1
    32    17    36    1
    33    17    37    1
    34    18    19    1
    35    18    38    1
    36    18    44    1
    37    19    20    1
    38    19    21    1
    39    19    22    1
    40    21    39    1
    41    21    40    1
    42    22    41    1
    43    22    42    1
    44    22    43    1
    45    24    25   ar
    46    24    26   ar
