@<TRIPOS>MOLECULE
ZINC02021799
 46 47 0 0 0
SMALL
GASTEIGER

@<TRIPOS>ATOM
      1 C           0.3128    3.8308    1.9044 C.3     1  UNL1       -0.0245
      2 C           0.8766    3.5389    0.5239 C.3     1  UNL1       -0.0345
      3 N           2.3007    3.0526    0.5872 N.4     1  UNL1        0.2383
      4 C           2.9615    2.9419   -0.7613 C.3     1  UNL1       -0.0314
      5 C           2.7300    1.5001   -1.1517 C.3     1  UNL1       -0.0074
      6 C           2.9033    0.7327    0.1445 C.3     1  UNL1       -0.0034
      7 C           2.4909    1.6931    1.2625 C.3     1  UNL1       -0.0048
      8 H           1.5285    1.3845    1.6828 H       1  UNL1        0.0867
      9 C           3.5496    1.7919    2.3806 C.3     1  UNL1        0.0548
     10 N           3.1778    2.7430    3.4185 N.am    1  UNL1       -0.3058
     11 C           3.4758    4.0881    3.3430 C.2     1  UNL1        0.2514
     12 O           3.9027    4.5355    2.2808 O.2     1  UNL1       -0.2699
     13 C           3.1022    4.9375    4.5349 C.ar    1  UNL1        0.1208
     14 C           2.7807    6.2972    4.3160 C.ar    1  UNL1        0.1358
     15 C           2.3289    7.0809    5.3775 C.ar    1  UNL1       -0.0179
     16 C           2.2141    6.5340    6.6512 C.ar    1  UNL1       -0.0407
     17 C           2.5619    5.2009    6.8997 C.ar    1  UNL1        0.0604
     18 C           3.0175    4.3832    5.8482 C.ar    1  UNL1        0.1496
     19 O           3.5019    3.1037    5.9758 O.3     1  UNL1       -0.4931
     20 C           2.8691    2.1850    6.8600 C.3     1  UNL1        0.0789
     21 BR          2.4026    4.6885    8.7233 Br      1  UNL1       -0.0465
     22 O           2.8204    6.7972    3.0363 O.3     1  UNL1       -0.4942
     23 C           3.2055    8.1682    2.9197 C.3     1  UNL1        0.0788
     24 H           0.3471    2.9644    2.5711 H       1  UNL1        0.0281
     25 H          -0.7383    4.1258    1.8202 H       1  UNL1        0.0281
     26 H           0.8460    4.6553    2.3800 H       1  UNL1        0.0281
     27 H           0.2861    2.7757    0.0073 H       1  UNL1        0.0812
     28 H           0.8779    4.4586   -0.0690 H       1  UNL1        0.0812
     29 H           4.0256    3.1546   -0.6135 H       1  UNL1        0.0814
     30 H           2.5273    3.6654   -1.4558 H       1  UNL1        0.0814
     31 H           1.7109    1.3651   -1.5372 H       1  UNL1        0.0319
     32 H           3.4254    1.1607   -1.9246 H       1  UNL1        0.0319
     33 H           2.2777   -0.1675    0.1521 H       1  UNL1        0.0322
     34 H           3.9412    0.4007    0.2601 H       1  UNL1        0.0322
     35 H           3.6728    0.8191    2.8667 H       1  UNL1        0.0518
     36 H           4.5222    2.0856    1.9658 H       1  UNL1        0.0518
     37 H           2.8642    2.3839    4.3115 H       1  UNL1        0.1492
     38 H           2.0378    8.1190    5.2408 H       1  UNL1        0.0655
     39 H           1.8627    7.1742    7.4600 H       1  UNL1        0.0631
     40 H           3.3226    2.2265    7.8518 H       1  UNL1        0.0660
     41 H           1.7823    2.3074    6.8821 H       1  UNL1        0.0660
     42 H           3.0739    1.1822    6.4744 H       1  UNL1        0.0660
     43 H           2.3580    8.8259    3.1391 H       1  UNL1        0.0660
     44 H           4.0637    8.4075    3.5575 H       1  UNL1        0.0660
     45 H           3.4999    8.3469    1.8808 H       1  UNL1        0.0660
     46 H           2.8477    3.7651    1.1209 H       1  UNL1        0.2037
@<TRIPOS>UNITY_ATOM_ATTR
3 1
charge 1
@<TRIPOS>BOND
     1     1     2    1
     2     1    24    1
     3     1    25    1
     4     1    26    1
     5     2     3    1
     6     2    27    1
     7     2    28    1
     8     3     7    1
     9     3     4    1
    10     3    46    1
    11     4     5    1
    12     4    29    1
    13     4    30    1
    14     5     6    1
    15     5    31    1
    16     5    32    1
    17     6     7    1
    18     6    33    1
    19     6    34    1
    20     7     8    1
    21     7     9    1
    22     9    10    1
    23     9    35    1
    24     9    36    1
    25    10    11   am
    26    10    37    1
    27    11    12    2
    28    11    13    1
    29    13    18   ar
    30    13    14   ar
    31    14    15   ar
    32    14    22    1
    33    15    16   ar
    34    15    38    1
    35    16    17   ar
    36    16    39    1
    37    17    18   ar
    38    17    21    1
    39    18    19    1
    40    19    20    1
    41    20    40    1
    42    20    41    1
    43    20    42    1
    44    22    23    1
    45    23    43    1
    46    23    44    1
    47    23    45    1
