@<TRIPOS>MOLECULE
ZINC00601229
 52 55 0 0 0
SMALL
GASTEIGER

@<TRIPOS>ATOM
      1 C           2.5959   -0.3669   -0.4214 C.3     1  UNL1       -0.0431
      2 N           1.3910    0.0402    0.3947 N.4     1  UNL1        0.2331
      3 C           0.6743    1.1987   -0.2565 C.3     1  UNL1       -0.0321
      4 C          -0.6987    1.4491    0.3468 C.3     1  UNL1       -0.0106
      5 C          -1.7879    0.6588   -0.3742 C.3     1  UNL1       -0.0254
      6 C          -1.7886   -0.8660   -0.1628 C.3     1  UNL1        0.0614
      7 H          -2.1599   -1.0392    0.8557 H       1  UNL1        0.0548
      8 C          -0.4271   -1.5707   -0.2731 C.3     1  UNL1        0.0100
      9 C           0.5512   -1.1466    0.8046 C.3     1  UNL1       -0.0302
     10 N          -2.7285   -1.4979   -1.1066 N.ar    1  UNL1       -0.2254
     11 C          -3.6958   -2.3857   -0.6402 C.ar    1  UNL1        0.2753
     12 O          -3.8398   -2.6654    0.5476 O.2     1  UNL1       -0.2655
     13 C          -4.5743   -2.9915   -1.6574 C.ar    1  UNL1        0.0498
     14 C          -5.5819   -3.8851   -1.2718 C.ar    1  UNL1       -0.0487
     15 C          -6.4196   -4.4445   -2.2356 C.ar    1  UNL1       -0.0610
     16 C          -6.2808   -4.0788   -3.5728 C.ar    1  UNL1       -0.0611
     17 C          -5.2788   -3.1845   -3.9567 C.ar    1  UNL1       -0.0521
     18 C          -4.3979   -2.6687   -2.9998 C.ar    1  UNL1        0.0106
     19 C          -3.2375   -1.8174   -3.3387 C.ar    1  UNL1        0.0738
     20 N          -2.4667   -1.2824   -2.4375 N.ar    1  UNL1       -0.1720
     21 C          -2.8729   -1.5612   -4.7968 C.3     1  UNL1        0.0171
     22 C          -2.0581   -2.6732   -5.4270 C.ar    1  UNL1       -0.0414
     23 C          -0.7847   -2.9956   -4.9315 C.ar    1  UNL1       -0.0568
     24 C           0.0011   -3.9613   -5.5683 C.ar    1  UNL1       -0.0431
     25 C          -0.4815   -4.6162   -6.6983 C.ar    1  UNL1        0.0410
     26 C          -1.7522   -4.3225   -7.1894 C.ar    1  UNL1       -0.0431
     27 C          -2.5363   -3.3555   -6.5564 C.ar    1  UNL1       -0.0568
     28 CL          0.5069   -5.7701   -7.5046 Cl      1  UNL1       -0.0835
     29 H           2.2530   -0.7899   -1.3692 H       1  UNL1        0.0777
     30 H           3.2053    0.5247   -0.5914 H       1  UNL1        0.0777
     31 H           3.1658   -1.1014    0.1531 H       1  UNL1        0.0777
     32 H           1.3207    2.0702   -0.0979 H       1  UNL1        0.0814
     33 H           0.6187    1.0028   -1.3326 H       1  UNL1        0.0814
     34 H          -0.9326    2.5126    0.2078 H       1  UNL1        0.0317
     35 H          -0.7211    1.2712    1.4272 H       1  UNL1        0.0317
     36 H          -1.7271    0.8986   -1.4435 H       1  UNL1        0.0288
     37 H          -2.7655    1.0425   -0.0510 H       1  UNL1        0.0288
     38 H          -0.0018   -1.4551   -1.2765 H       1  UNL1        0.0338
     39 H          -0.6014   -2.6488   -0.1488 H       1  UNL1        0.0338
     40 H           1.2496   -1.9589    1.0351 H       1  UNL1        0.0815
     41 H           0.0518   -0.8823    1.7433 H       1  UNL1        0.0815
     42 H          -5.7109   -4.1546   -0.2253 H       1  UNL1        0.0625
     43 H          -7.1835   -5.1623   -1.9437 H       1  UNL1        0.0618
     44 H          -6.9479   -4.5018   -4.3219 H       1  UNL1        0.0618
     45 H          -5.2108   -2.9234   -5.0074 H       1  UNL1        0.0624
     46 H          -3.7751   -1.3524   -5.3795 H       1  UNL1        0.0377
     47 H          -2.2784   -0.6390   -4.8521 H       1  UNL1        0.0377
     48 H          -0.3867   -2.4788   -4.0625 H       1  UNL1        0.0621
     49 H           0.9926   -4.1909   -5.1878 H       1  UNL1        0.0632
     50 H          -2.1303   -4.8294   -8.0751 H       1  UNL1        0.0632
     51 H          -3.5148   -3.1279   -6.9723 H       1  UNL1        0.0621
     52 H           1.7752    0.4096    1.2754 H       1  UNL1        0.2030
@<TRIPOS>UNITY_ATOM_ATTR
2 1
charge 1
@<TRIPOS>BOND
     1     1     2    1
     2     1    29    1
     3     1    30    1
     4     1    31    1
     5     2     9    1
     6     2     3    1
     7     2    52    1
     8     3     4    1
     9     3    32    1
    10     3    33    1
    11     4     5    1
    12     4    34    1
    13     4    35    1
    14     5     6    1
    15     5    36    1
    16     5    37    1
    17     6     8    1
    18     8     9    1
    19     8    38    1
    20     8    39    1
    21     9    40    1
    22     9    41    1
    23    10    20   ar
    24    10    11   ar
    25    11    12    2
    26    11    13   ar
    27    13    18   ar
    28    13    14   ar
    29    14    15   ar
    30    14    42    1
    31    15    16   ar
    32    15    43    1
    33    16    17   ar
    34    16    44    1
    35    17    18   ar
    36    17    45    1
    37    18    19   ar
    38    19    20   ar
    39    19    21    1
    40    21    22    1
    41    21    46    1
    42    21    47    1
    43    22    27   ar
    44    22    23   ar
    45    23    24   ar
    46    23    48    1
    47    24    25   ar
    48    24    49    1
    49    25    26   ar
    50    25    28    1
    51    26    27   ar
    52    26    50    1
    53    27    51    1
    54     6    10    1
    55     6     7    1
