@<TRIPOS>MOLECULE
ZINC00113442
 21 21 0 0 0
SMALL
GASTEIGER

@<TRIPOS>ATOM
      1 C           1.1056    0.0788   -0.0259 C.3     1  UNL1       -0.0062
      2 C           0.6490    0.8324   -1.2247 C.ar    1  UNL1        0.1082
      3 N           0.1567    0.2740   -2.3140 N.ar    1  UNL1       -0.2386
      4 C          -0.1718    1.3056   -3.1519 C.ar    1  UNL1        0.0728
      5 C           0.1321    2.5105   -2.5682 C.ar    1  UNL1        0.1641
      6 N           0.6853    2.2155   -1.3451 N.ar    1  UNL1       -0.3104
      7 C           1.2668    3.1139   -0.3605 C.3     1  UNL1        0.0494
      8 C           0.2757    3.5659    0.7103 C.3     1  UNL1        0.0622
      9 O          -0.8119    4.3079    0.1760 O.3     1  UNL1       -0.3933
     10 N          -0.0867    3.8068   -3.1159 N.pl3   1  UNL1       -0.1677
     11 O          -0.5864    3.8507   -4.2440 O.2     1  UNL1       -0.1711
     12 O           0.2458    4.7922   -2.4438 O.co2   1  UNL1       -0.7759
     13 H           0.8021   -0.9702   -0.1010 H       1  UNL1        0.0307
     14 H           0.6650    0.4845    0.8889 H       1  UNL1        0.0307
     15 H           2.1959    0.1100    0.0597 H       1  UNL1        0.0307
     16 H          -0.6138    1.1233   -4.1223 H       1  UNL1        0.0868
     17 H           2.1024    2.5856    0.1127 H       1  UNL1        0.0515
     18 H           1.7148    3.9630   -0.8809 H       1  UNL1        0.0515
     19 H          -0.1426    2.7066    1.2421 H       1  UNL1        0.0575
     20 H           0.7845    4.1965    1.4464 H       1  UNL1        0.0575
     21 H          -0.4594    5.1135   -0.2484 H       1  UNL1        0.2095
@<TRIPOS>UNITY_ATOM_ATTR
12 1
charge -1
@<TRIPOS>BOND
     1     1     2    1
     2     1    13    1
     3     1    14    1
     4     1    15    1
     5     2     6   ar
     6     2     3   ar
     7     3     4   ar
     8     4     5   ar
     9     4    16    1
    10     5     6   ar
    11     5    10    1
    12     6     7    1
    13     7     8    1
    14     7    17    1
    15     7    18    1
    16     8     9    1
    17     8    19    1
    18     8    20    1
    19     9    21    1
    20    10    11    2
    21    10    12    1
