@<TRIPOS>MOLECULE
ZINC01544807
 25 25 0 0 0
SMALL
GASTEIGER

@<TRIPOS>ATOM
      1 C          -0.3698    1.8200    0.1782 C.3     1  UNL1       -0.0305
      2 C          -1.3887    1.1128   -0.7055 C.3     1  UNL1        0.0050
      3 S          -1.1108   -0.6551   -0.4695 S.3     1  UNL1       -0.0928
      4 S           0.9275   -0.5331   -0.3605 S.3     1  UNL1       -0.0897
      5 C           1.0463    1.2665   -0.0479 C.3     1  UNL1        0.0162
      6 H           1.4399    1.7044   -0.9744 H       1  UNL1        0.0421
      7 C           2.0305    1.6022    1.0857 C.3     1  UNL1       -0.0403
      8 C           1.6663    1.0380    2.4682 C.3     1  UNL1       -0.0515
      9 C           2.6827    1.3789    3.5642 C.3     1  UNL1       -0.0428
     10 C           2.9027    2.8674    3.8152 C.3     1  UNL1        0.0492
     11 C           1.6079    3.5724    4.2193 C.2     1  UNL1        0.3560
     12 O           1.3221    3.5117    5.4463 O.co2   1  UNL1       -0.2464
     13 O           0.9889    4.1338    3.2703 O.co2   1  UNL1       -0.2464
     14 H          -0.6832    1.7292    1.2229 H       1  UNL1        0.0284
     15 H          -0.3792    2.8949   -0.0425 H       1  UNL1        0.0284
     16 H          -2.4101    1.3729   -0.4118 H       1  UNL1        0.0385
     17 H          -1.2565    1.3676   -1.7611 H       1  UNL1        0.0385
     18 H           3.0314    1.2467    0.8093 H       1  UNL1        0.0276
     19 H           2.1030    2.6942    1.1425 H       1  UNL1        0.0276
     20 H           0.6813    1.3948    2.7823 H       1  UNL1        0.0266
     21 H           1.5937   -0.0535    2.4155 H       1  UNL1        0.0266
     22 H           2.3456    0.9047    4.4949 H       1  UNL1        0.0270
     23 H           3.6461    0.9186    3.3132 H       1  UNL1        0.0270
     24 H           3.6328    2.9894    4.6241 H       1  UNL1        0.0379
     25 H           3.3366    3.3556    2.9359 H       1  UNL1        0.0379
@<TRIPOS>BOND
     1     1     5    1
     2     1     2    1
     3     1    14    1
     4     1    15    1
     5     2     3    1
     6     2    16    1
     7     2    17    1
     8     3     4    1
     9     4     5    1
    10     5     6    1
    11     5     7    1
    12     7     8    1
    13     7    18    1
    14     7    19    1
    15     8     9    1
    16     8    20    1
    17     8    21    1
    18     9    10    1
    19     9    22    1
    20     9    23    1
    21    10    11    1
    22    10    24    1
    23    10    25    1
    24    11    12   ar
    25    11    13   ar
