@<TRIPOS>MOLECULE
ZINC00967932
 59 60 0 0 0
SMALL
GASTEIGER

@<TRIPOS>ATOM
      1 C           2.3611    3.9581    0.5113 C.3     1  UNL1       -0.0244
      2 C           1.8545    3.6741    1.9180 C.3     1  UNL1       -0.0330
      3 N           2.6651    2.5960    2.7008 N.4     1  UNL1        0.2428
      4 C           4.1844    2.9206    2.6829 C.3     1  UNL1       -0.0330
      5 C           4.5461    4.2786    3.2755 C.3     1  UNL1       -0.0244
      6 C           2.1750    2.5895    4.1751 C.3     1  UNL1       -0.0330
      7 C           0.6942    2.2935    4.3559 C.3     1  UNL1       -0.0244
      8 C           2.4238    1.1880    2.0025 C.3     1  UNL1       -0.0271
      9 C           3.1109   -0.0020    2.7049 C.3     1  UNL1        0.0208
     10 C           2.8746   -1.3775    1.9880 C.3     1  UNL1        0.0985
     11 C           3.4247   -1.3561    0.5507 C.ar    1  UNL1       -0.0157
     12 C           2.6072   -1.6455   -0.5638 C.ar    1  UNL1       -0.0558
     13 C           3.1204   -1.6455   -1.8662 C.ar    1  UNL1       -0.0614
     14 C           4.4632   -1.3607   -2.0931 C.ar    1  UNL1       -0.0617
     15 C           5.2885   -1.0585   -1.0144 C.ar    1  UNL1       -0.0614
     16 C           4.7714   -1.0463    0.2838 C.ar    1  UNL1       -0.0558
     17 C           3.4137   -2.5879    2.8758 C.3     1  UNL1       -0.0078
     18 C           3.1842   -3.9796    2.2267 C.3     1  UNL1       -0.0473
     19 C           3.7447   -5.1392    3.0541 C.3     1  UNL1       -0.0527
     20 C           5.2156   -4.9334    3.3803 C.3     1  UNL1       -0.0530
     21 C           5.3983   -3.6359    4.1516 C.3     1  UNL1       -0.0527
     22 C           4.8764   -2.4394    3.3552 C.3     1  UNL1       -0.0473
     23 O           1.4371   -1.4902    1.9471 O.3     1  UNL1       -0.3835
     24 H           3.3039    4.5126    0.5200 H       1  UNL1        0.0281
     25 H           1.6301    4.5834   -0.0129 H       1  UNL1        0.0281
     26 H           2.4934    3.0551   -0.0876 H       1  UNL1        0.0281
     27 H           1.8665    4.5918    2.5172 H       1  UNL1        0.0812
     28 H           0.8233    3.3183    1.8561 H       1  UNL1        0.0812
     29 H           4.6878    2.1463    3.2670 H       1  UNL1        0.0812
     30 H           4.5227    2.8467    1.6446 H       1  UNL1        0.0812
     31 H           4.3050    4.3453    4.3396 H       1  UNL1        0.0281
     32 H           5.6291    4.4292    3.1967 H       1  UNL1        0.0281
     33 H           4.0661    5.1110    2.7560 H       1  UNL1        0.0281
     34 H           2.7897    1.8716    4.7260 H       1  UNL1        0.0812
     35 H           2.3687    3.5856    4.5836 H       1  UNL1        0.0812
     36 H           0.4344    1.2757    4.0606 H       1  UNL1        0.0281
     37 H           0.4364    2.4047    5.4162 H       1  UNL1        0.0281
     38 H           0.0557    2.9966    3.8132 H       1  UNL1        0.0281
     39 H           1.3386    1.0562    1.9487 H       1  UNL1        0.0816
     40 H           2.8117    1.2906    0.9867 H       1  UNL1        0.0816
     41 H           4.1834    0.1848    2.7888 H       1  UNL1        0.0348
     42 H           2.7093   -0.0852    3.7200 H       1  UNL1        0.0348
     43 H           1.5536   -1.8814   -0.4451 H       1  UNL1        0.0621
     44 H           2.4711   -1.8816   -2.7066 H       1  UNL1        0.0618
     45 H           4.8607   -1.3749   -3.1023 H       1  UNL1        0.0618
     46 H           6.3408   -0.8453   -1.1899 H       1  UNL1        0.0618
     47 H           5.4645   -0.7962    1.0830 H       1  UNL1        0.0621
     48 H           2.7960   -2.5916    3.7867 H       1  UNL1        0.0332
     49 H           2.1132   -4.1626    2.0883 H       1  UNL1        0.0269
     50 H           3.6456   -4.0148    1.2334 H       1  UNL1        0.0269
     51 H           3.6199   -6.0795    2.5037 H       1  UNL1        0.0265
     52 H           3.1744   -5.2403    3.9863 H       1  UNL1        0.0265
     53 H           5.8022   -4.9043    2.4534 H       1  UNL1        0.0265
     54 H           5.5926   -5.7757    3.9710 H       1  UNL1        0.0265
     55 H           6.4626   -3.4895    4.3716 H       1  UNL1        0.0265
     56 H           4.8793   -3.6992    5.1153 H       1  UNL1        0.0265
     57 H           5.5476   -2.3167    2.5036 H       1  UNL1        0.0269
     58 H           4.9778   -1.5486    3.9839 H       1  UNL1        0.0269
     59 H           1.2183   -2.3989    1.6676 H       1  UNL1        0.2106
@<TRIPOS>UNITY_ATOM_ATTR
3 1
charge 1
@<TRIPOS>BOND
     1     1     2    1
     2     1    24    1
     3     1    25    1
     4     1    26    1
     5     2     3    1
     6     2    27    1
     7     2    28    1
     8     3     4    1
     9     3     6    1
    10     3     8    1
    11     4     5    1
    12     4    29    1
    13     4    30    1
    14     5    31    1
    15     5    32    1
    16     5    33    1
    17     6     7    1
    18     6    34    1
    19     6    35    1
    20     7    36    1
    21     7    37    1
    22     7    38    1
    23     8     9    1
    24     8    39    1
    25     8    40    1
    26     9    10    1
    27     9    41    1
    28     9    42    1
    29    10    11    1
    30    10    17    1
    31    10    23    1
    32    11    16   ar
    33    11    12   ar
    34    12    13   ar
    35    12    43    1
    36    13    14   ar
    37    13    44    1
    38    14    15   ar
    39    14    45    1
    40    15    16   ar
    41    15    46    1
    42    16    47    1
    43    17    22    1
    44    17    18    1
    45    17    48    1
    46    18    19    1
    47    18    49    1
    48    18    50    1
    49    19    20    1
    50    19    51    1
    51    19    52    1
    52    20    21    1
    53    20    53    1
    54    20    54    1
    55    21    22    1
    56    21    55    1
    57    21    56    1
    58    22    57    1
    59    22    58    1
    60    23    59    1
