@<TRIPOS>MOLECULE
ZINC03607120
 49 52 0 0 0
SMALL
GASTEIGER

@<TRIPOS>ATOM
      1 C           0.1013   -2.5690    1.3515 C.3     1  UNL1       -0.0202
      2 C           0.8576   -1.5122    0.5632 C.3     1  UNL1       -0.0094
      3 H           1.9318   -1.7250    0.5758 H       1  UNL1        0.0863
      4 C           0.5963   -0.0894    1.1123 C.3     1  UNL1        0.0552
      5 N           1.2609    0.8967    0.2381 N.pl3   1  UNL1       -0.3144
      6 C           0.7974    0.8779   -1.1658 C.3     1  UNL1        0.0526
      7 C           1.0515   -0.5238   -1.7576 C.3     1  UNL1       -0.0173
      8 N           0.4305   -1.5992   -0.8914 N.4     1  UNL1        0.2312
      9 C           1.8191    2.0528    0.8182 C.ar    1  UNL1        0.1100
     10 C           1.3965    2.4983    2.0927 C.ar    1  UNL1        0.1487
     11 C           2.0006    3.5414    2.7686 C.ar    1  UNL1       -0.0116
     12 C           3.0560    4.2335    2.1775 C.ar    1  UNL1        0.0524
     13 C           3.5151    3.9072    0.8786 C.ar    1  UNL1        0.0973
     14 C           2.8868    2.7983    0.2187 C.ar    1  UNL1        0.1679
     15 O           3.2458    2.5252   -1.0852 O.3     1  UNL1       -0.4911
     16 C           3.9633    1.3090   -1.2644 C.3     1  UNL1        0.0790
     17 N           4.5717    4.7135    0.3312 N.ar    1  UNL1       -0.3397
     18 C           5.0741    5.7636    1.0842 C.ar    1  UNL1        0.0234
     19 C           4.7209    6.1330    2.3209 C.ar    1  UNL1        0.1263
     20 C           3.6326    5.3615    2.9549 C.ar    1  UNL1        0.2037
     21 O           3.1442    5.6222    4.0455 O.2     1  UNL1       -0.2863
     22 C           5.4459    7.2966    2.9908 C.2     1  UNL1        0.3916
     23 O           5.9578    8.1368    2.1868 O.co2   1  UNL1       -0.2404
     24 O           5.5316    7.2728    4.2467 O.co2   1  UNL1       -0.2404
     25 C           5.0438    4.5787   -1.0639 C.3     1  UNL1        0.0348
     26 C           6.3469    5.1060   -1.6209 C.3     1  UNL1       -0.0302
     27 C           6.1862    3.6442   -1.3857 C.3     1  UNL1       -0.0302
     28 F           0.3397    1.9265    2.6960 F       1  UNL1       -0.2034
     29 H          -0.9819   -2.4367    1.2648 H       1  UNL1        0.0285
     30 H           0.3514   -3.5730    0.9918 H       1  UNL1        0.0285
     31 H           0.3627   -2.5209    2.4137 H       1  UNL1        0.0285
     32 H          -0.4808    0.1185    1.1540 H       1  UNL1        0.0519
     33 H           0.9956   -0.0782    2.1320 H       1  UNL1        0.0519
     34 H          -0.2805    1.0933   -1.1851 H       1  UNL1        0.0516
     35 H           1.2653    1.6315   -1.8010 H       1  UNL1        0.0516
     36 H           0.6181   -0.6296   -2.7546 H       1  UNL1        0.0829
     37 H           2.1199   -0.7688   -1.8109 H       1  UNL1        0.0829
     38 H           0.6781   -2.5178   -1.2623 H       1  UNL1        0.2017
     39 H           1.6321    3.8230    3.7530 H       1  UNL1        0.0654
     40 H           5.0088    1.4034   -0.9680 H       1  UNL1        0.0660
     41 H           3.5363    0.4644   -0.7213 H       1  UNL1        0.0660
     42 H           3.9238    1.0815   -2.3317 H       1  UNL1        0.0660
     43 H           5.8481    6.3446    0.5889 H       1  UNL1        0.0819
     44 H           4.2172    4.6700   -1.7643 H       1  UNL1        0.0528
     45 H           6.3430    5.4578   -2.6462 H       1  UNL1        0.0286
     46 H           7.0542    5.6286   -0.9913 H       1  UNL1        0.0286
     47 H           6.7322    3.2117   -0.5540 H       1  UNL1        0.0286
     48 H           6.0969    3.0067   -2.2549 H       1  UNL1        0.0286
     49 H          -0.5952   -1.5136   -0.9506 H       1  UNL1        0.2017
@<TRIPOS>UNITY_ATOM_ATTR
8 1
charge 1
@<TRIPOS>BOND
     1     1     2    1
     2     1    29    1
     3     1    30    1
     4     1    31    1
     5     2     3    1
     6     2     8    1
     7     2     4    1
     8     4     5    1
     9     4    32    1
    10     4    33    1
    11     5     6    1
    12     5     9    1
    13     6     7    1
    14     6    34    1
    15     6    35    1
    16     7     8    1
    17     7    36    1
    18     7    37    1
    19     8    38    1
    20     8    49    1
    21     9    14   ar
    22     9    10   ar
    23    10    11   ar
    24    10    28    1
    25    11    12   ar
    26    11    39    1
    27    12    20   ar
    28    12    13   ar
    29    13    14   ar
    30    13    17   ar
    31    14    15    1
    32    15    16    1
    33    16    40    1
    34    16    41    1
    35    16    42    1
    36    17    18   ar
    37    17    25    1
    38    18    19   ar
    39    18    43    1
    40    19    20   ar
    41    19    22    1
    42    20    21    2
    43    22    23   ar
    44    22    24   ar
    45    25    27    1
    46    25    26    1
    47    25    44    1
    48    26    27    1
    49    26    45    1
    50    26    46    1
    51    27    47    1
    52    27    48    1
