@<TRIPOS>MOLECULE
ZINC00897369
 20 20 0 0 0
SMALL
GASTEIGER

@<TRIPOS>ATOM
      1 C           1.0459   -0.6933    0.0024 C.ar    1  UNL1       -0.0126
      2 C           1.1265    0.7228   -0.0023 C.ar    1  UNL1        0.0045
      3 C          -0.1761    1.1598   -0.0174 C.ar    1  UNL1        0.2298
      4 O          -1.0547    0.1207   -0.0230 O.2     1  UNL1       -0.4358
      5 C          -0.2995   -1.0246   -0.0092 C.ar    1  UNL1        0.1500
      6 C          -0.9858   -2.2925   -0.0005 C.2     1  UNL1        0.0880
      7 N          -0.3023   -3.3928    0.0267 N.2     1  UNL1       -0.1834
      8 N          -0.9346   -4.6121    0.0577 N.am    1  UNL1       -0.1909
      9 C          -2.2849   -4.8869    0.0386 C.2     1  UNL1        0.3165
     10 O          -3.2116   -4.0947   -0.0507 O.2     1  UNL1       -0.2513
     11 N          -2.5520   -6.2195    0.1700 N.am    1  UNL1       -0.3120
     12 N          -0.7345    2.4762   -0.0260 N.pl3   1  UNL1       -0.1513
     13 O           0.0759    3.4135   -0.0162 O.2     1  UNL1       -0.1698
     14 O          -1.9668    2.5843   -0.0413 O.co2   1  UNL1       -0.7748
     15 H           1.8648   -1.4010    0.0164 H       1  UNL1        0.0656
     16 H           2.0137    1.3419    0.0063 H       1  UNL1        0.0672
     17 H          -2.0820   -2.2298   -0.0078 H       1  UNL1        0.0883
     18 H          -0.2998   -5.3960    0.1462 H       1  UNL1        0.1788
     19 H          -1.8967   -6.9095   -0.1629 H       1  UNL1        0.1465
     20 H          -3.5322   -6.4505    0.0584 H       1  UNL1        0.1465
@<TRIPOS>UNITY_ATOM_ATTR
14 1
charge -1
@<TRIPOS>BOND
     1     1     5   ar
     2     1     2   ar
     3     1    15    1
     4     2     3   ar
     5     2    16    1
     6     3     4   ar
     7     3    12    1
     8     4     5   ar
     9     5     6    1
    10     6     7    2
    11     6    17    1
    12     7     8    1
    13     8     9   am
    14     8    18    1
    15     9    10    2
    16     9    11   am
    17    11    19    1
    18    11    20    1
    19    12    13    2
    20    12    14    1
