@<TRIPOS>MOLECULE
ZINC03784182
 58 63 0 0 0
SMALL
GASTEIGER

@<TRIPOS>ATOM
      1 C           1.3700    5.1098   -0.9829 C.3     1  UNL1        0.0788
      2 O           1.8847    3.7680   -0.9734 O.3     1  UNL1       -0.4948
      3 C           0.9005    2.8680   -0.6475 C.ar    1  UNL1        0.1238
      4 C          -0.3859    3.0078   -1.1755 C.ar    1  UNL1       -0.0191
      5 C          -1.4057    2.1733   -0.7443 C.ar    1  UNL1       -0.0506
      6 C          -1.1643    1.2265    0.2614 C.ar    1  UNL1       -0.0174
      7 C           0.1092    1.1631    0.8291 C.ar    1  UNL1       -0.0468
      8 C           1.1927    1.7771    0.1919 C.ar    1  UNL1        0.0010
      9 C           2.4860    0.9267    0.0449 C.3     1  UNL1       -0.0000
     10 C           2.7229    0.6980   -1.4846 C.3     1  UNL1       -0.0404
     11 C           3.9564   -0.1698   -1.7484 C.3     1  UNL1       -0.0397
     12 C           5.1770    0.5296   -1.1333 C.3     1  UNL1       -0.0473
     13 C           4.9892    0.6937    0.3856 C.3     1  UNL1       -0.0397
     14 C           3.7408    1.5632    0.6740 C.3     1  UNL1       -0.0404
     15 C           4.8179   -0.7041    1.0037 C.3     1  UNL1       -0.0473
     16 C           3.5840   -1.3893    0.4066 C.3     1  UNL1       -0.0397
     17 C           3.7519   -1.5477   -1.1080 C.3     1  UNL1       -0.0473
     18 C           2.3538   -0.5148    0.6779 C.3     1  UNL1       -0.0404
     19 C          -2.0391    0.0569    0.4373 C.ar    1  UNL1       -0.0173
     20 C          -2.2789   -0.5791    1.6635 C.ar    1  UNL1       -0.0534
     21 C          -2.9755   -1.8044    1.7018 C.ar    1  UNL1       -0.0534
     22 C          -3.4838   -2.4149    0.5156 C.ar    1  UNL1       -0.0171
     23 C          -4.1847   -3.6213    0.4598 C.ar    1  UNL1       -0.0399
     24 C          -4.8403   -3.9806   -0.7180 C.ar    1  UNL1        0.0637
     25 C          -4.7773   -3.0840   -1.7814 C.ar    1  UNL1       -0.0470
     26 C          -3.7227   -2.2283   -1.8562 C.ar    1  UNL1       -0.0532
     27 C          -3.2050   -1.7468   -0.6902 C.ar    1  UNL1       -0.0173
     28 C          -2.5005   -0.5762   -0.7400 C.ar    1  UNL1       -0.0463
     29 C          -5.5532   -5.3038   -0.9062 C.2     1  UNL1        0.3866
     30 O          -6.1689   -5.4754   -2.0103 O.co2   1  UNL1       -0.2406
     31 O          -5.4408   -6.1566    0.0250 O.co2   1  UNL1       -0.2406
     32 H           2.1904    5.8076   -0.8008 H       1  UNL1        0.0660
     33 H           0.9381    5.3423   -1.9631 H       1  UNL1        0.0660
     34 H           0.6204    5.2746   -0.1952 H       1  UNL1        0.0660
     35 H          -0.5822    3.6968   -1.9926 H       1  UNL1        0.0654
     36 H          -2.3630    2.2138   -1.2589 H       1  UNL1        0.0625
     37 H           0.2806    0.3995    1.5811 H       1  UNL1        0.0628
     38 H           2.8620    1.6502   -2.0095 H       1  UNL1        0.0276
     39 H           1.8385    0.2242   -1.9343 H       1  UNL1        0.0276
     40 H           4.0966   -0.2869   -2.8287 H       1  UNL1        0.0301
     41 H           6.0807   -0.0563   -1.3396 H       1  UNL1        0.0271
     42 H           5.3186    1.5121   -1.5991 H       1  UNL1        0.0271
     43 H           5.8736    1.1756    0.8152 H       1  UNL1        0.0301
     44 H           3.6054    1.6608    1.7603 H       1  UNL1        0.0276
     45 H           3.9039    2.5746    0.2890 H       1  UNL1        0.0276
     46 H           4.7149   -0.6267    2.0927 H       1  UNL1        0.0271
     47 H           5.7097   -1.3138    0.8112 H       1  UNL1        0.0271
     48 H           3.4463   -2.3752    0.8659 H       1  UNL1        0.0301
     49 H           2.8632   -2.0324   -1.5342 H       1  UNL1        0.0271
     50 H           4.6041   -2.2003   -1.3298 H       1  UNL1        0.0271
     51 H           2.2178   -0.4443    1.7660 H       1  UNL1        0.0276
     52 H           1.4722   -1.0348    0.2764 H       1  UNL1        0.0276
     53 H          -1.9026   -0.1517    2.5884 H       1  UNL1        0.0624
     54 H          -3.1204   -2.2962    2.6655 H       1  UNL1        0.0624
     55 H          -4.2604   -4.2712    1.3277 H       1  UNL1        0.0632
     56 H          -5.6477   -2.9829   -2.4273 H       1  UNL1        0.0626
     57 H          -3.3324   -1.8946   -2.8395 H       1  UNL1        0.0624
     58 H          -2.3075   -0.1069   -1.6939 H       1  UNL1        0.0630
@<TRIPOS>BOND
     1     1     2    1
     2     1    32    1
     3     1    33    1
     4     1    34    1
     5     2     3    1
     6     3     8   ar
     7     3     4   ar
     8     4     5   ar
     9     4    35    1
    10     5     6   ar
    11     5    36    1
    12     6     7   ar
    13     6    19    1
    14     7     8   ar
    15     7    37    1
    16     9    14    1
    17     9    18    1
    18     9    10    1
    19    10    11    1
    20    11    17    1
    21    11    12    1
    22    12    13    1
    23    13    14    1
    24    13    15    1
    25    15    16    1
    26    16    17    1
    27    16    18    1
    28    19    28   ar
    29    19    20   ar
    30    20    21   ar
    31    20    53    1
    32    21    22   ar
    33    21    54    1
    34    22    27   ar
    35    22    23   ar
    36    23    24   ar
    37    23    55    1
    38    24    25   ar
    39    24    29    1
    40    25    26   ar
    41    25    56    1
    42    26    27   ar
    43    26    57    1
    44    27    28   ar
    45    28    58    1
    46    29    30   ar
    47    29    31   ar
    48     9     8    1
    49    10    38    1
    50    10    39    1
    51    11    40    1
    52    12    41    1
    53    12    42    1
    54    13    43    1
    55    14    44    1
    56    14    45    1
    57    15    46    1
    58    15    47    1
    59    16    48    1
    60    17    49    1
    61    17    50    1
    62    18    51    1
    63    18    52    1
