@<TRIPOS>MOLECULE
ZINC03872952
 12 11 0 0 0
SMALL
GASTEIGER

@<TRIPOS>ATOM
      1 C           0.8428    0.0425    0.0753 C.3     1  UNL1        0.2315
      2 H           0.4883   -0.3932   -0.8644 H       1  UNL1        0.0861
      3 C           0.3915    1.5205    0.1582 C.3     1  UNL1        0.4297
      4 F          -0.2875    1.8693   -0.9635 F       1  UNL1       -0.1667
      5 F          -0.4590    1.7233    1.1967 F       1  UNL1       -0.1667
      6 F           1.4030    2.3976    0.3058 F       1  UNL1       -0.1667
      7 O           0.4362   -0.7831    1.1710 O.3     1  UNL1       -0.2938
      8 C          -0.9597   -1.0126    1.1793 C.3     1  UNL1        0.3482
      9 F          -1.3683   -1.2839   -0.0804 F       1  UNL1       -0.1783
     10 F          -1.1766   -2.1272    1.9135 F       1  UNL1       -0.1783
     11 CL          2.6330   -0.1004   -0.0297 Cl      1  UNL1       -0.0813
     12 H          -1.5365   -0.1844    1.5980 H       1  UNL1        0.1361
@<TRIPOS>BOND
     1     1     7    1
     2     1    11    1
     3     3     4    1
     4     3     5    1
     5     3     6    1
     6     7     8    1
     7     8     9    1
     8     8    10    1
     9     8    12    1
    10     1     3    1
    11     1     2    1
