@<TRIPOS>MOLECULE
ZINC00001688
 17 17 0 0 0
SMALL
GASTEIGER

@<TRIPOS>ATOM
      1 C          -0.7489   -1.2018   -0.0465 C.ar    1  UNL1       -0.0376
      2 C           0.6441   -1.2199    0.0251 C.ar    1  UNL1       -0.0176
      3 C           1.3670   -0.0226    0.0935 C.ar    1  UNL1        0.1311
      4 C           0.7116    1.2113    0.0595 C.ar    1  UNL1        0.1061
      5 C          -0.7000    1.1952   -0.0184 C.ar    1  UNL1       -0.0234
      6 C          -1.4379    0.0074   -0.0139 C.ar    1  UNL1        0.0255
      7 N          -2.8297    0.0368   -0.1964 N.pl3   1  UNL1       -0.3579
      8 C           1.4078    2.5601    0.0876 C.2     1  UNL1        0.3901
      9 O           0.7130    3.5450    0.5037 O.co2   1  UNL1       -0.2405
     10 O           2.6011    2.6492   -0.3469 O.co2   1  UNL1       -0.2405
     11 O           2.7226   -0.1087    0.2275 O.3     1  UNL1       -0.5059
     12 H          -1.2905   -2.1390   -0.1158 H       1  UNL1        0.0637
     13 H           1.1571   -2.1764    0.0368 H       1  UNL1        0.0655
     14 H          -1.2179    2.1531   -0.0683 H       1  UNL1        0.0645
     15 H          -3.2273    0.9153    0.1276 H       1  UNL1        0.1423
     16 H          -3.2957   -0.7698    0.2021 H       1  UNL1        0.1423
     17 H           3.0209   -0.9633   -0.1081 H       1  UNL1        0.2922
@<TRIPOS>BOND
     1     1     6   ar
     2     1     2   ar
     3     1    12    1
     4     2     3   ar
     5     2    13    1
     6     3     4   ar
     7     3    11    1
     8     4     5   ar
     9     4     8    1
    10     5     6   ar
    11     5    14    1
    12     6     7    1
    13     7    15    1
    14     7    16    1
    15     8     9   ar
    16     8    10   ar
    17    11    17    1
