@<TRIPOS>MOLECULE
ZINC03833846
 86 89 0 0 0
SMALL
GASTEIGER

@<TRIPOS>ATOM
      1 C          -4.6066   -4.7209    3.5293 C.3     1  UNL1       -0.0355
      2 C          -3.1981   -4.1946    3.5797 C.ar    1  UNL1        0.0030
      3 C          -2.6130   -3.5439    2.4774 C.ar    1  UNL1        0.0431
      4 C          -1.2430   -3.2482    2.4706 C.ar    1  UNL1       -0.0492
      5 C          -0.4500   -3.5496    3.5770 C.ar    1  UNL1       -0.0576
      6 C          -1.0566   -4.0748    4.7256 C.ar    1  UNL1       -0.0199
      7 C          -2.4120   -4.3588    4.7233 C.ar    1  UNL1        0.1205
      8 O          -2.9519   -4.7699    5.9078 O.3     1  UNL1       -0.5065
      9 C          -3.5119   -2.9490    1.4718 C.2     1  UNL1        0.2448
     10 O          -4.4625   -2.2606    1.8513 O.2     1  UNL1       -0.2702
     11 N          -3.3372   -3.1146    0.1365 N.am    1  UNL1       -0.3050
     12 C          -2.2296   -3.6347   -0.7342 C.3     1  UNL1        0.0636
     13 H          -1.5501   -4.2248   -0.1148 H       1  UNL1        0.0534
     14 C          -3.0202   -4.6138   -1.7156 C.3     1  UNL1        0.0194
     15 S          -2.1473   -6.0330   -2.5316 S.3     1  UNL1       -0.1233
     16 C          -3.4185   -7.3202   -2.9183 C.ar    1  UNL1        0.0079
     17 C          -2.9525   -8.5493   -3.4419 C.ar    1  UNL1       -0.0483
     18 C          -3.8211   -9.6191   -3.7549 C.ar    1  UNL1       -0.0607
     19 C          -5.1883   -9.4900   -3.5545 C.ar    1  UNL1       -0.0617
     20 C          -5.6761   -8.2915   -3.0400 C.ar    1  UNL1       -0.0607
     21 C          -4.8041   -7.2148   -2.7280 C.ar    1  UNL1       -0.0483
     22 C          -1.5150   -2.2678   -1.1482 C.3     1  UNL1        0.1138
     23 H          -1.3281   -1.7231   -0.2138 H       1  UNL1        0.0666
     24 C          -0.2151   -2.0752   -1.9800 C.3     1  UNL1       -0.0027
     25 C           1.7718   -3.4284   -1.0566 C.3     1  UNL1       -0.0279
     26 C           3.2947   -3.3358   -0.8717 C.3     1  UNL1        0.0023
     27 H           3.6627   -4.3622   -0.7325 H       1  UNL1        0.0355
     28 C           4.0538   -2.7471   -2.0809 C.3     1  UNL1       -0.0451
     29 C           5.5620   -2.6680   -1.8419 C.3     1  UNL1       -0.0526
     30 C           5.8909   -1.8941   -0.5706 C.3     1  UNL1       -0.0528
     31 C           5.1322   -2.4534    0.6338 C.3     1  UNL1       -0.0496
     32 C           3.6024   -2.5603    0.4091 C.3     1  UNL1       -0.0278
     33 H           3.2100   -3.1432    1.2547 H       1  UNL1        0.0307
     34 C           2.9050   -1.1894    0.4536 C.3     1  UNL1        0.0023
     35 C           1.5848   -0.9470   -0.3415 C.3     1  UNL1        0.0570
     36 H           0.7448   -0.8416    0.3501 H       1  UNL1        0.0950
     37 C           1.7602    0.3928   -1.1315 C.2     1  UNL1        0.2617
     38 O           1.7896    0.3589   -2.3603 O.2     1  UNL1       -0.2696
     39 N           1.8678    1.5306   -0.3660 N.am    1  UNL1       -0.3059
     40 C           1.8659    2.9288   -0.8558 C.3     1  UNL1        0.0264
     41 C           0.5642    3.2180   -1.6170 C.3     1  UNL1       -0.0442
     42 C           1.9317    3.8366    0.3884 C.3     1  UNL1       -0.0442
     43 C           3.0671    3.2653   -1.7539 C.3     1  UNL1       -0.0442
     44 O          -2.5190   -1.4672   -1.8289 O.3     1  UNL1       -0.3846
     45 H          -4.6273   -5.7386    3.9359 H       1  UNL1        0.0279
     46 H          -5.2898   -4.0860    4.0992 H       1  UNL1        0.0279
     47 H          -4.9766   -4.8098    2.5017 H       1  UNL1        0.0279
     48 H          -0.7845   -2.7394    1.6348 H       1  UNL1        0.0625
     49 H           0.6089   -3.3353    3.5809 H       1  UNL1        0.0619
     50 H          -0.4685   -4.2260    5.6257 H       1  UNL1        0.0654
     51 H          -3.8636   -4.4287    5.9576 H       1  UNL1        0.2921
     52 H          -4.0691   -2.6173   -0.3690 H       1  UNL1        0.1494
     53 H          -3.7670   -5.1198   -1.0840 H       1  UNL1        0.0399
     54 H          -3.5872   -4.0536   -2.4638 H       1  UNL1        0.0399
     55 H          -1.8917   -8.7106   -3.6169 H       1  UNL1        0.0629
     56 H          -3.4266  -10.5503   -4.1596 H       1  UNL1        0.0618
     57 H          -5.8608  -10.3131   -3.8010 H       1  UNL1        0.0618
     58 H          -6.7490   -8.1899   -2.8808 H       1  UNL1        0.0618
     59 H          -5.2579   -6.3119   -2.3359 H       1  UNL1        0.0629
     60 H          -0.1829   -2.7306   -2.8527 H       1  UNL1        0.0841
     61 H          -0.2764   -1.0545   -2.3858 H       1  UNL1        0.0841
     62 H           1.5297   -4.0697   -1.9095 H       1  UNL1        0.0817
     63 H           1.2754   -3.8178   -0.1601 H       1  UNL1        0.0817
     64 H           3.7118   -1.7334   -2.3119 H       1  UNL1        0.0270
     65 H           3.8602   -3.3574   -2.9697 H       1  UNL1        0.0270
     66 H           6.0445   -2.1816   -2.6986 H       1  UNL1        0.0265
     67 H           5.9805   -3.6793   -1.7752 H       1  UNL1        0.0265
     68 H           6.9713   -1.9406   -0.3837 H       1  UNL1        0.0265
     69 H           5.6503   -0.8338   -0.7112 H       1  UNL1        0.0265
     70 H           5.5280   -3.4568    0.8444 H       1  UNL1        0.0268
     71 H           5.3516   -1.8456    1.5195 H       1  UNL1        0.0268
     72 H           3.6388   -0.4148    0.1976 H       1  UNL1        0.0328
     73 H           2.6855   -0.9818    1.5124 H       1  UNL1        0.0328
     74 H           1.9088    1.4336    0.6421 H       1  UNL1        0.1494
     75 H          -0.3110    2.9785   -1.0029 H       1  UNL1        0.0250
     76 H           0.4981    4.2729   -1.9056 H       1  UNL1        0.0250
     77 H           0.4941    2.6216   -2.5332 H       1  UNL1        0.0250
     78 H           2.8334    3.6255    0.9768 H       1  UNL1        0.0250
     79 H           1.9441    4.8980    0.1215 H       1  UNL1        0.0250
     80 H           1.0722    3.6609    1.0452 H       1  UNL1        0.0250
     81 H           4.0187    3.0962   -1.2386 H       1  UNL1        0.0250
     82 H           3.0745    2.6750   -2.6751 H       1  UNL1        0.0250
     83 H           3.0399    4.3235   -2.0500 H       1  UNL1        0.0250
     84 H          -2.8230   -0.7650   -1.2182 H       1  UNL1        0.2101
     85 N           1.1941   -2.0830   -1.3311 N.4     1  UNL1        0.2460
     86 H           1.7202   -1.7532   -2.1596 H       1  UNL1        0.2042
@<TRIPOS>UNITY_ATOM_ATTR
85 1
charge 1
@<TRIPOS>BOND
     1     1     2    1
     2     1    45    1
     3     1    46    1
     4     1    47    1
     5     2     7   ar
     6     2     3   ar
     7     3     4   ar
     8     3     9    1
     9     4     5   ar
    10     4    48    1
    11     5     6   ar
    12     5    49    1
    13     6     7   ar
    14     6    50    1
    15     7     8    1
    16     8    51    1
    17     9    10    2
    18     9    11   am
    19    11    12    1
    20    11    52    1
    21    12    13    1
    22    12    14    1
    23    12    22    1
    24    14    15    1
    25    14    53    1
    26    14    54    1
    27    15    16    1
    28    16    21   ar
    29    16    17   ar
    30    17    18   ar
    31    17    55    1
    32    18    19   ar
    33    18    56    1
    34    19    20   ar
    35    19    57    1
    36    20    21   ar
    37    20    58    1
    38    21    59    1
    39    22    23    1
    40    22    24    1
    41    22    44    1
    42    24    60    1
    43    24    61    1
    44    24    85    1
    45    25    26    1
    46    25    62    1
    47    25    63    1
    48    25    85    1
    49    26    27    1
    50    26    32    1
    51    26    28    1
    52    28    29    1
    53    28    64    1
    54    28    65    1
    55    29    30    1
    56    29    66    1
    57    29    67    1
    58    30    31    1
    59    30    68    1
    60    30    69    1
    61    31    32    1
    62    31    70    1
    63    31    71    1
    64    32    33    1
    65    32    34    1
    66    34    35    1
    67    34    72    1
    68    34    73    1
    69    35    85    1
    70    37    38    2
    71    37    39   am
    72    39    40    1
    73    39    74    1
    74    40    41    1
    75    40    42    1
    76    40    43    1
    77    41    75    1
    78    41    76    1
    79    41    77    1
    80    42    78    1
    81    42    79    1
    82    42    80    1
    83    43    81    1
    84    43    82    1
    85    43    83    1
    86    44    84    1
    87    85    86    1
    88    35    37    1
    89    35    36    1
