@<TRIPOS>MOLECULE
ZINC01530751
 58 59 0 0 0
SMALL
GASTEIGER

@<TRIPOS>ATOM
      1 C          -2.3997   -7.6356   -0.2260 C.3     1  UNL1       -0.0244
      2 C          -2.2979   -6.9356    1.1188 C.3     1  UNL1       -0.0339
      3 N          -3.4563   -5.9715    1.3293 N.4     1  UNL1        0.2437
      4 C          -4.8346   -6.6027    1.2801 C.3     1  UNL1       -0.0339
      5 C          -5.0287   -7.6611    2.3543 C.3     1  UNL1       -0.0244
      6 C          -3.2962   -5.1034    2.5652 C.3     1  UNL1        0.0310
      7 C          -2.0824   -4.2997    2.4780 C.1     1  UNL1       -0.0495
      8 C          -1.0203   -3.7366    2.4402 C.1     1  UNL1       -0.0562
      9 C           0.3424   -3.2053    2.3973 C.3     1  UNL1        0.1531
     10 O           1.0242   -3.7497    1.2645 O.3     1  UNL1       -0.4495
     11 C           1.5161   -5.0178    1.4239 C.2     1  UNL1        0.3449
     12 O           1.3652   -5.6788    2.4469 O.2     1  UNL1       -0.2471
     13 C           2.2736   -5.4794    0.1407 C.3     1  UNL1        0.1902
     14 C           3.4395   -4.5130   -0.1872 C.ar    1  UNL1       -0.0051
     15 C           3.8960   -4.2723   -1.4971 C.ar    1  UNL1       -0.0553
     16 C           4.9889   -3.4293   -1.7400 C.ar    1  UNL1       -0.0614
     17 C           5.6585   -2.8204   -0.6823 C.ar    1  UNL1       -0.0617
     18 C           5.2256   -3.0355    0.6187 C.ar    1  UNL1       -0.0614
     19 C           4.1310   -3.8675    0.8620 C.ar    1  UNL1       -0.0553
     20 C           2.7661   -6.9685    0.2171 C.3     1  UNL1        0.0026
     21 C           3.8855   -7.1988    1.2506 C.3     1  UNL1       -0.0467
     22 C           4.4166   -8.6292    1.2226 C.3     1  UNL1       -0.0527
     23 C           3.3022   -9.6496    1.4045 C.3     1  UNL1       -0.0530
     24 C           2.1887   -9.4403    0.3836 C.3     1  UNL1       -0.0527
     25 C           1.6371   -8.0113    0.4317 C.3     1  UNL1       -0.0467
     26 O           1.2744   -5.4329   -0.9077 O.3     1  UNL1       -0.3730
     27 H          -3.2730   -8.2921   -0.2862 H       1  UNL1        0.0281
     28 H          -1.5192   -8.2639   -0.3866 H       1  UNL1        0.0281
     29 H          -2.4517   -6.9119   -1.0464 H       1  UNL1        0.0281
     30 H          -2.2832   -7.6436    1.9518 H       1  UNL1        0.0812
     31 H          -1.3722   -6.3552    1.1349 H       1  UNL1        0.0812
     32 H          -5.5637   -5.7933    1.3968 H       1  UNL1        0.0812
     33 H          -4.9733   -7.0203    0.2789 H       1  UNL1        0.0812
     34 H          -4.9544   -7.2379    3.3605 H       1  UNL1        0.0281
     35 H          -6.0247   -8.1057    2.2625 H       1  UNL1        0.0281
     36 H          -4.3034   -8.4745    2.2690 H       1  UNL1        0.0281
     37 H          -4.1812   -4.4590    2.6236 H       1  UNL1        0.0959
     38 H          -3.2672   -5.7648    3.4349 H       1  UNL1        0.0959
     39 H           0.3197   -2.1185    2.2774 H       1  UNL1        0.0838
     40 H           0.8884   -3.4144    3.3250 H       1  UNL1        0.0838
     41 H           3.4301   -4.7260   -2.3664 H       1  UNL1        0.0621
     42 H           5.3235   -3.2482   -2.7589 H       1  UNL1        0.0618
     43 H           6.5178   -2.1815   -0.8722 H       1  UNL1        0.0618
     44 H           5.7433   -2.5628    1.4500 H       1  UNL1        0.0618
     45 H           3.8416   -4.0131    1.9010 H       1  UNL1        0.0621
     46 H           3.1843   -7.2053   -0.7735 H       1  UNL1        0.0337
     47 H           4.7303   -6.5326    1.0577 H       1  UNL1        0.0269
     48 H           3.5232   -6.9778    2.2604 H       1  UNL1        0.0269
     49 H           5.1654   -8.7529    2.0130 H       1  UNL1        0.0265
     50 H           4.9282   -8.8079    0.2686 H       1  UNL1        0.0265
     51 H           2.8930   -9.5674    2.4190 H       1  UNL1        0.0265
     52 H           3.7127  -10.6609    1.3062 H       1  UNL1        0.0265
     53 H           1.3837  -10.1615    0.5652 H       1  UNL1        0.0265
     54 H           2.5762   -9.6418   -0.6226 H       1  UNL1        0.0265
     55 H           1.1409   -7.8671    1.3983 H       1  UNL1        0.0269
     56 H           0.8649   -7.9082   -0.3379 H       1  UNL1        0.0269
     57 H           1.7357   -5.5712   -1.7504 H       1  UNL1        0.2113
     58 H          -3.4108   -5.3107    0.5425 H       1  UNL1        0.2043
@<TRIPOS>UNITY_ATOM_ATTR
3 1
charge 1
@<TRIPOS>BOND
     1     1     2    1
     2     1    27    1
     3     1    28    1
     4     1    29    1
     5     2     3    1
     6     2    30    1
     7     2    31    1
     8     3     4    1
     9     3     6    1
    10     3    58    1
    11     4     5    1
    12     4    32    1
    13     4    33    1
    14     5    34    1
    15     5    35    1
    16     5    36    1
    17     6     7    1
    18     6    37    1
    19     6    38    1
    20     7     8    3
    21     8     9    1
    22     9    10    1
    23     9    39    1
    24     9    40    1
    25    10    11    1
    26    11    12    2
    27    13    11    1
    28    13    14    1
    29    13    20    1
    30    13    26    1
    31    14    19   ar
    32    14    15   ar
    33    15    16   ar
    34    15    41    1
    35    16    17   ar
    36    16    42    1
    37    17    18   ar
    38    17    43    1
    39    18    19   ar
    40    18    44    1
    41    19    45    1
    42    20    25    1
    43    20    21    1
    44    20    46    1
    45    21    22    1
    46    21    47    1
    47    21    48    1
    48    22    23    1
    49    22    49    1
    50    22    50    1
    51    23    24    1
    52    23    51    1
    53    23    52    1
    54    24    25    1
    55    24    53    1
    56    24    54    1
    57    25    55    1
    58    25    56    1
    59    26    57    1
