@<TRIPOS>MOLECULE
ZINC00001341
 28 28 0 0 0
SMALL
GASTEIGER

@<TRIPOS>ATOM
      1 C          -0.7345   -0.6639    0.5499 C.3     1  UNL1       -0.0108
      2 C           0.6693   -1.2133    0.4287 C.3     1  UNL1        0.0889
      3 N           1.0783   -2.3503    1.4133 N.pl3   1  UNL1       -0.3809
      4 C           1.0464   -1.8537    2.8647 C.3     1  UNL1        0.0813
      5 C           0.1795   -3.5803    1.3058 C.3     1  UNL1        0.0813
      6 C           2.5392   -2.6934    1.0102 C.ar    1  UNL1        0.1491
      7 C           2.8549   -2.8096   -0.3587 C.ar    1  UNL1        0.0039
      8 C           4.1454   -2.5345   -0.8235 C.ar    1  UNL1       -0.0523
      9 C           5.1536   -2.2395    0.0800 C.ar    1  UNL1       -0.0198
     10 C           4.8936   -2.3243    1.4406 C.ar    1  UNL1        0.1229
     11 C           3.5983   -2.5599    1.9155 C.ar    1  UNL1        0.0450
     12 O           5.8496   -2.0485    2.3774 O.3     1  UNL1       -0.5066
     13 H          -1.3767   -1.1846    1.2575 H       1  UNL1        0.0289
     14 H          -1.2152   -0.7036   -0.4388 H       1  UNL1        0.0289
     15 H          -0.6959    0.3989    0.8115 H       1  UNL1        0.0289
     16 H           0.7290   -1.6290   -0.5817 H       1  UNL1        0.0965
     17 H           1.4092   -0.4131    0.5358 H       1  UNL1        0.0965
     18 H           0.0275   -1.5534    3.1225 H       1  UNL1        0.0931
     19 H           1.3410   -2.6860    3.5233 H       1  UNL1        0.0931
     20 H           1.7277   -1.0063    2.9819 H       1  UNL1        0.0931
     21 H           0.7290   -4.4248    0.8906 H       1  UNL1        0.0931
     22 H          -0.1929   -3.8437    2.3062 H       1  UNL1        0.0931
     23 H          -0.6845   -3.3402    0.6790 H       1  UNL1        0.0931
     24 H           2.0970   -3.0103   -1.1082 H       1  UNL1        0.0681
     25 H           4.3486   -2.4771   -1.8901 H       1  UNL1        0.0621
     26 H           6.1453   -1.9615   -0.2810 H       1  UNL1        0.0654
     27 H           3.4692   -2.5653    2.9893 H       1  UNL1        0.0718
     28 H           6.6793   -1.7976    1.9314 H       1  UNL1        0.2921
@<TRIPOS>UNITY_ATOM_ATTR
3 1
charge 1
@<TRIPOS>BOND
     1     1     2    1
     2     1    13    1
     3     1    14    1
     4     1    15    1
     5     2     3    1
     6     2    16    1
     7     2    17    1
     8     3     4    1
     9     3     5    1
    10     3     6    1
    11     4    18    1
    12     4    19    1
    13     4    20    1
    14     5    21    1
    15     5    22    1
    16     5    23    1
    17     6    11   ar
    18     6     7   ar
    19     7     8   ar
    20     7    24    1
    21     8     9   ar
    22     8    25    1
    23     9    10   ar
    24     9    26    1
    25    10    11   ar
    26    10    12    1
    27    11    27    1
    28    12    28    1
