@<TRIPOS>MOLECULE
ZINC03871703
 52 54 0 0 0
SMALL
GASTEIGER

@<TRIPOS>ATOM
      1 C           3.2136   -2.4221    2.1302 C.ar    1  UNL1       -0.0585
      2 C           3.0030   -2.0135    3.4404 C.ar    1  UNL1       -0.0436
      3 C           2.0788   -2.7120    4.1932 C.ar    1  UNL1        0.0280
      4 N           1.3442   -3.7702    3.7364 N.ar    1  UNL1       -0.2569
      5 C           1.5616   -4.1853    2.4687 C.ar    1  UNL1        0.0744
      6 C           2.4987   -3.5161    1.6532 C.ar    1  UNL1       -0.0375
      7 C           0.7521   -5.3318    1.8107 C.3     1  UNL1        0.1257
      8 H           1.5471   -6.0394    1.5306 H       1  UNL1        0.0713
      9 C          -0.2556   -6.2408    2.5545 C.ar    1  UNL1       -0.0129
     10 C          -0.8404   -7.3108    1.8318 C.ar    1  UNL1       -0.0544
     11 C          -1.8840   -8.0868    2.3582 C.ar    1  UNL1       -0.0430
     12 C          -2.3451   -7.8388    3.6436 C.ar    1  UNL1        0.0410
     13 C          -1.7620   -6.8296    4.4031 C.ar    1  UNL1       -0.0430
     14 C          -0.7205   -6.0453    3.8687 C.ar    1  UNL1       -0.0544
     15 CL         -3.6434   -8.7700    4.2841 Cl      1  UNL1       -0.0835
     16 O           0.2914   -4.7784    0.5390 O.3     1  UNL1       -0.3622
     17 C          -1.0889   -4.5608    0.2524 C.3     1  UNL1        0.0696
     18 C          -1.2018   -3.6707   -1.0032 C.3     1  UNL1        0.0140
     19 C          -1.2347   -2.1456   -0.7846 C.3     1  UNL1       -0.0295
     20 C          -1.4805   -2.5663    1.6706 C.3     1  UNL1       -0.0295
     21 C          -1.9312   -3.9680    1.3668 C.3     1  UNL1        0.0140
     22 C          -3.2598   -1.2143    0.5707 C.3     1  UNL1       -0.0314
     23 C          -3.5478    0.1254   -0.1195 C.3     1  UNL1       -0.0023
     24 C          -2.8074    1.3547    0.4217 C.3     1  UNL1        0.0540
     25 C          -1.3344    1.1812    0.1077 C.2     1  UNL1        0.3562
     26 O          -0.7297    0.4795    0.9814 O.co2   1  UNL1       -0.2464
     27 H           3.9152   -1.8884    1.4913 H       1  UNL1        0.0619
     28 H           3.5428   -1.1641    3.8474 H       1  UNL1        0.0633
     29 H           1.8975   -2.4191    5.2249 H       1  UNL1        0.0829
     30 H           2.6491   -3.8224    0.6190 H       1  UNL1        0.0636
     31 H          -0.5185   -7.5147    0.8113 H       1  UNL1        0.0622
     32 H          -2.3427   -8.8644    1.7520 H       1  UNL1        0.0632
     33 H          -2.1328   -6.6273    5.4068 H       1  UNL1        0.0632
     34 H          -0.3331   -5.2445    4.4936 H       1  UNL1        0.0622
     35 H          -1.4915   -5.5378   -0.0339 H       1  UNL1        0.0600
     36 H          -0.3717   -3.8944   -1.6897 H       1  UNL1        0.0342
     37 H          -2.1168   -3.9547   -1.5378 H       1  UNL1        0.0342
     38 H          -0.2092   -1.7600   -0.7925 H       1  UNL1        0.0815
     39 H          -1.7802   -1.6585   -1.6002 H       1  UNL1        0.0815
     40 H          -1.9720   -2.1797    2.5681 H       1  UNL1        0.0815
     41 H          -0.4030   -2.4732    1.8139 H       1  UNL1        0.0815
     42 H          -2.9860   -4.0016    1.0705 H       1  UNL1        0.0342
     43 H          -1.8844   -4.5260    2.2903 H       1  UNL1        0.0342
     44 H          -3.8967   -2.0063    0.1611 H       1  UNL1        0.0814
     45 H          -3.5168   -1.0971    1.6309 H       1  UNL1        0.0814
     46 H          -3.3985    0.0307   -1.1996 H       1  UNL1        0.0322
     47 H          -4.6194    0.3227    0.0244 H       1  UNL1        0.0322
     48 H          -3.1768    2.2655   -0.0594 H       1  UNL1        0.0381
     49 H          -2.9590    1.4640    1.5024 H       1  UNL1        0.0381
     50 N          -1.8413   -1.7082    0.5187 N.4     1  UNL1        0.2354
     51 H          -1.2695   -0.8533    0.7558 H       1  UNL1        0.2033
     52 O          -0.9695    1.4747   -1.0491 O.co2   1  UNL1       -0.2464
@<TRIPOS>UNITY_ATOM_ATTR
50 1
charge 1
@<TRIPOS>BOND
     1     1     6   ar
     2     1     2   ar
     3     1    27    1
     4     2     3   ar
     5     2    28    1
     6     3     4   ar
     7     3    29    1
     8     4     5   ar
     9     5     6   ar
    10     5     7    1
    11     6    30    1
    12     7     8    1
    13     7     9    1
    14     7    16    1
    15     9    14   ar
    16     9    10   ar
    17    10    11   ar
    18    10    31    1
    19    11    12   ar
    20    11    32    1
    21    12    13   ar
    22    12    15    1
    23    13    14   ar
    24    13    33    1
    25    14    34    1
    26    16    17    1
    27    17    21    1
    28    17    18    1
    29    17    35    1
    30    18    19    1
    31    18    36    1
    32    18    37    1
    33    19    38    1
    34    19    39    1
    35    19    50    1
    36    20    21    1
    37    20    40    1
    38    20    41    1
    39    20    50    1
    40    21    42    1
    41    21    43    1
    42    22    23    1
    43    22    44    1
    44    22    45    1
    45    22    50    1
    46    23    24    1
    47    23    46    1
    48    23    47    1
    49    24    25    1
    50    24    48    1
    51    24    49    1
    52    25    26   ar
    53    25    52   ar
    54    50    51    1
