@<TRIPOS>MOLECULE
ZINC03798247
 31 33 0 0 0
SMALL
GASTEIGER

@<TRIPOS>ATOM
      1 C           3.5594   -4.0141    1.3280 C.ar    1  UNL1        0.1004
      2 N           4.8112   -4.4198    1.4030 N.ar    1  UNL1       -0.2306
      3 C           5.4621   -3.7602    0.3811 C.ar    1  UNL1        0.1474
      4 C           6.7843   -3.8015   -0.0945 C.ar    1  UNL1        0.1487
      5 N           7.1346   -2.9815   -1.1102 N.ar    1  UNL1       -0.2006
      6 C           6.1755   -2.1995   -1.6445 C.ar    1  UNL1        0.2264
      7 N           4.8672   -2.1109   -1.3244 N.ar    1  UNL1       -0.1976
      8 C           4.5896   -2.9184   -0.2879 C.ar    1  UNL1        0.1689
      9 N           3.3732   -3.1269    0.3036 N.ar    1  UNL1       -0.2852
     10 C           2.1264   -2.6061   -0.2076 C.3     1  UNL1        0.1718
     11 H           2.2842   -1.5584   -0.4920 H       1  UNL1        0.0869
     12 C           1.5779   -3.4265   -1.3640 C.3     1  UNL1        0.1740
     13 H           2.1035   -3.2401   -2.3041 H       1  UNL1        0.0724
     14 C           0.1248   -3.0245   -1.3599 C.3     1  UNL1        0.1187
     15 H          -0.5362   -3.7685   -1.8144 H       1  UNL1        0.0650
     16 C          -0.1644   -2.8232    0.1350 C.3     1  UNL1        0.1129
     17 H          -0.7703   -1.9276    0.3168 H       1  UNL1        0.0647
     18 O           1.1069   -2.6131    0.8135 O.3     1  UNL1       -0.3453
     19 C          -0.8300   -4.0450    0.7720 C.3     1  UNL1        0.0730
     20 O          -1.0960   -3.7897    2.1488 O.3     1  UNL1       -0.3924
     21 O          -0.0344   -1.7930   -2.0691 O.3     1  UNL1       -0.3861
     22 F           1.6492   -4.7591   -1.0878 F       1  UNL1       -0.2380
     23 CL          6.6825   -1.1767   -2.9188 Cl      1  UNL1       -0.0409
     24 N           7.7456   -4.6570    0.4192 N.pl3   1  UNL1       -0.3413
     25 H           2.7507   -4.3456    1.9681 H       1  UNL1        0.1030
     26 H          -1.7796   -4.2748    0.2819 H       1  UNL1        0.0584
     27 H          -0.1814   -4.9278    0.7233 H       1  UNL1        0.0584
     28 H          -0.2694   -3.4356    2.5284 H       1  UNL1        0.2095
     29 H          -0.0132   -1.9920   -3.0247 H       1  UNL1        0.2100
     30 H           7.5346   -5.0283    1.3383 H       1  UNL1        0.1438
     31 H           8.6944   -4.3762    0.2161 H       1  UNL1        0.1438
@<TRIPOS>BOND
     1     1     9   ar
     2     1     2   ar
     3     1    25    1
     4     2     3   ar
     5     3     8   ar
     6     3     4   ar
     7     4     5   ar
     8     4    24    1
     9     5     6   ar
    10     6     7   ar
    11     6    23    1
    12     7     8   ar
    13     8     9   ar
    14    10    18    1
    15    10    12    1
    16    12    13    1
    17    12    14    1
    18    12    22    1
    19    14    15    1
    20    14    16    1
    21    14    21    1
    22    16    18    1
    23    19    20    1
    24    19    26    1
    25    19    27    1
    26    20    28    1
    27    21    29    1
    28    24    30    1
    29    24    31    1
    30    10    11    1
    31    10     9    1
    32    16    19    1
    33    16    17    1
