@<TRIPOS>MOLECULE
ZINC00114127
 20 19 0 0 0
SMALL
GASTEIGER

@<TRIPOS>ATOM
      1 C          -2.1831    1.3289    2.5230 C.3     1  UNL1       -0.0452
      2 C          -1.4210    0.5342    1.4423 C.3     1  UNL1        0.0611
      3 C          -2.3270   -0.6167    0.9796 C.3     1  UNL1       -0.0452
      4 CA         -1.0051    1.4697    0.2752 C.3     1  UNL1        0.0926
      5 HA         -1.8703    2.0189   -0.1145 H       1  UNL1        0.0983
      6 C          -0.3222    0.7146   -0.9023 C.2     1  UNL1        0.4039
      7 O           0.9361    0.8847   -0.8735 O.co2   1  UNL1       -0.2399
      8 OXT        -1.0777    0.1634   -1.7313 O.co2   1  UNL1       -0.2399
      9 N          -0.0402    2.5456    0.7774 N.4     1  UNL1        0.2299
     10 S           0.0574   -0.1848    2.2934 S.3     1  UNL1       -0.1658
     11 H          -3.0654    1.8160    2.0919 H       1  UNL1        0.0245
     12 H          -1.5710    2.1114    2.9847 H       1  UNL1        0.0245
     13 H          -2.5385    0.6772    3.3312 H       1  UNL1        0.0245
     14 H          -3.2180   -0.2247    0.4746 H       1  UNL1        0.0245
     15 H          -1.8235   -1.2976    0.2858 H       1  UNL1        0.0245
     16 H          -2.6784   -1.2202    1.8256 H       1  UNL1        0.0245
     17 H1          0.2743    3.0768   -0.0456 H       1  UNL1        0.2003
     18 H2         -0.3547    3.1419    1.5379 H       1  UNL1        0.2003
     19 H           0.5655   -0.8252    1.2213 H       1  UNL1        0.1024
     20 H3          0.8127    2.0132    1.0262 H       1  UNL1        0.2003
@<TRIPOS>UNITY_ATOM_ATTR
9 1
charge 1
@<TRIPOS>BOND
     1     1     2    1
     2     1    11    1
     3     1    12    1
     4     1    13    1
     5     2     3    1
     6     2    10    1
     7     3    14    1
     8     3    15    1
     9     3    16    1
    10     4     6    1
    11     4     9    1
    12     6     7   ar
    13     6     8   ar
    14     9    17    1
    15     9    18    1
    16     9    20    1
    17    10    19    1
    18     4     5    1
    19     4     2    1
