@<TRIPOS>MOLECULE
ZINC00004724
 31 33 0 0 0
SMALL
GASTEIGER

@<TRIPOS>ATOM
      1 C          -3.6066    0.0289    0.7562 C.ar    1  UNL1       -0.0614
      2 C          -3.2314   -1.3031    0.6156 C.ar    1  UNL1       -0.0600
      3 C          -2.0272   -1.6274   -0.0094 C.ar    1  UNL1       -0.0396
      4 C          -1.1735   -0.6214   -0.4876 C.ar    1  UNL1        0.0464
      5 C          -1.5683    0.7160   -0.3679 C.ar    1  UNL1       -0.0181
      6 C          -2.7791    1.0369    0.2637 C.ar    1  UNL1       -0.0564
      7 C          -0.6987    1.7910   -0.9381 C.3     1  UNL1        0.0375
      8 C           0.5489    1.9504   -0.1221 C.2     1  UNL1        0.1693
      9 O           0.8280    3.0378    0.3857 O.2     1  UNL1       -0.2916
     10 C           1.4791    0.7901    0.0338 C.ar    1  UNL1        0.0395
     11 C           2.6998    1.0949    0.6780 C.ar    1  UNL1       -0.0494
     12 C           3.6994    0.1390    0.8355 C.ar    1  UNL1       -0.0610
     13 C           3.4880   -1.1466    0.3686 C.ar    1  UNL1       -0.0600
     14 C           2.2829   -1.4652   -0.2626 C.ar    1  UNL1       -0.0392
     15 C           1.2586   -0.5111   -0.4717 C.ar    1  UNL1        0.0532
     16 N           0.0554   -0.9570   -1.1402 N.am    1  UNL1       -0.2237
     17 C           0.0279   -1.9207   -2.1590 C.2     1  UNL1        0.3084
     18 O          -0.9581   -2.5388   -2.5518 O.2     1  UNL1       -0.2521
     19 N           1.1956   -2.1122   -2.8408 N.am    1  UNL1       -0.3126
     20 H          -4.5448    0.2836    1.2394 H       1  UNL1        0.0618
     21 H          -3.8796   -2.0933    0.9879 H       1  UNL1        0.0618
     22 H          -1.7530   -2.6775   -0.1109 H       1  UNL1        0.0636
     23 H          -3.0903    2.0752    0.3660 H       1  UNL1        0.0621
     24 H          -0.4347    1.5851   -1.9822 H       1  UNL1        0.0394
     25 H          -1.2314    2.7496   -0.9483 H       1  UNL1        0.0394
     26 H           2.8851    2.1005    1.0558 H       1  UNL1        0.0625
     27 H           4.6327    0.4013    1.3278 H       1  UNL1        0.0618
     28 H           4.2507   -1.9100    0.5038 H       1  UNL1        0.0618
     29 H           2.1419   -2.5039   -0.5607 H       1  UNL1        0.0636
     30 H           1.8285   -1.3300   -2.9305 H       1  UNL1        0.1465
     31 H           1.0849   -2.6789   -3.6719 H       1  UNL1        0.1465
@<TRIPOS>BOND
     1     1     6   ar
     2     1     2   ar
     3     1    20    1
     4     2     3   ar
     5     2    21    1
     6     3     4   ar
     7     3    22    1
     8     4    16    1
     9     4     5   ar
    10     5     6   ar
    11     5     7    1
    12     6    23    1
    13     7     8    1
    14     7    24    1
    15     7    25    1
    16     8     9    2
    17     8    10    1
    18    10    15   ar
    19    10    11   ar
    20    11    12   ar
    21    11    26    1
    22    12    13   ar
    23    12    27    1
    24    13    14   ar
    25    13    28    1
    26    14    15   ar
    27    14    29    1
    28    15    16    1
    29    16    17   am
    30    17    18    2
    31    17    19   am
    32    19    30    1
    33    19    31    1
