@<TRIPOS>MOLECULE
ZINC00000053
 20 20 0 0 0
SMALL
GASTEIGER

@<TRIPOS>ATOM
      1 C           2.6068   -1.3904   -0.8791 C.3     1  UNL1        0.0336
      2 C           1.7654   -2.6117   -0.6535 C.2     1  UNL1        0.3092
      3 O           1.8569   -3.6164   -1.3493 O.2     1  UNL1       -0.2507
      4 O           0.9630   -2.4212    0.4624 O.3     1  UNL1       -0.4252
      5 C           0.3139   -3.5484    0.9958 C.ar    1  UNL1        0.1457
      6 C           1.1011   -4.6723    1.2953 C.ar    1  UNL1       -0.0184
      7 C           0.5351   -5.7949    1.8877 C.ar    1  UNL1       -0.0582
      8 C          -0.8139   -5.7865    2.2146 C.ar    1  UNL1       -0.0608
      9 C          -1.5892   -4.6531    1.9492 C.ar    1  UNL1       -0.0440
     10 C          -1.0452   -3.5012    1.3392 C.ar    1  UNL1        0.1054
     11 C          -1.9470   -2.3040    1.0984 C.2     1  UNL1        0.3901
     12 O          -3.1546   -2.4068    1.4954 O.co2   1  UNL1       -0.2405
     13 O          -1.4592   -1.2797    0.5254 O.co2   1  UNL1       -0.2405
     14 H           3.6122   -1.7125   -1.1705 H       1  UNL1        0.0342
     15 H           2.7095   -0.8168    0.0461 H       1  UNL1        0.0342
     16 H           2.1696   -0.7689   -1.6617 H       1  UNL1        0.0342
     17 H           2.1604   -4.6733    1.0592 H       1  UNL1        0.0654
     18 H           1.1494   -6.6641    2.0929 H       1  UNL1        0.0619
     19 H          -1.2712   -6.6541    2.6791 H       1  UNL1        0.0618
     20 H          -2.6452   -4.6562    2.2239 H       1  UNL1        0.0627
@<TRIPOS>BOND
     1     1     2    1
     2     1    14    1
     3     1    15    1
     4     1    16    1
     5     2     3    2
     6     2     4    1
     7     4     5    1
     8     5    10   ar
     9     5     6   ar
    10     6     7   ar
    11     6    17    1
    12     7     8   ar
    13     7    18    1
    14     8     9   ar
    15     8    19    1
    16     9    10   ar
    17     9    20    1
    18    10    11    1
    19    11    12   ar
    20    11    13   ar
