@<TRIPOS>MOLECULE
ZINC01530725
 28 29 0 0 0
SMALL
GASTEIGER

@<TRIPOS>ATOM
      1 C           2.2138    0.0458   -0.9085 C.ar    1  UNL1       -0.0614
      2 C           1.8152    1.2223   -0.2936 C.ar    1  UNL1       -0.0604
      3 C           0.6286    1.2510    0.4321 C.ar    1  UNL1       -0.0431
      4 C          -0.1646    0.0997    0.5565 C.ar    1  UNL1        0.0448
      5 C           0.2126   -1.1051   -0.0613 C.ar    1  UNL1       -0.0191
      6 C           1.4247   -1.1006   -0.7925 C.ar    1  UNL1       -0.0565
      7 C          -0.5233   -2.4523    0.0400 C.3     1  UNL1        0.0405
      8 H          -0.1594   -3.0406   -0.8188 H       1  UNL1        0.0424
      9 C          -0.0536   -3.2317    1.2764 C.ar    1  UNL1       -0.0373
     10 C           1.0140   -4.1409    1.1467 C.ar    1  UNL1       -0.0565
     11 C           1.4297   -4.9178    2.2290 C.ar    1  UNL1       -0.0431
     12 C           0.7885   -4.7886    3.4566 C.ar    1  UNL1        0.0410
     13 C          -0.2495   -3.8745    3.6143 C.ar    1  UNL1       -0.0431
     14 C          -0.6653   -3.0936    2.5317 C.ar    1  UNL1       -0.0565
     15 CL          1.2728   -5.7730    4.7810 Cl      1  UNL1       -0.0835
     16 C          -2.0645   -2.4645   -0.1746 C.3     1  UNL1        0.1186
     17 CL         -2.5088   -1.7531   -1.7617 Cl      1  UNL1       -0.1036
     18 CL         -2.7265   -4.1446   -0.1506 Cl      1  UNL1       -0.1036
     19 CL         -1.5862    0.2796    1.5178 Cl      1  UNL1       -0.0832
     20 H           3.1450    0.0104   -1.4692 H       1  UNL1        0.0618
     21 H           2.4315    2.1155   -0.3703 H       1  UNL1        0.0618
     22 H           0.3289    2.1780    0.9172 H       1  UNL1        0.0632
     23 H           1.7745   -2.0074   -1.2833 H       1  UNL1        0.0621
     24 H           1.5200   -4.2683    0.1913 H       1  UNL1        0.0621
     25 H           2.2422   -5.6282    2.1030 H       1  UNL1        0.0632
     26 H          -0.7505   -3.7736    4.5737 H       1  UNL1        0.0632
     27 H          -1.4858   -2.3989    2.6891 H       1  UNL1        0.0621
     28 H          -2.6231   -1.9285    0.5903 H       1  UNL1        0.0643
@<TRIPOS>BOND
     1     1     6   ar
     2     1     2   ar
     3     1    20    1
     4     2     3   ar
     5     2    21    1
     6     3     4   ar
     7     3    22    1
     8     4     5   ar
     9     4    19    1
    10     5     6   ar
    11     5     7    1
    12     6    23    1
    13     7     8    1
    14     7     9    1
    15     7    16    1
    16     9    14   ar
    17     9    10   ar
    18    10    11   ar
    19    10    24    1
    20    11    12   ar
    21    11    25    1
    22    12    13   ar
    23    12    15    1
    24    13    14   ar
    25    13    26    1
    26    14    27    1
    27    16    17    1
    28    16    18    1
    29    16    28    1
