@<TRIPOS>MOLECULE
ZINC03871701
 40 42 0 0 0
SMALL
GASTEIGER

@<TRIPOS>ATOM
      1 C           2.4375    0.8452   -0.1354 C.3     1  UNL1       -0.0484
      2 C           1.6236    0.3119    1.0505 C.3     1  UNL1        0.0419
      3 CA          0.2712    1.0370    1.2013 C.3     1  UNL1        0.1423
      4 HA         -0.0322    1.4138    0.2132 H       1  UNL1        0.0632
      5 N          -0.7465    0.0402    1.5801 N.am    1  UNL1       -0.2707
      6 C          -0.4187   -1.3820    1.4616 C.3     1  UNL1        0.1005
      7 H          -0.4326   -1.8842    2.4372 H       1  UNL1        0.0640
      8 S           1.1906   -1.4543    0.6171 S.3     1  UNL1       -0.1273
      9 CA         -1.7102   -1.5703    0.6342 C.3     1  UNL1        0.1277
     10 HA         -2.4845   -2.1491    1.1515 H       1  UNL1        0.0622
     11 C          -1.8923   -0.0500    0.8463 C.2     1  UNL1        0.2402
     12 O          -2.5993    0.7779    0.3120 O.2     1  UNL1       -0.2734
     13 N          -1.6288   -1.9308   -0.8195 N.am    1  UNL1       -0.3015
     14 C          -2.0302   -3.1513   -1.3120 C.2     1  UNL1        0.2180
     15 O          -2.2818   -4.1086   -0.5889 O.2     1  UNL1       -0.2754
     16 C          -2.1840   -3.2092   -2.8225 C.3     1  UNL1        0.0491
     17 C          -0.8697   -3.3411   -3.5469 C.ar    1  UNL1       -0.0386
     18 C          -0.3977   -2.3062   -4.3653 C.ar    1  UNL1       -0.0581
     19 C           0.8633   -2.3946   -4.9574 C.ar    1  UNL1       -0.0615
     20 C           1.6569   -3.5208   -4.7482 C.ar    1  UNL1       -0.0617
     21 C           1.1777   -4.5753   -3.9741 C.ar    1  UNL1       -0.0615
     22 C          -0.0830   -4.4894   -3.3816 C.ar    1  UNL1       -0.0581
     23 C           0.3553    2.3052    2.0920 C.2     1  UNL1        0.3774
     24 O           1.0855    3.2288    1.6234 O.co2   1  UNL1       -0.2442
     25 OXT        -0.2804    2.2741    3.1837 O.co2   1  UNL1       -0.2442
     26 C           2.5004    0.3193    2.3122 C.3     1  UNL1       -0.0484
     27 H           2.6929    1.9005    0.0017 H       1  UNL1        0.0244
     28 H           3.3816    0.2990   -0.2525 H       1  UNL1        0.0244
     29 H           1.8836    0.7627   -1.0779 H       1  UNL1        0.0244
     30 H          -1.4857   -1.1716   -1.4809 H       1  UNL1        0.1495
     31 H          -2.8275   -4.0617   -3.0746 H       1  UNL1        0.0407
     32 H          -2.7291   -2.3144   -3.1481 H       1  UNL1        0.0407
     33 H          -0.9981   -1.4154   -4.5350 H       1  UNL1        0.0620
     34 H           1.2348   -1.5743   -5.5662 H       1  UNL1        0.0618
     35 H           2.6530   -3.5715   -5.1791 H       1  UNL1        0.0618
     36 H           1.7936   -5.4557   -3.8120 H       1  UNL1        0.0618
     37 H          -0.4386   -5.3149   -2.7665 H       1  UNL1        0.0620
     38 H           3.3738   -0.3357    2.2037 H       1  UNL1        0.0244
     39 H           2.8986    1.3240    2.5042 H       1  UNL1        0.0244
     40 H           1.9516    0.0082    3.2071 H       1  UNL1        0.0244
@<TRIPOS>BOND
     1     1     2    1
     2     1    27    1
     3     1    28    1
     4     1    29    1
     5     2     8    1
     6     2     3    1
     7     2    26    1
     8     3     4    1
     9     3     5    1
    10     3    23    1
    11     5    11   am
    12     5     6    1
    13     6     7    1
    14     6     8    1
    15     6     9    1
    16     9    10    1
    17     9    11    1
    18     9    13    1
    19    11    12    2
    20    13    14   am
    21    13    30    1
    22    14    15    2
    23    14    16    1
    24    16    17    1
    25    16    31    1
    26    16    32    1
    27    17    22   ar
    28    17    18   ar
    29    18    19   ar
    30    18    33    1
    31    19    20   ar
    32    19    34    1
    33    20    21   ar
    34    20    35    1
    35    21    22   ar
    36    21    36    1
    37    22    37    1
    38    23    24   ar
    39    23    25   ar
    40    26    38    1
    41    26    39    1
    42    26    40    1
