@<TRIPOS>MOLECULE
ZINC00000575
 31 33 0 0 0
SMALL
GASTEIGER

@<TRIPOS>ATOM
      1 C           1.1783   -0.4336   -0.2632 C.ar    1  UNL1       -0.0617
      2 C           0.8066    0.5700    0.6284 C.ar    1  UNL1       -0.0611
      3 C          -0.5474    0.8153    0.8969 C.ar    1  UNL1       -0.0526
      4 C          -1.5478    0.0644    0.2677 C.ar    1  UNL1        0.0007
      5 C          -1.1544   -0.9352   -0.6383 C.ar    1  UNL1       -0.0526
      6 C           0.1957   -1.1870   -0.8980 C.ar    1  UNL1       -0.0611
      7 C          -3.0333    0.3534    0.3460 C.2     1  UNL1        0.0780
      8 N          -3.8505   -0.6173    0.1161 N.2     1  UNL1       -0.2428
      9 C          -5.2398   -0.2725   -0.2080 C.3     1  UNL1        0.2246
     10 H          -5.7257   -1.2407   -0.3944 H       1  UNL1        0.0952
     11 C          -5.3094    0.4788   -1.5842 C.2     1  UNL1        0.2686
     12 O          -6.1876    0.2037   -2.4249 O.2     1  UNL1       -0.2705
     13 N          -4.4294    1.4980   -1.9136 N.am    1  UNL1       -0.2812
     14 C          -3.5906    2.1895   -1.0168 C.ar    1  UNL1        0.0428
     15 C          -3.4679    1.7841    0.3043 C.ar    1  UNL1        0.0232
     16 C          -3.0692    2.6642    1.2998 C.ar    1  UNL1       -0.0324
     17 C          -2.3829    3.8014    0.8952 C.ar    1  UNL1        0.0417
     18 C          -2.1639    4.0421   -0.4648 C.ar    1  UNL1       -0.0416
     19 C          -2.8405    3.2831   -1.4250 C.ar    1  UNL1       -0.0385
     20 CL         -1.6670    4.8259    2.0754 Cl      1  UNL1       -0.0835
     21 O          -5.9774    0.3452    0.8288 O.3     1  UNL1       -0.3636
     22 H           2.2289   -0.6272   -0.4643 H       1  UNL1        0.0618
     23 H           1.5743    1.1692    1.1135 H       1  UNL1        0.0618
     24 H          -0.7756    1.6038    1.6029 H       1  UNL1        0.0624
     25 H          -1.9044   -1.5076   -1.1791 H       1  UNL1        0.0624
     26 H           0.4749   -1.9627   -1.6062 H       1  UNL1        0.0618
     27 H          -4.5878    1.8876   -2.8330 H       1  UNL1        0.1550
     28 H          -3.1876    2.4087    2.3479 H       1  UNL1        0.0639
     29 H          -1.4804    4.8266   -0.7776 H       1  UNL1        0.0633
     30 H          -2.7293    3.5230   -2.4778 H       1  UNL1        0.0637
     31 H          -6.9121    0.1820    0.6143 H       1  UNL1        0.2125
@<TRIPOS>BOND
     1     1     6   ar
     2     1     2   ar
     3     1    22    1
     4     2     3   ar
     5     2    23    1
     6     3     4   ar
     7     3    24    1
     8     4     5   ar
     9     4     7    1
    10     5     6   ar
    11     5    25    1
    12     6    26    1
    13     7    15    1
    14     7     8    2
    15     8     9    1
    16     9    11    1
    17    11    12    2
    18    11    13   am
    19    13    14    1
    20    13    27    1
    21    14    19   ar
    22    14    15   ar
    23    15    16   ar
    24    16    17   ar
    25    16    28    1
    26    17    18   ar
    27    17    20    1
    28    18    19   ar
    29    18    29    1
    30    19    30    1
    31    21    31    1
    32     9    21    1
    33     9    10    1
