@<TRIPOS>MOLECULE
ZINC03831001
 52 55 0 0 0
SMALL
GASTEIGER

@<TRIPOS>ATOM
      1 C           3.9397    0.7845   -1.7536 C.3     1  UNL1       -0.0492
      2 C           3.2844    1.2616   -0.4648 C.3     1  UNL1        0.0133
      3 N           3.6625    2.6415   -0.1258 N.am    1  UNL1       -0.2862
      4 C           4.7924    2.7776    0.8030 C.3     1  UNL1        0.0133
      5 C           4.4255    2.4862    2.2518 C.3     1  UNL1       -0.0492
      6 C           3.1639    3.7739   -0.7621 C.2     1  UNL1        0.3028
      7 O           3.4693    4.9297   -0.4668 O.2     1  UNL1       -0.2526
      8 N           2.3451    3.5164   -1.8301 N.am    1  UNL1       -0.2879
      9 C           1.7403    4.4682   -2.7576 C.3     1  UNL1        0.0835
     10 H           1.7058    3.9416   -3.7188 H       1  UNL1        0.0596
     11 C           2.4869    5.8008   -2.9877 C.3     1  UNL1       -0.0090
     12 N           2.2683    6.7648   -1.8409 N.4     1  UNL1        0.2403
     13 C           0.7774    7.0654   -1.5924 C.3     1  UNL1        0.0093
     14 H           0.4708    7.7073   -2.4315 H       1  UNL1        0.0907
     15 C           0.6578    7.9062   -0.2765 C.3     1  UNL1        0.0219
     16 C          -0.7022    7.8447    0.3032 C.ar    1  UNL1       -0.0161
     17 C          -1.3255    8.5949    1.2724 C.ar    1  UNL1        0.0061
     18 N          -2.5305    7.9876    1.5520 N.ar    1  UNL1       -0.3603
     19 H          -3.1867    8.2940    2.2618 H       1  UNL1        0.1653
     20 C          -2.6737    6.8566    0.7834 C.ar    1  UNL1        0.0473
     21 C          -1.5811    6.8045   -0.0602 C.ar    1  UNL1        0.0106
     22 C          -1.4102    5.7707   -0.9908 C.ar    1  UNL1       -0.0074
     23 C          -2.4174    4.7943   -1.0461 C.ar    1  UNL1       -0.0534
     24 C          -3.4972    4.8228   -0.1535 C.ar    1  UNL1       -0.0592
     25 C          -3.6508    5.8526    0.7834 C.ar    1  UNL1       -0.0378
     26 C          -0.0978    5.7857   -1.6838 C.2     1  UNL1        0.0062
     27 C           0.3435    4.6535   -2.2627 C.2     1  UNL1       -0.0498
     28 C           3.1435    7.9688   -1.9691 C.3     1  UNL1       -0.0424
     29 H           3.8010    1.4896   -2.5777 H       1  UNL1        0.0245
     30 H           3.5179   -0.1778   -2.0567 H       1  UNL1        0.0245
     31 H           5.0174    0.6581   -1.6115 H       1  UNL1        0.0245
     32 H           2.1939    1.2026   -0.5449 H       1  UNL1        0.0462
     33 H           3.5623    0.5925    0.3558 H       1  UNL1        0.0462
     34 H           5.5715    2.0802    0.4733 H       1  UNL1        0.0462
     35 H           5.2224    3.7827    0.7389 H       1  UNL1        0.0462
     36 H           3.8795    1.5441    2.3619 H       1  UNL1        0.0245
     37 H           5.3338    2.4155    2.8608 H       1  UNL1        0.0245
     38 H           3.8015    3.2840    2.6647 H       1  UNL1        0.0245
     39 H           1.8756    2.6264   -1.8023 H       1  UNL1        0.1510
     40 H           2.1242    6.3031   -3.8923 H       1  UNL1        0.0836
     41 H           3.5653    5.6295   -3.0819 H       1  UNL1        0.0836
     42 H           1.3585    7.5192    0.4741 H       1  UNL1        0.0372
     43 H           0.9267    8.9500   -0.4765 H       1  UNL1        0.0372
     44 H          -1.0128    9.4692    1.8277 H       1  UNL1        0.0810
     45 H          -2.3638    3.9639   -1.7441 H       1  UNL1        0.0624
     46 H          -4.2224    4.0100   -0.1679 H       1  UNL1        0.0618
     47 H          -4.4715    5.8479    1.4932 H       1  UNL1        0.0638
     48 H          -0.2859    3.7702   -2.3315 H       1  UNL1        0.0597
     49 H           3.1153    8.5307   -1.0323 H       1  UNL1        0.0778
     50 H           4.1709    7.6312   -2.1451 H       1  UNL1        0.0778
     51 H           2.7827    8.5708   -2.8062 H       1  UNL1        0.0778
     52 H           2.6129    6.2291   -1.0138 H       1  UNL1        0.2038
@<TRIPOS>UNITY_ATOM_ATTR
12 1
charge 1
@<TRIPOS>BOND
     1     1     2    1
     2     1    29    1
     3     1    30    1
     4     1    31    1
     5     2     3    1
     6     2    32    1
     7     2    33    1
     8     3     4    1
     9     3     6   am
    10     4     5    1
    11     4    34    1
    12     4    35    1
    13     5    36    1
    14     5    37    1
    15     5    38    1
    16     6     7    2
    17     6     8   am
    18     8     9    1
    19     8    39    1
    20     9    10    1
    21     9    27    1
    22     9    11    1
    23    11    12    1
    24    11    40    1
    25    11    41    1
    26    12    13    1
    27    12    28    1
    28    12    52    1
    29    13    14    1
    30    13    26    1
    31    13    15    1
    32    15    16    1
    33    15    42    1
    34    15    43    1
    35    16    21   ar
    36    16    17   ar
    37    17    18   ar
    38    17    44    1
    39    18    19    1
    40    18    20   ar
    41    20    25   ar
    42    20    21   ar
    43    21    22   ar
    44    22    23   ar
    45    22    26    1
    46    23    24   ar
    47    23    45    1
    48    24    25   ar
    49    24    46    1
    50    25    47    1
    51    26    27    2
    52    27    48    1
    53    28    49    1
    54    28    50    1
    55    28    51    1
