@<TRIPOS>MOLECULE
ZINC03831332
 79 80 0 0 0
SMALL
GASTEIGER

@<TRIPOS>ATOM
      1 C          -4.0207   -9.0961   -3.3207 C.3     1  UNL1       -0.0357
      2 C          -2.9245   -8.2512   -3.9080 C.2     1  UNL1        0.0039
      3 C          -2.7422   -6.9254   -3.7134 C.2     1  UNL1        0.0102
      4 C          -1.5618   -6.2625   -4.3464 C.2     1  UNL1        0.1905
      5 O          -1.2055   -5.1441   -4.0131 O.2     1  UNL1       -0.2869
      6 C          -0.8397   -6.9696   -5.4244 C.ar    1  UNL1        0.0327
      7 C           0.0527   -6.2697   -6.2493 C.ar    1  UNL1       -0.0502
      8 C           0.6451   -6.9079   -7.3421 C.ar    1  UNL1       -0.0610
      9 C           0.3652   -8.2478   -7.6007 C.ar    1  UNL1       -0.0610
     10 C          -0.4741   -8.9626   -6.7433 C.ar    1  UNL1       -0.0502
     11 C          -1.0753   -8.3142   -5.6564 C.ar    1  UNL1        0.0327
     12 C          -1.9875   -9.0500   -4.7808 C.2     1  UNL1        0.1900
     13 O          -2.0282  -10.2779   -4.8002 O.2     1  UNL1       -0.2870
     14 C          -3.5619   -6.0465   -2.7855 C.3     1  UNL1       -0.0052
     15 C          -4.3391   -4.9114   -3.4387 C.2     1  UNL1       -0.0806
     16 C          -5.6006   -4.9115   -3.9129 C.2     1  UNL1       -0.0762
     17 C          -6.4331   -6.1513   -4.0598 C.3     1  UNL1       -0.0438
     18 C          -6.2850   -3.6641   -4.4777 C.3     1  UNL1       -0.0320
     19 C          -7.6068   -3.1795   -3.8327 C.3     1  UNL1       -0.0491
     20 C          -7.6779   -2.7594   -2.3522 C.3     1  UNL1       -0.0502
     21 C          -6.8519   -1.5441   -1.8520 C.3     1  UNL1       -0.0439
     22 H          -7.1539   -1.3903   -0.8065 H       1  UNL1        0.0298
     23 C          -7.2095   -0.2714   -2.6198 C.3     1  UNL1       -0.0624
     24 C          -5.3352   -1.7954   -1.8672 C.3     1  UNL1       -0.0505
     25 C          -4.4266   -0.6793   -1.3242 C.3     1  UNL1       -0.0526
     26 C          -4.6186   -0.3715    0.1607 C.3     1  UNL1       -0.0505
     27 C          -3.6673    0.7243    0.6969 C.3     1  UNL1       -0.0439
     28 H          -3.8663    1.6381    0.1241 H       1  UNL1        0.0298
     29 C          -2.1836    0.3728    0.5317 C.3     1  UNL1       -0.0624
     30 C          -3.9899    0.9839    2.1809 C.3     1  UNL1       -0.0505
     31 C          -3.1950    2.1414    2.7967 C.3     1  UNL1       -0.0526
     32 C          -3.4152    3.5018    2.1259 C.3     1  UNL1       -0.0507
     33 C          -4.8758    3.9768    2.1731 C.3     1  UNL1       -0.0467
     34 C          -5.3652    4.0926    3.6170 C.3     1  UNL1       -0.0627
     35 C          -5.0176    5.3160    1.4541 C.3     1  UNL1       -0.0627
     36 H          -4.5574   -9.6064   -4.1286 H       1  UNL1        0.0279
     37 H          -3.6240   -9.8507   -2.6344 H       1  UNL1        0.0279
     38 H          -4.7620   -8.5231   -2.7665 H       1  UNL1        0.0279
     39 H           0.2692   -5.2196   -6.0620 H       1  UNL1        0.0625
     40 H           1.3117   -6.3532   -7.9988 H       1  UNL1        0.0618
     41 H           0.7899   -8.7367   -8.4771 H       1  UNL1        0.0618
     42 H          -0.6828  -10.0118   -6.9443 H       1  UNL1        0.0625
     43 H          -4.2371   -6.6365   -2.1617 H       1  UNL1        0.0357
     44 H          -2.8770   -5.5944   -2.0465 H       1  UNL1        0.0357
     45 H          -3.7803   -3.9757   -3.4424 H       1  UNL1        0.0575
     46 H          -7.3905   -6.0445   -3.5453 H       1  UNL1        0.0274
     47 H          -6.6195   -6.3362   -5.1237 H       1  UNL1        0.0274
     48 H          -5.9502   -7.0374   -3.6598 H       1  UNL1        0.0274
     49 H          -5.5831   -2.8332   -4.5800 H       1  UNL1        0.0310
     50 H          -6.5428   -3.9103   -5.5178 H       1  UNL1        0.0310
     51 H          -7.9861   -2.3486   -4.4415 H       1  UNL1        0.0268
     52 H          -8.3538   -3.9751   -3.9659 H       1  UNL1        0.0268
     53 H          -8.7364   -2.5062   -2.1673 H       1  UNL1        0.0268
     54 H          -7.4869   -3.6292   -1.7125 H       1  UNL1        0.0268
     55 H          -6.7127    0.6018   -2.1859 H       1  UNL1        0.0232
     56 H          -6.9036   -0.3460   -3.6674 H       1  UNL1        0.0232
     57 H          -8.2856   -0.0746   -2.5841 H       1  UNL1        0.0232
     58 H          -5.1179   -2.7270   -1.3323 H       1  UNL1        0.0268
     59 H          -5.0181   -1.9375   -2.8992 H       1  UNL1        0.0268
     60 H          -3.3939   -1.0013   -1.4995 H       1  UNL1        0.0265
     61 H          -4.5584    0.2372   -1.9106 H       1  UNL1        0.0265
     62 H          -5.6486   -0.0297    0.3179 H       1  UNL1        0.0268
     63 H          -4.4944   -1.2903    0.7461 H       1  UNL1        0.0268
     64 H          -1.5247    1.1026    1.0124 H       1  UNL1        0.0232
     65 H          -1.9632   -0.6057    0.9690 H       1  UNL1        0.0232
     66 H          -1.8901    0.3709   -0.5202 H       1  UNL1        0.0232
     67 H          -5.0655    1.1630    2.3035 H       1  UNL1        0.0268
     68 H          -3.7760    0.0776    2.7625 H       1  UNL1        0.0268
     69 H          -3.4378    2.2055    3.8618 H       1  UNL1        0.0265
     70 H          -2.1265    1.9135    2.7744 H       1  UNL1        0.0265
     71 H          -2.7758    4.2375    2.6307 H       1  UNL1        0.0268
     72 H          -3.0653    3.4748    1.0861 H       1  UNL1        0.0268
     73 H          -5.5109    3.2566    1.6434 H       1  UNL1        0.0295
     74 H          -4.6948    4.7281    4.2061 H       1  UNL1        0.0232
     75 H          -6.3717    4.5177    3.6607 H       1  UNL1        0.0232
     76 H          -5.4103    3.1120    4.1017 H       1  UNL1        0.0232
     77 H          -4.6891    5.2346    0.4125 H       1  UNL1        0.0232
     78 H          -6.0636    5.6397    1.4497 H       1  UNL1        0.0232
     79 H          -4.4201    6.0931    1.9412 H       1  UNL1        0.0232
@<TRIPOS>BOND
     1     1     2    1
     2     1    36    1
     3     1    37    1
     4     1    38    1
     5     2    12    1
     6     2     3    2
     7     3     4    1
     8     3    14    1
     9     4     5    2
    10     4     6    1
    11     6    11   ar
    12     6     7   ar
    13     7     8   ar
    14     7    39    1
    15     8     9   ar
    16     8    40    1
    17     9    10   ar
    18     9    41    1
    19    10    11   ar
    20    10    42    1
    21    11    12    1
    22    12    13    2
    23    14    15    1
    24    14    43    1
    25    14    44    1
    26    15    16    2
    27    15    45    1
    28    16    17    1
    29    16    18    1
    30    17    46    1
    31    17    47    1
    32    17    48    1
    33    18    19    1
    34    18    49    1
    35    18    50    1
    36    19    20    1
    37    19    51    1
    38    19    52    1
    39    20    53    1
    40    20    54    1
    41    21    23    1
    42    21    24    1
    43    23    55    1
    44    23    56    1
    45    23    57    1
    46    24    25    1
    47    24    58    1
    48    24    59    1
    49    25    26    1
    50    25    60    1
    51    25    61    1
    52    26    62    1
    53    26    63    1
    54    27    29    1
    55    27    30    1
    56    29    64    1
    57    29    65    1
    58    29    66    1
    59    30    31    1
    60    30    67    1
    61    30    68    1
    62    31    32    1
    63    31    69    1
    64    31    70    1
    65    32    33    1
    66    32    71    1
    67    32    72    1
    68    33    34    1
    69    33    35    1
    70    33    73    1
    71    34    74    1
    72    34    75    1
    73    34    76    1
    74    35    77    1
    75    35    78    1
    76    35    79    1
    77    21    22    1
    78    21    20    1
    79    27    28    1
    80    27    26    1
