@<TRIPOS>MOLECULE
ZINC00020244
 41 42 0 0 0
SMALL
GASTEIGER

@<TRIPOS>ATOM
      1 C          -3.9002   -0.7061   -0.5372 C.3     1  UNL1       -0.0433
      2 N          -3.7434   -1.5592    0.6891 N.4     1  UNL1        0.2325
      3 C          -5.0221   -1.6135    1.4868 C.3     1  UNL1       -0.0433
      4 C          -3.2285   -2.9585    0.4250 C.3     1  UNL1       -0.0084
      5 C          -1.8669   -3.0215   -0.2798 C.3     1  UNL1        0.0887
      6 O          -0.8763   -2.2227    0.3775 O.3     1  UNL1       -0.3621
      7 C           0.4716   -2.6736    0.0521 C.3     1  UNL1        0.1089
      8 C           0.9264   -2.1164   -1.2907 C.ar    1  UNL1       -0.0145
      9 C           0.8277   -2.9361   -2.4332 C.ar    1  UNL1       -0.0558
     10 C           1.2349   -2.4867   -3.6901 C.ar    1  UNL1       -0.0614
     11 C           1.7604   -1.2080   -3.8285 C.ar    1  UNL1       -0.0617
     12 C           1.8604   -0.3723   -2.7151 C.ar    1  UNL1       -0.0614
     13 C           1.4339   -0.8220   -1.4565 C.ar    1  UNL1       -0.0558
     14 C           1.4134   -2.5372    1.2473 C.ar    1  UNL1       -0.0145
     15 C           2.7741   -2.8798    1.1276 C.ar    1  UNL1       -0.0558
     16 C           3.5810   -3.0434    2.2577 C.ar    1  UNL1       -0.0614
     17 C           3.0467   -2.8579    3.5328 C.ar    1  UNL1       -0.0617
     18 C           1.7161   -2.4666    3.6706 C.ar    1  UNL1       -0.0614
     19 C           0.9135   -2.3017    2.5403 C.ar    1  UNL1       -0.0558
     20 H          -4.3464   -1.3074   -1.3331 H       1  UNL1        0.0777
     21 H          -2.9133   -0.3334   -0.8185 H       1  UNL1        0.0777
     22 H          -4.5517    0.1393   -0.2923 H       1  UNL1        0.0777
     23 H          -5.7873   -2.1106    0.8816 H       1  UNL1        0.0777
     24 H          -4.8314   -2.1732    2.4058 H       1  UNL1        0.0777
     25 H          -5.3242   -0.5922    1.7318 H       1  UNL1        0.0777
     26 H          -3.1427   -3.4308    1.4101 H       1  UNL1        0.0837
     27 H          -3.9884   -3.4877   -0.1608 H       1  UNL1        0.0837
     28 H          -1.5691   -4.0771   -0.2693 H       1  UNL1        0.0614
     29 H          -1.9554   -2.7001   -1.3215 H       1  UNL1        0.0614
     30 H           0.4342   -3.7677   -0.0517 H       1  UNL1        0.0697
     31 H           0.4411   -3.9507   -2.3537 H       1  UNL1        0.0621
     32 H           1.1599   -3.1399   -4.5567 H       1  UNL1        0.0618
     33 H           2.0972   -0.8624   -4.8047 H       1  UNL1        0.0618
     34 H           2.2867    0.6180   -2.8294 H       1  UNL1        0.0618
     35 H           1.5455   -0.1568   -0.6015 H       1  UNL1        0.0621
     36 H           3.2126   -3.0749    0.1509 H       1  UNL1        0.0621
     37 H           4.6198   -3.3412    2.1471 H       1  UNL1        0.0618
     38 H           3.6619   -3.0326    4.4120 H       1  UNL1        0.0618
     39 H           1.2998   -2.3126    4.6618 H       1  UNL1        0.0618
     40 H          -0.1236   -2.0175    2.6890 H       1  UNL1        0.0621
     41 H          -3.0243   -1.1026    1.2710 H       1  UNL1        0.2028
@<TRIPOS>UNITY_ATOM_ATTR
2 1
charge 1
@<TRIPOS>BOND
     1     1     2    1
     2     1    20    1
     3     1    21    1
     4     1    22    1
     5     2     3    1
     6     2     4    1
     7     2    41    1
     8     3    23    1
     9     3    24    1
    10     3    25    1
    11     4     5    1
    12     4    26    1
    13     4    27    1
    14     5     6    1
    15     5    28    1
    16     5    29    1
    17     6     7    1
    18     7     8    1
    19     7    14    1
    20     7    30    1
    21     8    13   ar
    22     8     9   ar
    23     9    10   ar
    24     9    31    1
    25    10    11   ar
    26    10    32    1
    27    11    12   ar
    28    11    33    1
    29    12    13   ar
    30    12    34    1
    31    13    35    1
    32    14    19   ar
    33    14    15   ar
    34    15    16   ar
    35    15    36    1
    36    16    17   ar
    37    16    37    1
    38    17    18   ar
    39    17    38    1
    40    18    19   ar
    41    18    39    1
    42    19    40    1
