@<TRIPOS>MOLECULE
ZINC01997125
 31 33 0 0 0
SMALL
GASTEIGER

@<TRIPOS>ATOM
      1 C           1.8942    1.1364    0.0332 C.ar    1  UNL1       -0.0593
      2 C           0.5573    1.5408   -0.0044 C.ar    1  UNL1       -0.0488
      3 C          -0.3946    0.5450   -0.0946 C.ar    1  UNL1        0.0512
      4 C          -0.0493   -0.7922   -0.1715 C.ar    1  UNL1        0.0700
      5 C           1.2640   -1.2312   -0.1399 C.ar    1  UNL1        0.0375
      6 C           2.2382   -0.2341   -0.0044 C.ar    1  UNL1       -0.0403
      7 N           1.5886   -2.5765    0.0336 N.pl3   1  UNL1       -0.3574
      8 C          -1.2875   -1.5586   -0.2524 C.2     1  UNL1        0.2563
      9 O          -1.3439   -2.7553   -0.4738 O.2     1  UNL1       -0.2694
     10 N          -2.3172   -0.6704   -0.1003 N.am    1  UNL1       -0.2220
     11 C          -1.8547    0.6148   -0.0334 C.2     1  UNL1        0.2546
     12 O          -2.4802    1.6469    0.1141 O.2     1  UNL1       -0.2695
     13 C          -3.6994   -1.1055    0.0430 C.3     1  UNL1        0.1109
     14 H          -3.6883   -2.2029    0.0949 H       1  UNL1        0.0602
     15 C          -4.6454   -0.7536   -1.0985 C.3     1  UNL1       -0.0170
     16 C          -5.1479    0.6746   -1.0399 C.3     1  UNL1        0.0265
     17 C          -5.6514    1.0488    0.3308 C.2     1  UNL1        0.2193
     18 O          -6.4377    1.9818    0.5054 O.2     1  UNL1       -0.2754
     19 N          -5.1781    0.3290    1.4009 N.am    1  UNL1       -0.2548
     20 C          -4.2168   -0.6514    1.4034 C.2     1  UNL1        0.2402
     21 O          -3.7420   -1.0593    2.4624 O.2     1  UNL1       -0.2733
     22 H           2.6828    1.8802    0.1358 H       1  UNL1        0.0618
     23 H           0.2781    2.5870    0.0713 H       1  UNL1        0.0625
     24 H           3.2851   -0.5129    0.1022 H       1  UNL1        0.0636
     25 H           0.8556   -3.2202   -0.2767 H       1  UNL1        0.1423
     26 H           2.5163   -2.8564   -0.2646 H       1  UNL1        0.1423
     27 H          -5.5213   -1.4144   -1.0236 H       1  UNL1        0.0293
     28 H          -4.1808   -0.9570   -2.0693 H       1  UNL1        0.0293
     29 H          -5.9773    0.7875   -1.7466 H       1  UNL1        0.0359
     30 H          -4.3715    1.3836   -1.3432 H       1  UNL1        0.0359
     31 H          -5.4742    0.6569    2.3084 H       1  UNL1        0.1575
@<TRIPOS>BOND
     1     1     6   ar
     2     1     2   ar
     3     1    22    1
     4     2     3   ar
     5     2    23    1
     6     3    11    1
     7     3     4   ar
     8     4     5   ar
     9     4     8    1
    10     5     6   ar
    11     5     7    1
    12     6    24    1
    13     7    25    1
    14     7    26    1
    15     8     9    2
    16     8    10   am
    17    10    11   am
    18    10    13    1
    19    11    12    2
    20    13    14    1
    21    13    20    1
    22    13    15    1
    23    15    16    1
    24    15    27    1
    25    15    28    1
    26    16    17    1
    27    16    29    1
    28    16    30    1
    29    17    18    2
    30    17    19   am
    31    19    20   am
    32    19    31    1
    33    20    21    2
