@<TRIPOS>MOLECULE
ZINC01481815
 42 45 0 0 0
SMALL
GASTEIGER

@<TRIPOS>ATOM
      1 C          -0.7020   -0.3631   -0.8879 C.ar    1  UNL1       -0.0609
      2 C          -0.8398   -1.0208    0.3287 C.ar    1  UNL1       -0.0583
      3 C          -0.3420   -0.4355    1.4936 C.ar    1  UNL1       -0.0195
      4 C           0.3084    0.8067    1.4414 C.ar    1  UNL1        0.1276
      5 C           0.4661    1.4841    0.2252 C.ar    1  UNL1        0.0622
      6 C          -0.0584    0.8772   -0.9368 C.ar    1  UNL1       -0.0475
      7 C           1.2088    2.7416    0.0912 C.ar    1  UNL1        0.1858
      8 N           1.3584    3.6871    1.0855 N.ar    1  UNL1       -0.2059
      9 C           2.0808    4.6423    0.5153 C.ar    1  UNL1        0.1676
     10 N           2.5235    4.1729   -0.7182 N.ar    1  UNL1       -0.2119
     11 N           1.7959    3.0851   -1.0645 N.ar    1  UNL1       -0.1442
     12 C           3.5528    4.6495   -1.5671 C.ar    1  UNL1        0.0678
     13 C           3.4766    4.4100   -2.9442 C.ar    1  UNL1       -0.0354
     14 C           4.4360    4.9617   -3.7979 C.ar    1  UNL1       -0.0456
     15 C           5.4947    5.7351   -3.2932 C.ar    1  UNL1        0.0633
     16 C           5.5878    5.9137   -1.9053 C.ar    1  UNL1       -0.0456
     17 C           4.6351    5.3660   -1.0451 C.ar    1  UNL1       -0.0354
     18 C           6.5150    6.3651   -4.2205 C.2     1  UNL1        0.3865
     19 O           7.4306    7.0635   -3.6831 O.co2   1  UNL1       -0.2406
     20 O           6.3717    6.1525   -5.4682 O.co2   1  UNL1       -0.2406
     21 C           2.3137    5.9830    1.0809 C.ar    1  UNL1        0.0606
     22 C           2.4054    7.1116    0.2440 C.ar    1  UNL1       -0.0475
     23 C           2.7028    8.3766    0.7558 C.ar    1  UNL1       -0.0609
     24 C           2.8530    8.5502    2.1268 C.ar    1  UNL1       -0.0583
     25 C           2.7084    7.4577    2.9826 C.ar    1  UNL1       -0.0195
     26 C           2.4414    6.1877    2.4632 C.ar    1  UNL1        0.1275
     27 O           2.3259    5.1667    3.3709 O.3     1  UNL1       -0.5061
     28 O           0.8227    1.3242    2.5994 O.3     1  UNL1       -0.5061
     29 H          -1.0784   -0.8141   -1.8030 H       1  UNL1        0.0618
     30 H          -1.3246   -1.9931    0.3680 H       1  UNL1        0.0619
     31 H          -0.4550   -0.9687    2.4328 H       1  UNL1        0.0654
     32 H           0.0526    1.3680   -1.9031 H       1  UNL1        0.0626
     33 H           2.6566    3.8407   -3.3753 H       1  UNL1        0.0639
     34 H           4.3593    4.8094   -4.8742 H       1  UNL1        0.0626
     35 H           6.4147    6.4959   -1.4992 H       1  UNL1        0.0626
     36 H           4.7780    5.5117    0.0220 H       1  UNL1        0.0639
     37 H           2.2827    7.0219   -0.8343 H       1  UNL1        0.0626
     38 H           2.8292    9.2160    0.0752 H       1  UNL1        0.0618
     39 H           3.0824    9.5344    2.5260 H       1  UNL1        0.0619
     40 H           2.8112    7.5954    4.0551 H       1  UNL1        0.0654
     41 H           1.9983    4.3780    2.8866 H       1  UNL1        0.2922
     42 H           0.6999    0.6854    3.3183 H       1  UNL1        0.2922
@<TRIPOS>BOND
     1     1     6   ar
     2     1     2   ar
     3     1    29    1
     4     2     3   ar
     5     2    30    1
     6     3     4   ar
     7     3    31    1
     8     4     5   ar
     9     4    28    1
    10     5     6   ar
    11     5     7    1
    12     6    32    1
    13     7    11   ar
    14     7     8   ar
    15     8     9   ar
    16     9    10   ar
    17     9    21    1
    18    10    11   ar
    19    10    12    1
    20    12    17   ar
    21    12    13   ar
    22    13    14   ar
    23    13    33    1
    24    14    15   ar
    25    14    34    1
    26    15    16   ar
    27    15    18    1
    28    16    17   ar
    29    16    35    1
    30    17    36    1
    31    18    19   ar
    32    18    20   ar
    33    21    26   ar
    34    21    22   ar
    35    22    23   ar
    36    22    37    1
    37    23    24   ar
    38    23    38    1
    39    24    25   ar
    40    24    39    1
    41    25    26   ar
    42    25    40    1
    43    26    27    1
    44    27    41    1
    45    28    42    1
