@<TRIPOS>MOLECULE
ZINC00001925
 26 28 0 0 0
SMALL
GASTEIGER

@<TRIPOS>ATOM
      1 C           1.2875    0.3731   -0.5130 C.ar    1  UNL1       -0.0617
      2 C           0.6928   -0.8702   -0.3319 C.ar    1  UNL1       -0.0612
      3 C          -0.7012   -0.9830   -0.3246 C.ar    1  UNL1       -0.0539
      4 C          -1.5360    0.1366   -0.4818 C.ar    1  UNL1       -0.0148
      5 C          -0.9118    1.3812   -0.6566 C.ar    1  UNL1       -0.0539
      6 C           0.4846    1.4997   -0.6751 C.ar    1  UNL1       -0.0612
      7 C          -3.0162    0.0045   -0.4750 C.2     1  UNL1        0.0223
      8 C          -3.9384    0.9185   -1.2365 C.2     1  UNL1        0.1937
      9 C          -5.2896    0.4640   -0.9707 C.ar    1  UNL1        0.0288
     10 C          -6.5092    0.9467   -1.4254 C.ar    1  UNL1       -0.0504
     11 C          -7.6676    0.3047   -0.9787 C.ar    1  UNL1       -0.0611
     12 C          -7.5788   -0.7860   -0.0998 C.ar    1  UNL1       -0.0612
     13 C          -6.3304   -1.2492    0.3301 C.ar    1  UNL1       -0.0545
     14 C          -5.1768   -0.6144   -0.1162 C.ar    1  UNL1       -0.0212
     15 C          -3.7622   -0.9231    0.1997 C.2     1  UNL1       -0.0888
     16 O          -3.4537   -1.8773    0.9691 O.co2   1  UNL1       -0.8728
     17 O          -3.6642    1.8665   -1.9499 O.2     1  UNL1       -0.2866
     18 H           2.3686    0.4627   -0.5217 H       1  UNL1        0.0618
     19 H           1.2988   -1.7596   -0.1880 H       1  UNL1        0.0618
     20 H          -1.1434   -1.9672   -0.1764 H       1  UNL1        0.0624
     21 H          -1.5114    2.2809   -0.7701 H       1  UNL1        0.0624
     22 H           0.9385    2.4762   -0.8121 H       1  UNL1        0.0618
     23 H          -6.5526    1.7921   -2.1020 H       1  UNL1        0.0625
     24 H          -8.6440    0.6481   -1.3087 H       1  UNL1        0.0618
     25 H          -8.4778   -1.2812    0.2557 H       1  UNL1        0.0618
     26 H          -6.2418   -2.0926    1.0091 H       1  UNL1        0.0623
@<TRIPOS>UNITY_ATOM_ATTR
16 1
charge -1
@<TRIPOS>BOND
     1     1     6   ar
     2     1     2   ar
     3     1    18    1
     4     2     3   ar
     5     2    19    1
     6     3     4   ar
     7     3    20    1
     8     4     5   ar
     9     4     7    1
    10     5     6   ar
    11     5    21    1
    12     6    22    1
    13     7     8    1
    14     7    15    2
    15     8     9    1
    16     8    17    2
    17     9    14   ar
    18     9    10   ar
    19    10    11   ar
    20    10    23    1
    21    11    12   ar
    22    11    24    1
    23    12    13   ar
    24    12    25    1
    25    13    14   ar
    26    13    26    1
    27    14    15    1
    28    15    16    1
