@<TRIPOS>MOLECULE
ZINC00001281
 29 30 0 0 0
SMALL
GASTEIGER

@<TRIPOS>ATOM
      1 C           1.4604   -0.2672    0.1676 C.ar    1  UNL1       -0.0614
      2 C           1.0155    1.0484    0.1610 C.ar    1  UNL1       -0.0600
      3 C          -0.3529    1.3163    0.1057 C.ar    1  UNL1       -0.0403
      4 C          -1.3009    0.2815    0.0445 C.ar    1  UNL1        0.0351
      5 C          -0.8469   -1.0537    0.1135 C.ar    1  UNL1       -0.0155
      6 C           0.5353   -1.3105    0.1604 C.ar    1  UNL1       -0.0563
      7 C          -1.7996   -2.2305    0.1057 C.3     1  UNL1        0.0760
      8 C          -2.6888   -2.2337    1.3485 C.2     1  UNL1        0.3603
      9 O          -2.3022   -2.9592    2.3051 O.co2   1  UNL1       -0.2460
     10 O          -3.7341   -1.5158    1.2493 O.co2   1  UNL1       -0.2460
     11 N          -2.6668    0.5609   -0.1843 N.pl3   1  UNL1       -0.3120
     12 C          -3.2886    1.6208   -0.8841 C.ar    1  UNL1        0.0684
     13 C          -4.4870    2.1810   -0.3910 C.ar    1  UNL1        0.0635
     14 C          -5.0846    3.2987   -0.9946 C.ar    1  UNL1       -0.0415
     15 C          -4.4961    3.9018   -2.0987 C.ar    1  UNL1       -0.0589
     16 C          -3.3274    3.3620   -2.6223 C.ar    1  UNL1       -0.0415
     17 C          -2.7414    2.2259   -2.0401 C.ar    1  UNL1        0.0635
     18 CL         -1.4025    1.5654   -2.9283 Cl      1  UNL1       -0.0816
     19 CL         -5.2900    1.5392    1.0015 Cl      1  UNL1       -0.0816
     20 H           2.5237   -0.4866    0.1880 H       1  UNL1        0.0618
     21 H           1.7258    1.8683    0.1848 H       1  UNL1        0.0618
     22 H          -0.6857    2.3501    0.0997 H       1  UNL1        0.0636
     23 H           0.8919   -2.3370    0.1888 H       1  UNL1        0.0621
     24 H          -2.4160   -2.1993   -0.8018 H       1  UNL1        0.0428
     25 H          -1.2498   -3.1785    0.0652 H       1  UNL1        0.0428
     26 H          -3.3013   -0.0504    0.3682 H       1  UNL1        0.1522
     27 H          -6.0093    3.7040   -0.5918 H       1  UNL1        0.0633
     28 H          -4.9506    4.7733   -2.5594 H       1  UNL1        0.0618
     29 H          -2.8781    3.8139   -3.5025 H       1  UNL1        0.0633
@<TRIPOS>BOND
     1     1     6   ar
     2     1     2   ar
     3     1    20    1
     4     2     3   ar
     5     2    21    1
     6     3     4   ar
     7     3    22    1
     8     4     5   ar
     9     4    11    1
    10     5     6   ar
    11     5     7    1
    12     6    23    1
    13     7     8    1
    14     7    24    1
    15     7    25    1
    16     8     9   ar
    17     8    10   ar
    18    11    12    1
    19    11    26    1
    20    12    17   ar
    21    12    13   ar
    22    13    14   ar
    23    13    19    1
    24    14    15   ar
    25    14    27    1
    26    15    16   ar
    27    15    28    1
    28    16    17   ar
    29    16    29    1
    30    17    18    1
