@<TRIPOS>MOLECULE
ZINC00001899
 33 34 0 0 0
SMALL
GASTEIGER

@<TRIPOS>ATOM
      1 C           1.8080    0.0210    0.7902 C.ar    1  UNL1        0.0984
      2 N           1.1249    1.1220    0.5524 N.ar    1  UNL1       -0.2286
      3 C           0.3458    0.8127   -0.5304 C.ar    1  UNL1        0.1720
      4 C          -0.6306    1.6065   -1.2447 C.ar    1  UNL1        0.2803
      5 O          -0.9426    2.7657   -0.9875 O.2     1  UNL1       -0.2654
      6 N          -1.2158    0.9029   -2.2870 N.ar    1  UNL1       -0.2934
      7 H          -1.8762    1.4271   -2.8345 H       1  UNL1        0.1716
      8 C          -0.8958   -0.3936   -2.6351 C.ar    1  UNL1        0.1950
      9 N          -0.0214   -1.1259   -1.9967 N.ar    1  UNL1       -0.1964
     10 C           0.5620   -0.4789   -0.9582 C.ar    1  UNL1        0.1691
     11 N           1.4810   -0.9843   -0.0848 N.ar    1  UNL1       -0.3148
     12 C           1.9954   -2.3368   -0.0412 C.3     1  UNL1        0.0265
     13 C           1.5598   -3.1174    1.2057 C.3     1  UNL1       -0.0279
     14 C           0.0296   -3.2614    1.3824 C.3     1  UNL1        0.0070
     15 C          -0.6353   -4.0412    0.2390 C.3     1  UNL1        0.0492
     16 O          -0.1275   -5.3685    0.1511 O.3     1  UNL1       -0.3947
     17 C          -0.2891   -3.9172    2.7382 C.3     1  UNL1        0.0492
     18 O           0.2653   -5.2212    2.8437 O.3     1  UNL1       -0.3947
     19 N          -1.5577   -0.9030   -3.7046 N.pl3   1  UNL1       -0.3289
     20 H           2.5314   -0.1091    1.5854 H       1  UNL1        0.1029
     21 H           1.6970   -2.8580   -0.9562 H       1  UNL1        0.0493
     22 H           3.0890   -2.2573   -0.0651 H       1  UNL1        0.0493
     23 H           2.0337   -4.1059    1.1754 H       1  UNL1        0.0286
     24 H           1.9674   -2.6153    2.0933 H       1  UNL1        0.0286
     25 H          -0.4183   -2.2604    1.4056 H       1  UNL1        0.0346
     26 H          -1.7131   -4.1157    0.4172 H       1  UNL1        0.0560
     27 H          -0.5044   -3.5507   -0.7288 H       1  UNL1        0.0560
     28 H           0.7296   -5.3247   -0.3097 H       1  UNL1        0.2094
     29 H           0.1169   -3.3153    3.5579 H       1  UNL1        0.0560
     30 H          -1.3715   -3.9896    2.8893 H       1  UNL1        0.0560
     31 H          -0.0494   -5.7217    2.0615 H       1  UNL1        0.2094
     32 H          -1.4349   -1.9056   -3.8027 H       1  UNL1        0.1451
     33 H          -2.5137   -0.6044   -3.8422 H       1  UNL1        0.1451
@<TRIPOS>BOND
     1     1    11   ar
     2     1     2   ar
     3     1    20    1
     4     2     3   ar
     5     3    10   ar
     6     3     4   ar
     7     4     5    2
     8     4     6   ar
     9     6     7    1
    10     6     8   ar
    11     8     9   ar
    12     8    19    1
    13     9    10   ar
    14    10    11   ar
    15    11    12    1
    16    12    13    1
    17    12    21    1
    18    12    22    1
    19    13    14    1
    20    13    23    1
    21    13    24    1
    22    14    15    1
    23    14    17    1
    24    14    25    1
    25    15    16    1
    26    15    26    1
    27    15    27    1
    28    16    28    1
    29    17    18    1
    30    17    29    1
    31    17    30    1
    32    18    31    1
    33    19    32    1
    34    19    33    1
