@<TRIPOS>MOLECULE
ZINC03831051
 29 28 0 0 0
SMALL
GASTEIGER

@<TRIPOS>ATOM
      1 C           0.9461    1.9537   -1.6814 C.3     1  UNL1       -0.0226
      2 C           0.4834    1.5466   -0.2798 C.3     1  UNL1        0.1396
      3 H           0.9222    0.5606   -0.0929 H       1  UNL1        0.0785
      4 C          -1.0603    1.4091   -0.1960 C.3     1  UNL1        0.0069
      5 N          -1.6145    0.7961    1.1297 N.4     1  UNL1        0.2395
      6 C          -1.2647    1.6284    2.3534 C.3     1  UNL1       -0.0417
      7 C          -3.1439    0.7752    1.0124 C.3     1  UNL1       -0.0417
      8 C          -1.1262   -0.6302    1.3361 C.3     1  UNL1       -0.0417
      9 O           1.0696    2.4188    0.7183 O.3     1  UNL1       -0.4564
     10 C           0.6550    3.7147    0.7853 C.2     1  UNL1        0.3044
     11 O          -0.2139    4.2025    0.0844 O.2     1  UNL1       -0.2512
     12 C           1.2902    4.4006    1.9578 C.3     1  UNL1        0.0332
     13 H           0.4622    1.3474   -2.4534 H       1  UNL1        0.0267
     14 H           2.0301    1.8157   -1.7707 H       1  UNL1        0.0267
     15 H           0.7501    3.0075   -1.8983 H       1  UNL1        0.0267
     16 H          -1.5720    2.3662   -0.3226 H       1  UNL1        0.0851
     17 H          -1.4071    0.7396   -0.9937 H       1  UNL1        0.0851
     18 H          -1.5456    2.6670    2.1613 H       1  UNL1        0.0778
     19 H          -1.8270    1.2421    3.2094 H       1  UNL1        0.0778
     20 H          -0.1977    1.5274    2.5613 H       1  UNL1        0.0778
     21 H          -3.4163    0.1556    0.1537 H       1  UNL1        0.0778
     22 H          -3.5574    0.3539    1.9337 H       1  UNL1        0.0778
     23 H          -3.4928    1.8032    0.8747 H       1  UNL1        0.0778
     24 H          -1.3952   -1.2202    0.4562 H       1  UNL1        0.0778
     25 H          -0.0434   -0.6177    1.4803 H       1  UNL1        0.0778
     26 H          -1.6112   -1.0341    2.2304 H       1  UNL1        0.0778
     27 H           0.8774    3.9865    2.8820 H       1  UNL1        0.0342
     28 H           2.3730    4.2722    1.9328 H       1  UNL1        0.0342
     29 H           1.0629    5.4693    1.9176 H       1  UNL1        0.0342
@<TRIPOS>UNITY_ATOM_ATTR
5 1
charge 1
@<TRIPOS>BOND
     1     1    13    1
     2     1    14    1
     3     1    15    1
     4     2     4    1
     5     2     9    1
     6     4     5    1
     7     4    16    1
     8     4    17    1
     9     5     6    1
    10     5     7    1
    11     5     8    1
    12     6    18    1
    13     6    19    1
    14     6    20    1
    15     7    21    1
    16     7    22    1
    17     7    23    1
    18     8    24    1
    19     8    25    1
    20     8    26    1
    21     9    10    1
    22    10    11    2
    23    10    12    1
    24    12    27    1
    25    12    28    1
    26    12    29    1
    27     2     3    1
    28     2     1    1
