@<TRIPOS>MOLECULE
ZINC02539827
 32 33 0 0 0
SMALL
GASTEIGER

@<TRIPOS>ATOM
      1 C           0.0015   -1.4734    0.0963 C.3     1  UNL1       -0.0364
      2 C          -0.5509   -1.2302   -1.3034 C.3     1  UNL1        0.0801
      3 H          -1.2670   -2.0344   -1.5099 H       1  UNL1        0.0617
      4 C          -1.2395    0.1492   -1.4343 C.3     1  UNL1        0.1004
      5 H          -0.5045    0.9280   -1.1917 H       1  UNL1        0.0638
      6 C          -1.7251    0.4008   -2.8852 C.3     1  UNL1        0.0646
      7 H          -0.8673    0.2926   -3.5632 H       1  UNL1        0.0539
      8 C          -2.2949    1.8389   -3.1042 C.3     1  UNL1        0.0313
      9 N          -2.8381    1.9742   -4.4649 N.pl3   1  UNL1       -0.3270
     10 C          -3.3932    0.8924   -5.1357 C.ar    1  UNL1        0.1255
     11 C          -3.3621   -0.3335   -4.5579 C.ar    1  UNL1        0.1330
     12 C          -3.8997   -1.5071   -5.3619 C.ar    1  UNL1        0.2973
     13 O          -3.8086   -2.6391   -4.8809 O.2     1  UNL1       -0.2637
     14 N          -4.4158   -1.2695   -6.6226 N.ar    1  UNL1       -0.1759
     15 C          -4.4009   -0.0567   -7.0600 C.ar    1  UNL1        0.1951
     16 N          -3.9357    1.0169   -6.3799 N.ar    1  UNL1       -0.3147
     17 H          -3.8300    1.9052   -6.8412 H       1  UNL1        0.1698
     18 N          -4.8572    0.2428   -8.3018 N.pl3   1  UNL1       -0.3289
     19 N          -2.7588   -0.5698   -3.3109 N.pl3   1  UNL1       -0.3301
     20 O          -2.2880    0.2346   -0.4638 O.3     1  UNL1       -0.3874
     21 O           0.5358   -1.3386   -2.2251 O.3     1  UNL1       -0.3894
     22 H          -0.7834   -1.4245    0.8568 H       1  UNL1        0.0255
     23 H           0.7823   -0.7468    0.3434 H       1  UNL1        0.0255
     24 H           0.4652   -2.4649    0.1488 H       1  UNL1        0.0255
     25 H          -3.1128    2.0422   -2.4036 H       1  UNL1        0.0481
     26 H          -1.5175    2.5915   -2.9393 H       1  UNL1        0.0481
     27 H          -2.6596    2.8230   -4.9833 H       1  UNL1        0.1475
     28 H          -5.3472   -0.5503   -8.7078 H       1  UNL1        0.1451
     29 H          -5.4124    1.0856   -8.3628 H       1  UNL1        0.1451
     30 H          -2.5558   -1.5633   -3.2011 H       1  UNL1        0.1467
     31 H          -2.7966    1.0480   -0.6056 H       1  UNL1        0.2100
     32 H           0.2031   -1.8015   -3.0152 H       1  UNL1        0.2099
@<TRIPOS>BOND
     1     1     2    1
     2     1    22    1
     3     1    23    1
     4     1    24    1
     5     2     3    1
     6     2     4    1
     7     2    21    1
     8     4     5    1
     9     4     6    1
    10     4    20    1
    11     6     7    1
    12     6    19    1
    13     6     8    1
    14     8     9    1
    15     8    25    1
    16     8    26    1
    17     9    10    1
    18     9    27    1
    19    10    16   ar
    20    10    11   ar
    21    11    12   ar
    22    11    19    1
    23    12    13    2
    24    12    14   ar
    25    14    15   ar
    26    15    16   ar
    27    15    18    1
    28    16    17    1
    29    18    28    1
    30    18    29    1
    31    19    30    1
    32    20    31    1
    33    21    32    1
