@<TRIPOS>MOLECULE
ZINC00057278
 46 47 0 0 0
SMALL
GASTEIGER

@<TRIPOS>ATOM
      1 C           0.6157    0.4907    0.5015 C.3     1  UNL1       -0.0216
      2 C           0.1383   -0.7068    1.3286 C.3     1  UNL1       -0.0252
      3 H           0.0993   -0.4534    2.3917 H       1  UNL1        0.0848
      4 C          -1.2578   -1.1472    0.8394 C.3     1  UNL1       -0.0060
      5 C          -1.8862   -2.3206    1.6070 C.3     1  UNL1       -0.0226
      6 C          -3.2494   -2.7837    1.1326 C.ar    1  UNL1       -0.0469
      7 C          -4.0300   -3.5781    1.9925 C.ar    1  UNL1       -0.0551
      8 C          -5.2091   -4.1874    1.5440 C.ar    1  UNL1       -0.0199
      9 C          -5.6133   -4.0038    0.2291 C.ar    1  UNL1        0.1169
     10 C          -4.8880   -3.1851   -0.6230 C.ar    1  UNL1       -0.0199
     11 C          -3.7138   -2.5734   -0.1742 C.ar    1  UNL1       -0.0551
     12 O          -6.7131   -4.6264   -0.2792 O.3     1  UNL1       -0.5068
     13 N           1.1160   -1.8475    1.1859 N.4     1  UNL1        0.2292
     14 C           2.5232   -1.6634    1.6799 C.3     1  UNL1       -0.0294
     15 C           2.6044   -1.2667    3.1573 C.3     1  UNL1        0.0128
     16 C           4.0583   -1.1907    3.5516 C.ar    1  UNL1       -0.0387
     17 C           4.7804    0.0038    3.3668 C.ar    1  UNL1       -0.0547
     18 C           6.1615    0.0274    3.5757 C.ar    1  UNL1       -0.0163
     19 C           6.8203   -1.1323    3.9556 C.ar    1  UNL1        0.1582
     20 C           6.1015   -2.3036    4.1915 C.ar    1  UNL1        0.1585
     21 C           4.7283   -2.3387    3.9883 C.ar    1  UNL1       -0.0132
     22 O           6.7229   -3.4382    4.6161 O.3     1  UNL1       -0.5033
     23 O           8.1779   -1.1110    4.0557 O.3     1  UNL1       -0.5033
     24 H           0.1753    1.4122    0.8929 H       1  UNL1        0.0284
     25 H           0.3095    0.4014   -0.5485 H       1  UNL1        0.0284
     26 H           1.6996    0.6269    0.5111 H       1  UNL1        0.0284
     27 H          -1.9361   -0.2862    0.9074 H       1  UNL1        0.0323
     28 H          -1.1808   -1.4042   -0.2239 H       1  UNL1        0.0323
     29 H          -1.2348   -3.1984    1.5207 H       1  UNL1        0.0315
     30 H          -1.9405   -2.0591    2.6709 H       1  UNL1        0.0315
     31 H          -3.7175   -3.7555    3.0199 H       1  UNL1        0.0621
     32 H          -5.7804   -4.8128    2.2232 H       1  UNL1        0.0654
     33 H          -5.2239   -3.0417   -1.6472 H       1  UNL1        0.0654
     34 H          -3.1744   -1.9580   -0.8865 H       1  UNL1        0.0621
     35 H          -7.0995   -5.2023    0.4013 H       1  UNL1        0.2921
     36 H           0.7472   -2.6830    1.6594 H       1  UNL1        0.2016
     37 H           3.0158   -2.6285    1.5129 H       1  UNL1        0.0817
     38 H           3.0161   -0.9343    1.0306 H       1  UNL1        0.0817
     39 H           2.1299   -0.2960    3.3408 H       1  UNL1        0.0365
     40 H           2.0807   -1.9968    3.7883 H       1  UNL1        0.0365
     41 H           4.2872    0.9160    3.0374 H       1  UNL1        0.0621
     42 H           6.7285    0.9417    3.4069 H       1  UNL1        0.0655
     43 H           4.1989   -3.2718    4.1684 H       1  UNL1        0.0658
     44 H           7.4260   -3.1596    5.2398 H       1  UNL1        0.2923
     45 H           8.5032   -1.9920    3.8002 H       1  UNL1        0.2923
     46 H           1.1729   -2.1084    0.1911 H       1  UNL1        0.2016
@<TRIPOS>UNITY_ATOM_ATTR
13 1
charge 1
@<TRIPOS>BOND
     1     1     2    1
     2     1    24    1
     3     1    25    1
     4     1    26    1
     5     2     3    1
     6     2     4    1
     7     2    13    1
     8     4     5    1
     9     4    27    1
    10     4    28    1
    11     5     6    1
    12     5    29    1
    13     5    30    1
    14     6    11   ar
    15     6     7   ar
    16     7     8   ar
    17     7    31    1
    18     8     9   ar
    19     8    32    1
    20     9    10   ar
    21     9    12    1
    22    10    11   ar
    23    10    33    1
    24    11    34    1
    25    12    35    1
    26    13    14    1
    27    13    36    1
    28    13    46    1
    29    14    15    1
    30    14    37    1
    31    14    38    1
    32    15    16    1
    33    15    39    1
    34    15    40    1
    35    16    21   ar
    36    16    17   ar
    37    17    18   ar
    38    17    41    1
    39    18    19   ar
    40    18    42    1
    41    19    20   ar
    42    19    23    1
    43    20    21   ar
    44    20    22    1
    45    21    43    1
    46    22    44    1
    47    23    45    1
