@<TRIPOS>MOLECULE
ZINC00896711
 37 38 0 0 0
SMALL
GASTEIGER

@<TRIPOS>ATOM
      1 C          -3.5374    3.8922    4.4591 C.3     1  UNL1        0.0817
      2 O          -2.1187    3.7920    4.6270 O.3     1  UNL1       -0.4674
      3 C          -1.3907    3.8813    3.4898 C.2     1  UNL1        0.3198
      4 O          -1.8596    3.9546    2.3524 O.2     1  UNL1       -0.2499
      5 C           0.1126    3.7740    3.7252 C.3     1  UNL1        0.1238
      6 H           0.3313    2.6990    3.7574 H       1  UNL1        0.0519
      7 C           0.5665    4.4081    5.0335 C.ar    1  UNL1       -0.0284
      8 C           0.4341    5.7880    5.2653 C.ar    1  UNL1       -0.0576
      9 C           0.9756    6.3683    6.4130 C.ar    1  UNL1       -0.0615
     10 C           1.6346    5.5788    7.3515 C.ar    1  UNL1       -0.0617
     11 C           1.7264    4.2028    7.1602 C.ar    1  UNL1       -0.0615
     12 C           1.1922    3.6174    6.0112 C.ar    1  UNL1       -0.0576
     13 C           0.8566    4.4198    2.5104 C.3     1  UNL1       -0.0053
     14 H           0.5257    5.4620    2.4127 H       1  UNL1        0.0862
     15 C           2.3942    4.4155    2.5701 C.3     1  UNL1       -0.0084
     16 C           3.0292    3.0573    2.2801 C.3     1  UNL1       -0.0431
     17 C           2.5009    2.4274    0.9944 C.3     1  UNL1       -0.0124
     18 C           0.9843    2.4154    0.9313 C.3     1  UNL1       -0.0334
     19 N           0.4683    3.7876    1.1862 N.4     1  UNL1        0.2300
     20 H          -3.9932    3.9678    5.4507 H       1  UNL1        0.0661
     21 H          -3.9205    2.9949    3.9636 H       1  UNL1        0.0661
     22 H          -3.7986    4.7901    3.8898 H       1  UNL1        0.0661
     23 H          -0.0809    6.4379    4.5610 H       1  UNL1        0.0621
     24 H           0.8887    7.4404    6.5780 H       1  UNL1        0.0618
     25 H           2.0685    6.0352    8.2387 H       1  UNL1        0.0618
     26 H           2.2221    3.5869    7.9080 H       1  UNL1        0.0618
     27 H           1.2845    2.5395    5.8924 H       1  UNL1        0.0621
     28 H           2.7571    4.7855    3.5349 H       1  UNL1        0.0320
     29 H           2.7655    5.1320    1.8250 H       1  UNL1        0.0320
     30 H           4.1162    3.1813    2.1951 H       1  UNL1        0.0269
     31 H           2.8542    2.3794    3.1224 H       1  UNL1        0.0269
     32 H           2.8955    2.9797    0.1325 H       1  UNL1        0.0317
     33 H           2.8788    1.4018    0.9078 H       1  UNL1        0.0317
     34 H           0.6304    2.1229   -0.0619 H       1  UNL1        0.0814
     35 H           0.5433    1.7468    1.6758 H       1  UNL1        0.0814
     36 H           0.7599    4.4094    0.4193 H       1  UNL1        0.2016
     37 H          -0.5728    3.7807    1.1306 H       1  UNL1        0.2016
@<TRIPOS>UNITY_ATOM_ATTR
19 1
charge 1
@<TRIPOS>BOND
     1     1     2    1
     2     1    20    1
     3     1    21    1
     4     1    22    1
     5     2     3    1
     6     3     4    2
     7     5     7    1
     8     7    12   ar
     9     7     8   ar
    10     8     9   ar
    11     8    23    1
    12     9    10   ar
    13     9    24    1
    14    10    11   ar
    15    10    25    1
    16    11    12   ar
    17    11    26    1
    18    12    27    1
    19    13    19    1
    20    13    15    1
    21    15    16    1
    22    15    28    1
    23    15    29    1
    24    16    17    1
    25    16    30    1
    26    16    31    1
    27    17    18    1
    28    17    32    1
    29    17    33    1
    30    18    19    1
    31    18    34    1
    32    18    35    1
    33    19    36    1
    34    19    37    1
    35     5     6    1
    36     5     3    1
    37    13    14    1
    38    13     5    1
