@<TRIPOS>MOLECULE
ZINC00006310
 29 30 0 0 0
SMALL
GASTEIGER

@<TRIPOS>ATOM
      1 C           0.2954    0.1105   -1.0285 C.ar    1  UNL1       -0.0392
      2 C          -1.1008    0.1750   -1.1022 C.ar    1  UNL1       -0.0347
      3 C          -1.8541    0.0809    0.0705 C.ar    1  UNL1        0.0937
      4 C          -1.2198   -0.0936    1.3027 C.ar    1  UNL1       -0.0347
      5 C           0.1744   -0.1507    1.3613 C.ar    1  UNL1       -0.0392
      6 C           0.9468   -0.0095    0.2041 C.ar    1  UNL1        0.0246
      7 N           2.3258   -0.2382    0.2535 N.pl3   1  UNL1       -0.3580
      8 S          -3.6296    0.0108   -0.0100 S.O2    1  UNL1        0.0251
      9 O          -3.9783   -0.5709   -1.2942 O.2     1  UNL1       -0.1643
     10 O          -4.0915   -0.6172    1.2174 O.2     1  UNL1       -0.1643
     11 C          -4.2349    1.6829    0.0006 C.ar    1  UNL1        0.0937
     12 C          -4.5829    2.2852    1.2127 C.ar    1  UNL1       -0.0347
     13 C          -5.1745    3.5514    1.2062 C.ar    1  UNL1       -0.0392
     14 C          -5.3883    4.2406    0.0079 C.ar    1  UNL1        0.0246
     15 C          -5.0729    3.6027   -1.1975 C.ar    1  UNL1       -0.0392
     16 C          -4.4875    2.3332   -1.2081 C.ar    1  UNL1       -0.0347
     17 N          -6.1292    5.4255    0.0011 N.pl3   1  UNL1       -0.3580
     18 H           0.8753    0.1350   -1.9481 H       1  UNL1        0.0636
     19 H          -1.5820    0.2568   -2.0742 H       1  UNL1        0.0637
     20 H          -1.7975   -0.2277    2.2143 H       1  UNL1        0.0637
     21 H           0.6532   -0.3298    2.3209 H       1  UNL1        0.0636
     22 H           2.7536   -0.0216    1.1481 H       1  UNL1        0.1423
     23 H           2.8441    0.1475   -0.5288 H       1  UNL1        0.1423
     24 H          -4.4399    1.7671    2.1567 H       1  UNL1        0.0637
     25 H          -5.4900    3.9910    2.1507 H       1  UNL1        0.0636
     26 H          -5.3052    4.0846   -2.1448 H       1  UNL1        0.0636
     27 H          -4.2742    1.8509   -2.1587 H       1  UNL1        0.0637
     28 H          -5.9926    6.0020   -0.8228 H       1  UNL1        0.1423
     29 H          -6.0769    5.9593    0.8631 H       1  UNL1        0.1423
@<TRIPOS>BOND
     1     1     6   ar
     2     1     2   ar
     3     1    18    1
     4     2     3   ar
     5     2    19    1
     6     3     4   ar
     7     3     8    1
     8     4     5   ar
     9     4    20    1
    10     5     6   ar
    11     5    21    1
    12     6     7    1
    13     7    22    1
    14     7    23    1
    15     8     9    2
    16     8    10    2
    17     8    11    1
    18    11    16   ar
    19    11    12   ar
    20    12    13   ar
    21    12    24    1
    22    13    14   ar
    23    13    25    1
    24    14    15   ar
    25    14    17    1
    26    15    16   ar
    27    15    26    1
    28    16    27    1
    29    17    28    1
    30    17    29    1
