@<TRIPOS>MOLECULE
ZINC00968326
 45 47 0 0 0
SMALL
GASTEIGER

@<TRIPOS>ATOM
      1 C           1.0219    9.8455   10.3053 C.3     1  UNL1       -0.0612
      2 C           2.3332    9.4706    9.6100 C.3     1  UNL1       -0.0291
      3 C           2.1452    8.2881    8.7065 C.ar    1  UNL1       -0.0295
      4 C           2.3121    6.9687    9.1373 C.ar    1  UNL1       -0.0555
      5 C           1.8930    5.9085    8.3267 C.ar    1  UNL1       -0.0400
      6 C           1.3180    6.1954    7.0902 C.ar    1  UNL1        0.0445
      7 N           1.2665    7.4593    6.6052 N.ar    1  UNL1       -0.2595
      8 C           1.6795    8.4636    7.4059 C.ar    1  UNL1        0.0310
      9 C           0.4953    5.1855    6.3302 C.3     1  UNL1        0.0239
     10 C           1.1409    3.9172    5.7780 C.3     1  UNL1        0.0950
     11 O           1.6126    3.0248    6.7906 O.3     1  UNL1       -0.4916
     12 C           1.7528    1.7225    6.3784 C.ar    1  UNL1        0.1205
     13 C           1.9664    1.3017    5.0632 C.ar    1  UNL1       -0.0197
     14 C           2.2399   -0.0429    4.7803 C.ar    1  UNL1       -0.0551
     15 C           2.3351   -0.9776    5.8160 C.ar    1  UNL1       -0.0456
     16 C           1.9592   -0.5836    7.1061 C.ar    1  UNL1       -0.0551
     17 C           1.6974    0.7592    7.3885 C.ar    1  UNL1       -0.0197
     18 C           2.9746   -2.3322    5.5760 C.3     1  UNL1       -0.0069
     19 C           4.4945   -2.3854    5.8563 C.3     1  UNL1        0.0945
     20 H           4.8820   -3.3828    5.6350 H       1  UNL1        0.0515
     21 C           5.2445   -1.3819    5.0076 C.2     1  UNL1        0.2336
     22 O           5.3082   -1.4204    3.7788 O.2     1  UNL1       -0.2741
     23 N           5.8229   -0.4064    5.7593 N.am    1  UNL1       -0.2463
     24 C           5.7126   -0.4693    7.1012 C.2     1  UNL1        0.2789
     25 O           6.0915    0.3821    7.8927 O.2     1  UNL1       -0.2625
     26 S           4.9710   -1.9788    7.5786 S.3     1  UNL1       -0.0542
     27 H           0.2365   10.0890    9.5887 H       1  UNL1        0.0233
     28 H           1.1807   10.7258   10.9423 H       1  UNL1        0.0233
     29 H           0.6582    9.0275   10.9357 H       1  UNL1        0.0233
     30 H           2.6827   10.3329    9.0255 H       1  UNL1        0.0311
     31 H           3.1020    9.2657   10.3554 H       1  UNL1        0.0311
     32 H           2.7220    6.7618   10.1259 H       1  UNL1        0.0621
     33 H           1.9481    4.8920    8.6959 H       1  UNL1        0.0636
     34 H           1.5937    9.4584    6.9794 H       1  UNL1        0.0832
     35 H          -0.3690    4.9203    6.9542 H       1  UNL1        0.0361
     36 H           0.0782    5.7102    5.4576 H       1  UNL1        0.0361
     37 H           0.3352    3.4041    5.2390 H       1  UNL1        0.0700
     38 H           1.9434    4.1707    5.0754 H       1  UNL1        0.0700
     39 H           1.9641    2.0020    4.2346 H       1  UNL1        0.0654
     40 H           2.4286   -0.3378    3.7472 H       1  UNL1        0.0621
     41 H           1.9322   -1.3058    7.9208 H       1  UNL1        0.0621
     42 H           1.4670    1.0598    8.4077 H       1  UNL1        0.0654
     43 H           2.4605   -3.0950    6.1743 H       1  UNL1        0.0329
     44 H           2.8096   -2.6145    4.5267 H       1  UNL1        0.0329
     45 H           6.2833    0.3786    5.3227 H       1  UNL1        0.1583
@<TRIPOS>BOND
     1     1     2    1
     2     1    27    1
     3     1    28    1
     4     1    29    1
     5     2     3    1
     6     2    30    1
     7     2    31    1
     8     3     8   ar
     9     3     4   ar
    10     4     5   ar
    11     4    32    1
    12     5     6   ar
    13     5    33    1
    14     6     7   ar
    15     6     9    1
    16     7     8   ar
    17     8    34    1
    18     9    10    1
    19     9    35    1
    20     9    36    1
    21    10    11    1
    22    10    37    1
    23    10    38    1
    24    11    12    1
    25    12    17   ar
    26    12    13   ar
    27    13    14   ar
    28    13    39    1
    29    14    15   ar
    30    14    40    1
    31    15    16   ar
    32    15    18    1
    33    16    17   ar
    34    16    41    1
    35    17    42    1
    36    18    19    1
    37    18    43    1
    38    18    44    1
    39    19    20    1
    40    19    26    1
    41    19    21    1
    42    21    22    2
    43    21    23   am
    44    23    24   am
    45    23    45    1
    46    24    25    2
    47    24    26    1
