@<TRIPOS>MOLECULE
ZINC02847375
 35 35 0 0 0
SMALL
GASTEIGER

@<TRIPOS>ATOM
      1 C           0.6933   -4.7470   -1.7420 C.3     1  UNL1       -0.0244
      2 C           0.3752   -3.7493   -0.6425 C.3     1  UNL1       -0.0341
      3 N           1.0533   -4.1203    0.6751 N.4     1  UNL1        0.2424
      4 C           2.5643   -4.2359    0.5825 C.3     1  UNL1       -0.0341
      5 C           3.2243   -2.9165    0.2196 C.3     1  UNL1       -0.0244
      6 C           0.5409   -3.2336    1.8590 C.3     1  UNL1        0.0403
      7 H           0.8188   -2.2121    1.5930 H       1  UNL1        0.0934
      8 C           1.1875   -3.6918    3.1681 C.3     1  UNL1       -0.0142
      9 C          -0.9780   -3.3519    2.0298 C.2     1  UNL1        0.2100
     10 O          -1.5471   -4.3883    1.6891 O.2     1  UNL1       -0.2860
     11 C          -1.7465   -2.2004    2.5986 C.ar    1  UNL1        0.0231
     12 C          -3.1453   -2.2739    2.5926 C.ar    1  UNL1       -0.0511
     13 C          -3.9078   -1.2305    3.1208 C.ar    1  UNL1       -0.0611
     14 C          -3.2802   -0.1083    3.6577 C.ar    1  UNL1       -0.0617
     15 C          -1.8906   -0.0237    3.6622 C.ar    1  UNL1       -0.0611
     16 C          -1.1220   -1.0639    3.1333 C.ar    1  UNL1       -0.0511
     17 H           1.7454   -4.7122   -2.0382 H       1  UNL1        0.0281
     18 H           0.1043   -4.5115   -2.6347 H       1  UNL1        0.0281
     19 H           0.4481   -5.7693   -1.4368 H       1  UNL1        0.0281
     20 H           0.6823   -2.7334   -0.9064 H       1  UNL1        0.0812
     21 H          -0.7045   -3.7502   -0.4802 H       1  UNL1        0.0812
     22 H           2.9337   -4.6100    1.5411 H       1  UNL1        0.0812
     23 H           2.7945   -5.0097   -0.1552 H       1  UNL1        0.0812
     24 H           2.9980   -2.1301    0.9454 H       1  UNL1        0.0281
     25 H           4.3123   -3.0388    0.1981 H       1  UNL1        0.0281
     26 H           2.9202   -2.5679   -0.7715 H       1  UNL1        0.0281
     27 H           0.6731   -3.2766    4.0420 H       1  UNL1        0.0289
     28 H           1.1568   -4.7827    3.2713 H       1  UNL1        0.0289
     29 H           2.2306   -3.3660    3.2333 H       1  UNL1        0.0289
     30 H          -3.6593   -3.1416    2.1814 H       1  UNL1        0.0625
     31 H          -4.9942   -1.2932    3.1197 H       1  UNL1        0.0618
     32 H          -3.8759    0.6992    4.0800 H       1  UNL1        0.0618
     33 H          -1.4068    0.8542    4.0864 H       1  UNL1        0.0618
     34 H          -0.0443   -0.9473    3.1767 H       1  UNL1        0.0625
     35 H           0.6799   -5.0577    0.9001 H       1  UNL1        0.2040
@<TRIPOS>UNITY_ATOM_ATTR
3 1
charge 1
@<TRIPOS>BOND
     1     1     2    1
     2     1    17    1
     3     1    18    1
     4     1    19    1
     5     2     3    1
     6     2    20    1
     7     2    21    1
     8     3     4    1
     9     3    35    1
    10     4     5    1
    11     4    22    1
    12     4    23    1
    13     5    24    1
    14     5    25    1
    15     5    26    1
    16     6     8    1
    17     6     9    1
    18     8    27    1
    19     8    28    1
    20     8    29    1
    21     9    10    2
    22     9    11    1
    23    11    16   ar
    24    11    12   ar
    25    12    13   ar
    26    12    30    1
    27    13    14   ar
    28    13    31    1
    29    14    15   ar
    30    14    32    1
    31    15    16   ar
    32    15    33    1
    33    16    34    1
    34     6     7    1
    35     6     3    1
