@<TRIPOS>MOLECULE
ZINC00057501
 29 30 0 0 0
SMALL
GASTEIGER

@<TRIPOS>ATOM
      1 C          -0.5040    4.9177    3.2369 C.3     1  UNL1       -0.0222
      2 C          -0.0608    3.5836    2.7229 C.ar    1  UNL1        0.0434
      3 C          -0.3648    2.4237    3.4041 C.ar    1  UNL1       -0.0224
      4 C           0.0766    1.2566    2.8283 C.ar    1  UNL1        0.0330
      5 N           0.7662    1.2094    1.6783 N.ar    1  UNL1       -0.2202
      6 C           1.0728    2.3921    1.1162 C.ar    1  UNL1        0.2575
      7 N           0.6452    3.5856    1.5728 N.ar    1  UNL1       -0.2170
      8 N           1.7097    2.3608   -0.0593 N.pl3   1  UNL1       -0.0576
      9 S           3.2966    2.4994   -0.0734 S.O2    1  UNL1        0.0943
     10 O           4.0220    2.1185    1.1420 O.2     1  UNL1       -0.1483
     11 O           3.9207    1.9933   -1.2998 O.2     1  UNL1       -0.1483
     12 C           3.6612    4.2783   -0.1928 C.ar    1  UNL1        0.1106
     13 C           3.8603    5.0243    0.9674 C.ar    1  UNL1       -0.0333
     14 C           4.1791    6.3820    0.8623 C.ar    1  UNL1       -0.0392
     15 C           4.3496    6.9829   -0.3912 C.ar    1  UNL1        0.0247
     16 C           4.1055    6.2266   -1.5432 C.ar    1  UNL1       -0.0392
     17 C           3.7864    4.8692   -1.4503 C.ar    1  UNL1       -0.0333
     18 N           4.5406    8.3719   -0.4894 N.pl3   1  UNL1       -0.3580
     19 H           0.3682    5.5462    3.4403 H       1  UNL1        0.0293
     20 H          -1.1357    5.4142    2.4936 H       1  UNL1        0.0293
     21 H          -1.0806    4.8246    4.1633 H       1  UNL1        0.0293
     22 H          -0.9179    2.4182    4.3313 H       1  UNL1        0.0651
     23 H          -0.1157    0.2921    3.2847 H       1  UNL1        0.0831
     24 H           3.7522    4.5509    1.9390 H       1  UNL1        0.0638
     25 H           4.2977    6.9612    1.7722 H       1  UNL1        0.0636
     26 H           4.1675    6.6822   -2.5262 H       1  UNL1        0.0636
     27 H           3.6308    4.2759   -2.3467 H       1  UNL1        0.0638
     28 H           4.9727    8.6445   -1.3656 H       1  UNL1        0.1423
     29 H           5.0154    8.7586    0.3190 H       1  UNL1        0.1423
@<TRIPOS>BOND
     1     1     2    1
     2     1    19    1
     3     1    20    1
     4     1    21    1
     5     2     7   ar
     6     2     3   ar
     7     3     4   ar
     8     3    22    1
     9     4     5   ar
    10     4    23    1
    11     5     6   ar
    12     6     7   ar
    13     6     8    1
    14     8     9    1
    15     9    10    2
    16     9    11    2
    17     9    12    1
    18    12    17   ar
    19    12    13   ar
    20    13    14   ar
    21    13    24    1
    22    14    15   ar
    23    14    25    1
    24    15    16   ar
    25    15    18    1
    26    16    17   ar
    27    16    26    1
    28    17    27    1
    29    18    28    1
    30    18    29    1
