@<TRIPOS>MOLECULE
ZINC01530947
 29 31 0 0 0
SMALL
GASTEIGER

@<TRIPOS>ATOM
      1 C           6.3304   -5.3761    0.0360 C.ar    1  UNL1       -0.0610
      2 C           5.0218   -5.8915    0.1343 C.ar    1  UNL1       -0.0610
      3 C           3.9082   -5.0433    0.1046 C.ar    1  UNL1       -0.0489
      4 C           4.1478   -3.6901   -0.0232 C.ar    1  UNL1        0.0494
      5 C           5.4331   -3.1884   -0.1160 C.ar    1  UNL1        0.0494
      6 C           6.5484   -4.0010   -0.0922 C.ar    1  UNL1       -0.0489
      7 C           5.3345   -1.7367   -0.1913 C.2     1  UNL1        0.2545
      8 O           6.2869   -0.9823   -0.2414 O.2     1  UNL1       -0.2695
      9 N           4.0000   -1.4308   -0.1622 N.am    1  UNL1       -0.2220
     10 C           3.2273   -2.5509   -0.0408 C.2     1  UNL1        0.2545
     11 O           2.0213   -2.6376    0.0889 O.2     1  UNL1       -0.2695
     12 C           3.4924   -0.0661   -0.1471 C.3     1  UNL1        0.1109
     13 H           2.3958   -0.0970   -0.1801 H       1  UNL1        0.0602
     14 C           3.9266    0.6844    1.1110 C.3     1  UNL1       -0.0170
     15 C           3.6305    2.1662    0.9859 C.3     1  UNL1        0.0265
     16 C           4.2953    2.7439   -0.2379 C.2     1  UNL1        0.2193
     17 O           4.7250    3.8925   -0.2751 O.2     1  UNL1       -0.2754
     18 N           4.3158    1.9381   -1.3475 N.am    1  UNL1       -0.2548
     19 C           3.9381    0.6204   -1.4436 C.2     1  UNL1        0.2402
     20 O           3.9255    0.0581   -2.5385 O.2     1  UNL1       -0.2733
     21 H           7.1808   -6.0544    0.0674 H       1  UNL1        0.0618
     22 H           4.8793   -6.9658    0.2414 H       1  UNL1        0.0618
     23 H           2.8973   -5.4301    0.1891 H       1  UNL1        0.0625
     24 H           7.5488   -3.5854   -0.1605 H       1  UNL1        0.0625
     25 H           4.9983    0.5554    1.2998 H       1  UNL1        0.0293
     26 H           3.4071    0.2709    1.9842 H       1  UNL1        0.0293
     27 H           4.0112    2.6889    1.8702 H       1  UNL1        0.0359
     28 H           2.5537    2.3520    0.9133 H       1  UNL1        0.0359
     29 H           4.6885    2.3522   -2.1910 H       1  UNL1        0.1575
@<TRIPOS>BOND
     1     1     6   ar
     2     1     2   ar
     3     1    21    1
     4     2     3   ar
     5     2    22    1
     6     3     4   ar
     7     3    23    1
     8     4    10    1
     9     4     5   ar
    10     5     6   ar
    11     5     7    1
    12     6    24    1
    13     7     8    2
    14     7     9   am
    15     9    10   am
    16    10    11    2
    17    12    19    1
    18    12    14    1
    19    14    15    1
    20    14    25    1
    21    14    26    1
    22    15    16    1
    23    15    27    1
    24    15    28    1
    25    16    17    2
    26    16    18   am
    27    18    19   am
    28    18    29    1
    29    19    20    2
    30    12    13    1
    31    12     9    1
