@<TRIPOS>MOLECULE
ZINC00001979
 30 31 0 0 0
SMALL
GASTEIGER

@<TRIPOS>ATOM
      1 C           0.0994   -0.6998    2.2815 C.3     1  UNL1       -0.0636
      2 C           0.1010    0.3831    1.1944 C.3     1  UNL1       -0.0293
      3 C           0.9704    1.6487    1.5210 C.3     1  UNL1        0.1471
      4 C           2.4124    1.1202    1.5546 C.2     1  UNL1        0.2336
      5 O           3.0067    0.7486    2.5613 O.2     1  UNL1       -0.2743
      6 N           3.0224    0.8986    0.3366 N.am    1  UNL1       -0.2986
      7 C           2.7142    1.6272   -0.8479 C.3     1  UNL1        0.0780
      8 N           1.4304    2.2407   -0.8457 N.am    1  UNL1       -0.2986
      9 C           0.8546    2.6329    0.3355 C.2     1  UNL1        0.2336
     10 O           0.2355    3.6960    0.3441 O.2     1  UNL1       -0.2743
     11 C           0.4895    2.3520    2.8157 C.ar    1  UNL1       -0.0237
     12 C          -0.8727    2.3511    3.1951 C.ar    1  UNL1       -0.0571
     13 C          -1.3244    2.9938    4.3451 C.ar    1  UNL1       -0.0615
     14 C          -0.4233    3.6805    5.1498 C.ar    1  UNL1       -0.0617
     15 C           0.9202    3.7294    4.7855 C.ar    1  UNL1       -0.0615
     16 C           1.3714    3.0801    3.6278 C.ar    1  UNL1       -0.0571
     17 H           1.0825   -1.1697    2.3840 H       1  UNL1        0.0230
     18 H          -0.6128   -1.4875    2.0155 H       1  UNL1        0.0230
     19 H          -0.1928   -0.3174    3.2635 H       1  UNL1        0.0230
     20 H           0.4462   -0.0910    0.2667 H       1  UNL1        0.0280
     21 H          -0.9340    0.6767    0.9843 H       1  UNL1        0.0280
     22 H           3.9469    0.5037    0.4196 H       1  UNL1        0.1502
     23 H           2.7742    0.9484   -1.7032 H       1  UNL1        0.0670
     24 H           3.4683    2.4105   -0.9746 H       1  UNL1        0.0670
     25 H           1.2690    2.9271   -1.5737 H       1  UNL1        0.1502
     26 H          -1.6267    1.8497    2.5878 H       1  UNL1        0.0621
     27 H          -2.3776    2.9580    4.6112 H       1  UNL1        0.0618
     28 H          -0.7656    4.1812    6.0489 H       1  UNL1        0.0618
     29 H           1.6285    4.2753    5.4038 H       1  UNL1        0.0618
     30 H           2.4275    3.1557    3.3797 H       1  UNL1        0.0621
@<TRIPOS>BOND
     1     1     2    1
     2     1    17    1
     3     1    18    1
     4     1    19    1
     5     2     3    1
     6     2    20    1
     7     2    21    1
     8     3     9    1
     9     3     4    1
    10     3    11    1
    11     4     5    2
    12     4     6   am
    13     6     7    1
    14     6    22    1
    15     7     8    1
    16     7    23    1
    17     7    24    1
    18     8     9   am
    19     8    25    1
    20     9    10    2
    21    11    16   ar
    22    11    12   ar
    23    12    13   ar
    24    12    26    1
    25    13    14   ar
    26    13    27    1
    27    14    15   ar
    28    14    28    1
    29    15    16   ar
    30    15    29    1
    31    16    30    1
