@<TRIPOS>MOLECULE
ZINC02019492
 51 51 0 0 0
SMALL
GASTEIGER

@<TRIPOS>ATOM
      1 C           1.9013   -1.4808    4.2458 C.3     1  UNL1       -0.0652
      2 C           1.1858   -2.7951    3.9699 C.3     1  UNL1       -0.0528
      3 C          -0.3129   -2.7838    4.2827 C.3     1  UNL1       -0.0189
      4 C          -1.1637   -1.8201    3.4528 C.3     1  UNL1        0.0897
      5 O          -1.1161   -2.1162    2.0552 O.3     1  UNL1       -0.4901
      6 C          -1.8065   -1.2480    1.2264 C.ar    1  UNL1        0.1418
      7 C          -2.5964   -0.1769    1.6778 C.ar    1  UNL1       -0.0041
      8 C          -3.2456    0.6558    0.7580 C.ar    1  UNL1        0.0626
      9 C          -3.0626    0.4534   -0.6141 C.ar    1  UNL1       -0.0458
     10 C          -2.2977   -0.6181   -1.0670 C.ar    1  UNL1       -0.0367
     11 C          -1.6699   -1.4821   -0.1610 C.ar    1  UNL1        0.0669
     12 N          -1.1443   -2.6890   -0.6488 N.pl3   1  UNL1       -0.3551
     13 C          -4.1709    1.7406    1.1573 C.2     1  UNL1        0.3395
     14 O          -5.0003    2.2253    0.3931 O.2     1  UNL1       -0.2450
     15 O          -3.9672    2.1934    2.4226 O.3     1  UNL1       -0.4558
     16 C          -4.4676    3.5340    2.6251 C.3     1  UNL1        0.1323
     17 C          -5.9928    3.6043    2.8127 C.3     1  UNL1        0.0032
     18 N          -6.4685    2.8073    4.0267 N.4     1  UNL1        0.2372
     19 C          -5.9095    3.2788    5.3600 C.3     1  UNL1       -0.0347
     20 C          -6.2388    4.7313    5.6632 C.3     1  UNL1       -0.0245
     21 C          -7.9815    2.6418    4.0805 C.3     1  UNL1       -0.0347
     22 C          -8.4948    1.7836    2.9372 C.3     1  UNL1       -0.0245
     23 H           1.4141   -0.6323    3.7580 H       1  UNL1        0.0230
     24 H           2.9291   -1.5322    3.8696 H       1  UNL1        0.0230
     25 H           1.9528   -1.2791    5.3211 H       1  UNL1        0.0230
     26 H           1.3439   -3.0861    2.9280 H       1  UNL1        0.0264
     27 H           1.6569   -3.5696    4.5888 H       1  UNL1        0.0264
     28 H          -0.6909   -3.8020    4.1316 H       1  UNL1        0.0298
     29 H          -0.4557   -2.5419    5.3440 H       1  UNL1        0.0298
     30 H          -2.2004   -1.9250    3.7947 H       1  UNL1        0.0696
     31 H          -0.8260   -0.7940    3.6344 H       1  UNL1        0.0696
     32 H          -2.7420    0.0019    2.7357 H       1  UNL1        0.0663
     33 H          -3.5403    1.1088   -1.3394 H       1  UNL1        0.0626
     34 H          -2.2191   -0.7934   -2.1376 H       1  UNL1        0.0637
     35 H          -0.7584   -2.6541   -1.5862 H       1  UNL1        0.1424
     36 H          -0.5465   -3.1623    0.0258 H       1  UNL1        0.1424
     37 H          -3.9423    3.9482    3.4909 H       1  UNL1        0.0752
     38 H          -4.1736    4.1606    1.7730 H       1  UNL1        0.0752
     39 H          -6.3360    4.6357    2.9331 H       1  UNL1        0.0848
     40 H          -6.5000    3.1798    1.9476 H       1  UNL1        0.0848
     41 H          -6.3190    2.6190    6.1326 H       1  UNL1        0.0812
     42 H          -4.8282    3.1169    5.3346 H       1  UNL1        0.0812
     43 H          -7.3175    4.9052    5.7109 H       1  UNL1        0.0281
     44 H          -5.8173    5.0095    6.6351 H       1  UNL1        0.0281
     45 H          -5.8094    5.4136    4.9243 H       1  UNL1        0.0281
     46 H          -8.2133    2.1455    5.0288 H       1  UNL1        0.0812
     47 H          -8.4339    3.6382    4.0719 H       1  UNL1        0.0812
     48 H          -7.9424    0.8421    2.8599 H       1  UNL1        0.0281
     49 H          -9.5512    1.5435    3.1007 H       1  UNL1        0.0281
     50 H          -8.4352    2.3032    1.9768 H       1  UNL1        0.0281
     51 H          -6.0867    1.8602    3.8891 H       1  UNL1        0.2034
@<TRIPOS>UNITY_ATOM_ATTR
18 1
charge 1
@<TRIPOS>BOND
     1     1     2    1
     2     1    23    1
     3     1    24    1
     4     1    25    1
     5     2     3    1
     6     2    26    1
     7     2    27    1
     8     3     4    1
     9     3    28    1
    10     3    29    1
    11     4     5    1
    12     4    30    1
    13     4    31    1
    14     5     6    1
    15     6    11   ar
    16     6     7   ar
    17     7     8   ar
    18     7    32    1
    19     8     9   ar
    20     8    13    1
    21     9    10   ar
    22     9    33    1
    23    10    11   ar
    24    10    34    1
    25    11    12    1
    26    12    35    1
    27    12    36    1
    28    13    14    2
    29    13    15    1
    30    15    16    1
    31    16    17    1
    32    16    37    1
    33    16    38    1
    34    17    18    1
    35    17    39    1
    36    17    40    1
    37    18    19    1
    38    18    21    1
    39    18    51    1
    40    19    20    1
    41    19    41    1
    42    19    42    1
    43    20    43    1
    44    20    44    1
    45    20    45    1
    46    21    22    1
    47    21    46    1
    48    21    47    1
    49    22    48    1
    50    22    49    1
    51    22    50    1
