@<TRIPOS>MOLECULE
ZINC03871880
 42 44 0 0 0
SMALL
GASTEIGER

@<TRIPOS>ATOM
      1 C           2.5218    1.3927   -0.9344 C.3     1  UNL1       -0.0484
      2 C           1.6156    0.9944    0.2388 C.3     1  UNL1        0.0419
      3 CA          0.3038    1.8140    0.2577 C.3     1  UNL1        0.1423
      4 HA          0.1395    2.2322   -0.7463 H       1  UNL1        0.0632
      5 N          -0.8170    0.8847    0.5010 N.am    1  UNL1       -0.2707
      6 C          -0.5421   -0.5506    0.6375 C.3     1  UNL1        0.1005
      7 H          -0.6404   -0.8809    1.6770 H       1  UNL1        0.0640
      8 S           1.1206   -0.7796   -0.0736 S.3     1  UNL1       -0.1273
      9 CA         -1.7828   -0.8312   -0.2479 C.3     1  UNL1        0.1277
     10 HA         -2.6652   -1.1604    0.3144 H       1  UNL1        0.0622
     11 C          -1.7825    0.7100   -0.4499 C.2     1  UNL1        0.2402
     12 O          -2.2585    1.4634   -1.2725 O.2     1  UNL1       -0.2734
     13 N          -1.6460   -1.5834   -1.5282 N.am    1  UNL1       -0.3008
     14 C          -1.9599   -2.9340   -1.6662 C.2     1  UNL1        0.2321
     15 O          -2.1729   -3.6471   -0.6883 O.2     1  UNL1       -0.2745
     16 C          -1.8944   -3.4066   -3.1230 C.3     1  UNL1        0.1614
     17 H          -1.9889   -2.5177   -3.7680 H       1  UNL1        0.0560
     18 C          -0.5235   -3.9848   -3.4383 C.ar    1  UNL1       -0.0248
     19 C           0.4833   -3.1233   -3.9112 C.ar    1  UNL1       -0.0573
     20 C           1.7831   -3.5827   -4.1259 C.ar    1  UNL1       -0.0615
     21 C           2.0991   -4.9151   -3.8773 C.ar    1  UNL1       -0.0617
     22 C           1.1126   -5.7864   -3.4208 C.ar    1  UNL1       -0.0615
     23 C          -0.1862   -5.3222   -3.1946 C.ar    1  UNL1       -0.0573
     24 C          -3.1656   -4.1723   -3.4833 C.2     1  UNL1        0.3721
     25 O          -4.2189   -3.4579   -3.4979 O.co2   1  UNL1       -0.2451
     26 O          -3.0678   -5.3811   -3.8413 O.co2   1  UNL1       -0.2451
     27 C           0.3736    3.0641    1.1804 C.2     1  UNL1        0.3774
     28 O           1.2634    3.9109    0.8623 O.co2   1  UNL1       -0.2442
     29 OXT        -0.4339    3.1038    2.1528 O.co2   1  UNL1       -0.2442
     30 C           2.4233    1.0336    1.5459 C.3     1  UNL1       -0.0484
     31 H           2.8712    2.4253   -0.8310 H       1  UNL1        0.0244
     32 H           3.4122    0.7547   -0.9924 H       1  UNL1        0.0244
     33 H           1.9968    1.3194   -1.8945 H       1  UNL1        0.0244
     34 H          -1.6132   -1.0384   -2.3819 H       1  UNL1        0.1496
     35 H           0.2585   -2.0754   -4.0955 H       1  UNL1        0.0621
     36 H           2.5450   -2.8919   -4.4721 H       1  UNL1        0.0618
     37 H           3.1123   -5.2708   -4.0298 H       1  UNL1        0.0618
     38 H           1.3470   -6.8284   -3.2275 H       1  UNL1        0.0618
     39 H          -0.9426   -6.0151   -2.8280 H       1  UNL1        0.0621
     40 H           3.2725    0.3397    1.5186 H       1  UNL1        0.0244
     41 H           2.8560    2.0272    1.7156 H       1  UNL1        0.0244
     42 H           1.8112    0.7875    2.4200 H       1  UNL1        0.0244
@<TRIPOS>BOND
     1     1     2    1
     2     1    31    1
     3     1    32    1
     4     1    33    1
     5     2     8    1
     6     2     3    1
     7     2    30    1
     8     3     4    1
     9     3     5    1
    10     3    27    1
    11     5    11   am
    12     5     6    1
    13     6     7    1
    14     6     8    1
    15     6     9    1
    16     9    10    1
    17     9    11    1
    18     9    13    1
    19    11    12    2
    20    13    14   am
    21    13    34    1
    22    14    15    2
    23    14    16    1
    24    16    17    1
    25    16    18    1
    26    16    24    1
    27    18    23   ar
    28    18    19   ar
    29    19    20   ar
    30    19    35    1
    31    20    21   ar
    32    20    36    1
    33    21    22   ar
    34    21    37    1
    35    22    23   ar
    36    22    38    1
    37    23    39    1
    38    24    25   ar
    39    24    26   ar
    40    27    28   ar
    41    27    29   ar
    42    30    40    1
    43    30    41    1
    44    30    42    1
