@<TRIPOS>MOLECULE
ZINC03806721
 44 48 0 0 0
SMALL
GASTEIGER

@<TRIPOS>ATOM
      1 C           3.8862   -1.3989   -1.4335 C.3     1  UNL1       -0.0428
      2 C           2.3875    0.5356   -1.2934 C.3     1  UNL1       -0.0309
      3 C           0.9805    0.9913   -1.0319 C.3     1  UNL1        0.0015
      4 C           0.4316    0.4102    0.2891 C.3     1  UNL1        0.0553
      5 C          -0.6762   -0.5283   -0.0577 C.ar    1  UNL1        0.0120
      6 C          -0.5696   -1.8603   -0.3981 C.ar    1  UNL1       -0.0345
      7 C          -1.7489   -2.5019   -0.8177 C.ar    1  UNL1       -0.0544
      8 C          -2.8482   -1.7171   -1.1180 C.ar    1  UNL1       -0.0160
      9 C          -2.8596   -0.3417   -0.8607 C.ar    1  UNL1        0.1618
     10 C          -1.8521    0.1937   -0.0797 C.ar    1  UNL1        0.1666
     11 O          -1.7533    1.3990    0.5354 O.3     1  UNL1       -0.4811
     12 C          -0.3740    1.4877    1.0332 C.3     1  UNL1        0.1402
     13 H          -0.0621    2.5000    0.7487 H       1  UNL1        0.0772
     14 C          -0.1119    1.4095    2.5604 C.3     1  UNL1        0.1110
     15 H           0.8813    1.8584    2.7297 H       1  UNL1        0.0675
     16 C           0.0226    0.0048    3.0799 C.2     1  UNL1       -0.0558
     17 C           0.7988   -0.8696    2.4083 C.2     1  UNL1       -0.0761
     18 C           1.4378   -0.4363    1.0985 C.3     1  UNL1        0.0339
     19 H           2.3196    0.1622    1.3655 H       1  UNL1        0.0408
     20 C           1.8906   -1.5803    0.1503 C.3     1  UNL1       -0.0097
     21 H           2.7125   -2.1488    0.6077 H       1  UNL1        0.0860
     22 C           0.7380   -2.5688   -0.2126 C.3     1  UNL1        0.0165
     23 O          -1.0074    2.1601    3.3470 O.3     1  UNL1       -0.3841
     24 O          -3.6371    0.5457   -1.5469 O.3     1  UNL1       -0.4914
     25 C          -4.6977   -0.0556   -2.2714 C.3     1  UNL1        0.0790
     26 H           4.2074   -0.9636   -2.3818 H       1  UNL1        0.0778
     27 H           4.5084   -1.0436   -0.6109 H       1  UNL1        0.0778
     28 H           3.8961   -2.4917   -1.4965 H       1  UNL1        0.0778
     29 H           3.0938    0.9791   -0.5825 H       1  UNL1        0.0815
     30 H           2.6905    0.8094   -2.3101 H       1  UNL1        0.0815
     31 H           0.3475    0.7244   -1.8908 H       1  UNL1        0.0327
     32 H           0.9852    2.0877   -1.0121 H       1  UNL1        0.0327
     33 H          -1.7760   -3.5749   -1.0127 H       1  UNL1        0.0622
     34 H          -3.6745   -2.1902   -1.6629 H       1  UNL1        0.0655
     35 H          -0.4910   -0.2656    3.9954 H       1  UNL1        0.0596
     36 H           0.8941   -1.8912    2.7726 H       1  UNL1        0.0575
     37 H           0.9847   -3.1284   -1.1213 H       1  UNL1        0.0368
     38 H           0.6292   -3.2974    0.6003 H       1  UNL1        0.0368
     39 H          -0.9073    3.0953    3.0907 H       1  UNL1        0.2104
     40 H          -4.3509   -0.5707   -3.1828 H       1  UNL1        0.0660
     41 H          -5.3764    0.7343   -2.5566 H       1  UNL1        0.0660
     42 H          -5.2400   -0.7486   -1.6219 H       1  UNL1        0.0660
     43 N           2.4692   -0.9661   -1.1714 N.4     1  UNL1        0.2359
     44 H           1.8978   -1.3295   -1.9475 H       1  UNL1        0.2034
@<TRIPOS>UNITY_ATOM_ATTR
43 1
charge 1
@<TRIPOS>BOND
     1     1    26    1
     2     1    27    1
     3     1    28    1
     4     1    43    1
     5     2     3    1
     6     2    29    1
     7     2    30    1
     8     2    43    1
     9     3     4    1
    10     3    31    1
    11     3    32    1
    12     4    12    1
    13     4    18    1
    14     4     5    1
    15     5    10   ar
    16     5     6   ar
    17     6    22    1
    18     6     7   ar
    19     7     8   ar
    20     7    33    1
    21     8     9   ar
    22     8    34    1
    23     9    10   ar
    24     9    24    1
    25    10    11    1
    26    11    12    1
    27    12    13    1
    28    12    14    1
    29    14    15    1
    30    14    16    1
    31    14    23    1
    32    16    17    2
    33    16    35    1
    34    17    18    1
    35    17    36    1
    36    18    19    1
    37    18    20    1
    38    20    21    1
    39    20    22    1
    40    20    43    1
    41    22    37    1
    42    22    38    1
    43    23    39    1
    44    24    25    1
    45    25    40    1
    46    25    41    1
    47    25    42    1
    48    43    44    1
