@<TRIPOS>MOLECULE
ZINC01493878
 48 50 0 0 0
SMALL
GASTEIGER

@<TRIPOS>ATOM
      1 C           0.1154    0.7813   -4.3679 C.3     1  UNL1        0.0004
      2 N          -0.5989   -0.2777   -3.6964 N.am    1  UNL1       -0.3132
      3 C          -0.6608   -0.3816   -2.3242 C.2     1  UNL1        0.2623
      4 O          -0.1011    0.3856   -1.5522 O.2     1  UNL1       -0.2685
      5 C          -1.5138   -1.5077   -1.8090 C.ar    1  UNL1        0.1288
      6 C          -1.6774   -1.6623   -0.4381 C.ar    1  UNL1        0.0112
      7 C          -2.5855   -2.6168    0.0098 C.ar    1  UNL1        0.1321
      8 C          -3.1934   -3.4576   -0.9201 C.ar    1  UNL1       -0.0012
      9 C          -2.9340   -3.2571   -2.2670 C.ar    1  UNL1        0.0319
     10 N          -2.1278   -2.2852   -2.7417 N.ar    1  UNL1       -0.2501
     11 O          -2.9226   -2.8489    1.3265 O.3     1  UNL1       -0.4559
     12 C          -2.8524   -1.8385    2.2589 C.ar    1  UNL1        0.1286
     13 C          -2.5516   -2.2245    3.5641 C.ar    1  UNL1       -0.0176
     14 C          -2.3554   -1.2601    4.5617 C.ar    1  UNL1       -0.0370
     15 C          -2.4389    0.1009    4.2609 C.ar    1  UNL1        0.0350
     16 C          -2.8725    0.4721    2.9833 C.ar    1  UNL1       -0.0370
     17 C          -3.1070   -0.4936    1.9955 C.ar    1  UNL1       -0.0176
     18 N          -2.0512    1.1364    5.1420 N.am    1  UNL1       -0.2692
     19 C          -1.5229    0.9943    6.4150 C.2     1  UNL1        0.3081
     20 O          -1.4632   -0.0634    7.0291 O.2     1  UNL1       -0.2522
     21 N          -1.0596    2.2077    6.9077 N.am    1  UNL1       -0.2692
     22 C          -0.6463    2.4808    8.2312 C.ar    1  UNL1        0.0354
     23 C          -0.0864    3.7294    8.5013 C.ar    1  UNL1       -0.0390
     24 C           0.2348    4.0912    9.8138 C.ar    1  UNL1       -0.0411
     25 C          -0.0178    3.2192   10.8803 C.ar    1  UNL1        0.0527
     26 C          -0.5671    1.9602   10.6353 C.ar    1  UNL1        0.0748
     27 C          -0.8430    1.5973    9.2964 C.ar    1  UNL1       -0.0274
     28 C          -0.9265    0.9533   11.6976 C.3     1  UNL1        0.4188
     29 F          -0.8940    1.3969   12.9816 F       1  UNL1       -0.1658
     30 F          -2.1951    0.4752   11.5253 F       1  UNL1       -0.1658
     31 F          -0.1178   -0.1432   11.6646 F       1  UNL1       -0.1658
     32 CL          0.3607    3.7990   12.4594 Cl      1  UNL1       -0.0830
     33 H           0.7175    1.3643   -3.6699 H       1  UNL1        0.0426
     34 H          -0.6119    1.4328   -4.8550 H       1  UNL1        0.0426
     35 H           0.7633    0.3326   -5.1253 H       1  UNL1        0.0426
     36 H          -1.1441   -0.9479   -4.2307 H       1  UNL1        0.1487
     37 H          -1.1251   -1.0250    0.2448 H       1  UNL1        0.0677
     38 H          -3.8622   -4.2499   -0.5975 H       1  UNL1        0.0669
     39 H          -3.3945   -3.8932   -3.0197 H       1  UNL1        0.0831
     40 H          -2.4381   -3.2757    3.8135 H       1  UNL1        0.0655
     41 H          -2.1055   -1.6126    5.5574 H       1  UNL1        0.0637
     42 H          -3.0049    1.5181    2.7188 H       1  UNL1        0.0637
     43 H          -3.4430   -0.1694    1.0162 H       1  UNL1        0.0655
     44 H          -2.1502    2.0765    4.7931 H       1  UNL1        0.1564
     45 H          -0.9243    2.9457    6.2333 H       1  UNL1        0.1564
     46 H           0.1020    4.4455    7.7047 H       1  UNL1        0.0636
     47 H           0.6637    5.0736   10.0037 H       1  UNL1        0.0633
     48 H          -1.2603    0.6066    9.1270 H       1  UNL1        0.0642
@<TRIPOS>BOND
     1     1     2    1
     2     1    33    1
     3     1    34    1
     4     1    35    1
     5     2     3   am
     6     2    36    1
     7     3     4    2
     8     3     5    1
     9     5    10   ar
    10     5     6   ar
    11     6     7   ar
    12     6    37    1
    13     7     8   ar
    14     7    11    1
    15     8     9   ar
    16     8    38    1
    17     9    10   ar
    18     9    39    1
    19    11    12    1
    20    12    17   ar
    21    12    13   ar
    22    13    14   ar
    23    13    40    1
    24    14    15   ar
    25    14    41    1
    26    15    16   ar
    27    15    18    1
    28    16    17   ar
    29    16    42    1
    30    17    43    1
    31    18    19   am
    32    18    44    1
    33    19    20    2
    34    19    21   am
    35    21    22    1
    36    21    45    1
    37    22    27   ar
    38    22    23   ar
    39    23    24   ar
    40    23    46    1
    41    24    25   ar
    42    24    47    1
    43    25    26   ar
    44    25    32    1
    45    26    27   ar
    46    26    28    1
    47    27    48    1
    48    28    29    1
    49    28    30    1
    50    28    31    1
