@<TRIPOS>MOLECULE
ZINC00537804
 57 59 0 0 0
SMALL
GASTEIGER

@<TRIPOS>ATOM
      1 C           5.7234   -0.3244   -0.4339 C.3     1  UNL1       -0.0037
      2 C           4.5331   -1.1853   -0.3290 C.ar    1  UNL1        0.1350
      3 C           4.1793   -2.2423    0.4705 C.ar    1  UNL1        0.0125
      4 C           2.8838   -2.6114    0.0253 C.ar    1  UNL1        0.1678
      5 N           2.4836   -1.8126   -0.9815 N.ar    1  UNL1       -0.0734
      6 O           3.5214   -0.9245   -1.1977 O.2     1  UNL1       -0.3592
      7 C           2.0500   -3.7059    0.5316 C.2     1  UNL1        0.2657
      8 O           2.4237   -4.4505    1.4301 O.2     1  UNL1       -0.2684
      9 N           0.8305   -3.8202   -0.1018 N.am    1  UNL1       -0.3097
     10 C          -0.0895   -4.9121    0.1441 C.3     1  UNL1        0.0159
     11 C          -1.1212   -4.5884    1.2334 C.3     1  UNL1       -0.0120
     12 C          -2.1894   -5.6480    1.3998 C.ar    1  UNL1       -0.0458
     13 C          -3.5160   -5.2681    1.6711 C.ar    1  UNL1       -0.0567
     14 C          -4.5307   -6.2260    1.7356 C.ar    1  UNL1       -0.0346
     15 C          -4.2176   -7.5736    1.5408 C.ar    1  UNL1        0.1125
     16 C          -2.8962   -7.9759    1.3657 C.ar    1  UNL1       -0.0346
     17 C          -1.8887   -7.0155    1.2925 C.ar    1  UNL1       -0.0567
     18 S          -5.5343   -8.7833    1.4464 S.O2    1  UNL1        0.0993
     19 O          -4.9917  -10.0721    1.8440 O.2     1  UNL1       -0.1463
     20 O          -6.6046   -8.2283    2.2726 O.2     1  UNL1       -0.1463
     21 N          -6.0164   -8.7274   -0.0969 N.2     1  UNL1       -0.1282
     22 C          -5.2511   -9.0537   -1.0889 C.2     1  UNL1        0.0824
     23 O          -4.1011   -9.5052   -1.1720 O.co2   1  UNL1       -0.8476
     24 N          -5.6162   -8.9387   -2.4127 N.pl3   1  UNL1       -0.2727
     25 N          -6.9622   -8.8670   -2.8456 N.3     1  UNL1       -0.2289
     26 C          -7.7887   -9.8759   -2.1860 C.3     1  UNL1        0.0166
     27 C          -8.8651  -10.3698   -3.1524 C.3     1  UNL1       -0.0386
     28 C         -10.0629   -9.4387   -3.3004 C.3     1  UNL1       -0.0518
     29 C          -9.7351   -8.0141   -3.7408 C.3     1  UNL1       -0.0518
     30 C          -8.9250   -7.2366   -2.7074 C.3     1  UNL1       -0.0386
     31 C          -7.4132   -7.4795   -2.7630 C.3     1  UNL1        0.0166
     32 H           6.1507   -0.3808   -1.4398 H       1  UNL1        0.0309
     33 H           5.4621    0.7181   -0.2280 H       1  UNL1        0.0309
     34 H           6.4942   -0.6300    0.2802 H       1  UNL1        0.0309
     35 H           4.7579   -2.7000    1.2596 H       1  UNL1        0.0676
     36 H           0.6324   -3.1587   -0.8456 H       1  UNL1        0.1491
     37 H          -0.5898   -5.1220   -0.8081 H       1  UNL1        0.0465
     38 H           0.4990   -5.7949    0.4142 H       1  UNL1        0.0465
     39 H          -0.6233   -4.4333    2.1977 H       1  UNL1        0.0328
     40 H          -1.6024   -3.6363    0.9714 H       1  UNL1        0.0328
     41 H          -3.7782   -4.2207    1.7916 H       1  UNL1        0.0621
     42 H          -5.5627   -5.9223    1.8891 H       1  UNL1        0.0637
     43 H          -2.6627   -9.0255    1.1963 H       1  UNL1        0.0637
     44 H          -0.8792   -7.3645    1.0975 H       1  UNL1        0.0621
     45 H          -4.9508   -9.4524   -2.9818 H       1  UNL1        0.1669
     46 H          -8.2315   -9.5216   -1.2479 H       1  UNL1        0.0443
     47 H          -7.1838  -10.7580   -1.9337 H       1  UNL1        0.0443
     48 H          -9.2311  -11.3397   -2.7932 H       1  UNL1        0.0278
     49 H          -8.4224  -10.5621   -4.1388 H       1  UNL1        0.0278
     50 H         -10.7490   -9.8803   -4.0336 H       1  UNL1        0.0266
     51 H         -10.6101   -9.4076   -2.3498 H       1  UNL1        0.0266
     52 H          -9.2302   -8.0152   -4.7135 H       1  UNL1        0.0266
     53 H         -10.6891   -7.4905   -3.8833 H       1  UNL1        0.0266
     54 H          -9.0891   -6.1645   -2.8773 H       1  UNL1        0.0278
     55 H          -9.3007   -7.4425   -1.6980 H       1  UNL1        0.0278
     56 H          -7.0225   -6.9626   -3.6493 H       1  UNL1        0.0443
     57 H          -6.9773   -6.9568   -1.9011 H       1  UNL1        0.0443
@<TRIPOS>UNITY_ATOM_ATTR
23 1
charge -1
@<TRIPOS>BOND
     1     1     2    1
     2     1    32    1
     3     1    33    1
     4     1    34    1
     5     2     6   ar
     6     2     3   ar
     7     3     4   ar
     8     3    35    1
     9     4     5   ar
    10     4     7    1
    11     5     6   ar
    12     7     8    2
    13     7     9   am
    14     9    10    1
    15     9    36    1
    16    10    11    1
    17    10    37    1
    18    10    38    1
    19    11    12    1
    20    11    39    1
    21    11    40    1
    22    12    17   ar
    23    12    13   ar
    24    13    14   ar
    25    13    41    1
    26    14    15   ar
    27    14    42    1
    28    15    16   ar
    29    15    18    1
    30    16    17   ar
    31    16    43    1
    32    17    44    1
    33    18    19    2
    34    18    20    2
    35    18    21    1
    36    21    22    2
    37    22    23    1
    38    22    24    1
    39    24    25    1
    40    24    45    1
    41    25    31    1
    42    25    26    1
    43    26    27    1
    44    26    46    1
    45    26    47    1
    46    27    28    1
    47    27    48    1
    48    27    49    1
    49    28    29    1
    50    28    50    1
    51    28    51    1
    52    29    30    1
    53    29    52    1
    54    29    53    1
    55    30    31    1
    56    30    54    1
    57    30    55    1
    58    31    56    1
    59    31    57    1
