@<TRIPOS>MOLECULE
ZINC01550477
 67 71 0 0 0
SMALL
GASTEIGER

@<TRIPOS>ATOM
      1 C          -3.9272   -0.5751    1.4928 C.3     1  UNL1        0.0547
      2 S          -3.3491    0.1560   -0.0234 S.O2    1  UNL1       -0.0289
      3 O          -2.5401   -0.8037   -0.7464 O.2     1  UNL1       -0.1744
      4 O          -4.4394    0.8455   -0.6917 O.2     1  UNL1       -0.1744
      5 C          -2.2556    1.4484    0.4956 C.3     1  UNL1        0.1052
      6 C          -1.6804    2.1600   -0.7221 C.3     1  UNL1       -0.0135
      7 C          -2.2685    3.6162   -2.7283 C.3     1  UNL1        0.0257
      8 C          -1.5149    2.8221   -3.7267 C.ar    1  UNL1        0.1500
      9 C          -0.4958    3.1489   -4.5951 C.ar    1  UNL1       -0.0148
     10 C          -0.1285    1.9485   -5.2419 C.ar    1  UNL1       -0.0154
     11 C          -0.9575    0.9579   -4.7532 C.ar    1  UNL1        0.1355
     12 O          -1.8266    1.4941   -3.8424 O.2     1  UNL1       -0.4544
     13 C          -1.0374   -0.4739   -5.0108 C.ar    1  UNL1        0.0181
     14 C           0.1275   -1.1734   -5.3390 C.ar    1  UNL1       -0.0490
     15 C           0.0755   -2.5263   -5.6802 C.ar    1  UNL1       -0.0349
     16 C          -1.1207   -3.2196   -5.7237 C.ar    1  UNL1        0.0760
     17 C          -2.3028   -2.5515   -5.3702 C.ar    1  UNL1        0.0411
     18 C          -2.2478   -1.1770   -4.9967 C.ar    1  UNL1       -0.0386
     19 C          -3.4583   -3.3533   -5.3987 C.ar    1  UNL1        0.1339
     20 N          -3.4309   -4.6390   -5.8038 N.ar    1  UNL1       -0.2200
     21 C          -2.2448   -5.1472   -6.1400 C.ar    1  UNL1        0.1187
     22 N          -1.0807   -4.4972   -6.1030 N.ar    1  UNL1       -0.2353
     23 N          -4.7150   -2.8076   -5.0083 N.pl3   1  UNL1       -0.2988
     24 C          -5.7594   -3.5752   -4.4348 C.ar    1  UNL1        0.0340
     25 C          -7.0961   -3.1939   -4.5653 C.ar    1  UNL1       -0.0370
     26 C          -8.1176   -3.9839   -4.0119 C.ar    1  UNL1       -0.0167
     27 C          -7.8237   -5.1423   -3.2778 C.ar    1  UNL1        0.1393
     28 C          -6.4827   -5.4155   -2.9911 C.ar    1  UNL1        0.0843
     29 C          -5.4726   -4.6550   -3.5894 C.ar    1  UNL1       -0.0186
     30 CL         -5.9507   -6.5821   -1.8299 Cl      1  UNL1       -0.0797
     31 O          -8.9277   -5.8672   -2.8982 O.3     1  UNL1       -0.4859
     32 C          -8.7469   -7.2904   -2.8432 C.3     1  UNL1        0.1148
     33 C         -10.0158   -8.0582   -3.1483 C.ar    1  UNL1       -0.0077
     34 C         -10.1986   -9.3326   -2.5772 C.ar    1  UNL1       -0.0552
     35 C         -11.3373  -10.0926   -2.8575 C.ar    1  UNL1       -0.0587
     36 C         -12.3022   -9.5910   -3.7288 C.ar    1  UNL1       -0.0264
     37 C         -12.1102   -8.3477   -4.3193 C.ar    1  UNL1        0.1238
     38 C         -10.9776   -7.5830   -4.0470 C.ar    1  UNL1       -0.0201
     39 F         -13.0295   -7.8777   -5.1734 F       1  UNL1       -0.2055
     40 H          -4.6244   -1.3767    1.2417 H       1  UNL1        0.0464
     41 H          -4.4307    0.1905    2.0852 H       1  UNL1        0.0464
     42 H          -3.0699   -0.9808    2.0325 H       1  UNL1        0.0464
     43 H          -2.8171    2.1372    1.1334 H       1  UNL1        0.0553
     44 H          -1.4540    0.9873    1.0800 H       1  UNL1        0.0553
     45 H          -0.9875    2.9449   -0.4008 H       1  UNL1        0.0830
     46 H          -1.1485    1.4594   -1.3715 H       1  UNL1        0.0830
     47 H          -3.1637    4.0463   -3.1887 H       1  UNL1        0.0897
     48 H          -1.6551    4.4356   -2.3380 H       1  UNL1        0.0897
     49 H          -0.0496    4.1247   -4.7395 H       1  UNL1        0.0654
     50 H           0.6495    1.8145   -5.9832 H       1  UNL1        0.0655
     51 H           1.0976   -0.6805   -5.3388 H       1  UNL1        0.0625
     52 H           0.9968   -3.0494   -5.9311 H       1  UNL1        0.0639
     53 H          -3.1657   -0.6646   -4.7176 H       1  UNL1        0.0632
     54 H          -2.2248   -6.1801   -6.4708 H       1  UNL1        0.1048
     55 H          -5.0447   -2.2029   -5.7548 H       1  UNL1        0.1536
     56 H          -7.3674   -2.2995   -5.1201 H       1  UNL1        0.0637
     57 H          -9.1561   -3.6965   -4.1664 H       1  UNL1        0.0655
     58 H          -4.4357   -4.9133   -3.3861 H       1  UNL1        0.0652
     59 H          -7.9870   -7.6347   -3.5563 H       1  UNL1        0.0748
     60 H          -8.4569   -7.5403   -1.8174 H       1  UNL1        0.0748
     61 H          -9.4471   -9.7457   -1.9059 H       1  UNL1        0.0621
     62 H         -11.4679  -11.0704   -2.4018 H       1  UNL1        0.0619
     63 H         -13.1945  -10.1667   -3.9572 H       1  UNL1        0.0646
     64 H         -10.8589   -6.6254   -4.5426 H       1  UNL1        0.0650
     65 N          -2.7429    2.8393   -1.5419 N.4     1  UNL1        0.2336
     66 H          -3.3957    2.1148   -1.9035 H       1  UNL1        0.2018
     67 H          -3.3334    3.4495   -0.9648 H       1  UNL1        0.2018
@<TRIPOS>UNITY_ATOM_ATTR
65 1
charge 1
@<TRIPOS>BOND
     1     1     2    1
     2     1    40    1
     3     1    41    1
     4     1    42    1
     5     2     3    2
     6     2     4    2
     7     2     5    1
     8     5     6    1
     9     5    43    1
    10     5    44    1
    11     6    45    1
    12     6    46    1
    13     6    65    1
    14     7     8    1
    15     7    47    1
    16     7    48    1
    17     7    65    1
    18     8    12   ar
    19     8     9   ar
    20     9    10   ar
    21     9    49    1
    22    10    11   ar
    23    10    50    1
    24    11    12   ar
    25    11    13    1
    26    13    18   ar
    27    13    14   ar
    28    14    15   ar
    29    14    51    1
    30    15    16   ar
    31    15    52    1
    32    16    22   ar
    33    16    17   ar
    34    17    18   ar
    35    17    19   ar
    36    18    53    1
    37    19    20   ar
    38    19    23    1
    39    20    21   ar
    40    21    22   ar
    41    21    54    1
    42    23    24    1
    43    23    55    1
    44    24    29   ar
    45    24    25   ar
    46    25    26   ar
    47    25    56    1
    48    26    27   ar
    49    26    57    1
    50    27    28   ar
    51    27    31    1
    52    28    29   ar
    53    28    30    1
    54    29    58    1
    55    31    32    1
    56    32    33    1
    57    32    59    1
    58    32    60    1
    59    33    38   ar
    60    33    34   ar
    61    34    35   ar
    62    34    61    1
    63    35    36   ar
    64    35    62    1
    65    36    37   ar
    66    36    63    1
    67    37    38   ar
    68    37    39    1
    69    38    64    1
    70    65    66    1
    71    65    67    1
