@<TRIPOS>MOLECULE
ZINC00000504
 41 44 0 0 0
SMALL
GASTEIGER

@<TRIPOS>ATOM
      1 C          -0.4735    0.0806    2.5159 C.3     1  UNL1       -0.0430
      2 N           0.2413   -1.1790    2.7839 N.4     1  UNL1        0.2357
      3 C          -0.2582   -2.4668    2.1205 C.3     1  UNL1       -0.0160
      4 C           0.9719   -3.3982    2.0860 C.3     1  UNL1        0.0531
      5 N           2.1511   -2.5148    2.1094 N.pl3   1  UNL1       -0.3126
      6 C           2.8756   -2.1351    1.0108 C.ar    1  UNL1        0.0340
      7 C           2.6180   -0.9514    0.2996 C.ar    1  UNL1       -0.0404
      8 C           3.4418   -0.5460   -0.7291 C.ar    1  UNL1       -0.0600
      9 C           4.5319   -1.3311   -1.0780 C.ar    1  UNL1       -0.0614
     10 C           4.8427   -2.4775   -0.3284 C.ar    1  UNL1       -0.0565
     11 C           4.0376   -2.8455    0.7637 C.ar    1  UNL1       -0.0220
     12 C           4.3964   -3.9635    1.7236 C.3     1  UNL1       -0.0003
     13 C           4.5953   -3.5596    3.1986 C.ar    1  UNL1       -0.0379
     14 C           5.7639   -4.0896    3.7886 C.ar    1  UNL1       -0.0579
     15 C           6.0898   -3.8243    5.1077 C.ar    1  UNL1       -0.0615
     16 C           5.2383   -3.0514    5.8839 C.ar    1  UNL1       -0.0614
     17 C           4.0529   -2.5224    5.3451 C.ar    1  UNL1       -0.0563
     18 C           3.7014   -2.7501    3.9986 C.ar    1  UNL1       -0.0186
     19 C           2.5758   -1.9165    3.3859 C.3     1  UNL1        0.0891
     20 H           3.0807   -0.9583    3.1784 H       1  UNL1        0.0603
     21 C           1.1930   -1.4253    4.0410 C.3     1  UNL1       -0.0089
     22 H          -1.4017    0.1095    3.0788 H       1  UNL1        0.0778
     23 H          -0.6765    0.1144    1.4326 H       1  UNL1        0.0778
     24 H           0.1975    0.9107    2.7577 H       1  UNL1        0.0778
     25 H          -0.5361   -2.2007    1.0929 H       1  UNL1        0.0830
     26 H          -1.1215   -2.8528    2.6659 H       1  UNL1        0.0830
     27 H           0.9653   -4.0791    1.2298 H       1  UNL1        0.0517
     28 H           0.9644   -4.0206    2.9920 H       1  UNL1        0.0517
     29 H           1.8068   -0.2768    0.5655 H       1  UNL1        0.0636
     30 H           3.2488    0.3950   -1.2478 H       1  UNL1        0.0618
     31 H           5.1745   -1.0371   -1.9044 H       1  UNL1        0.0618
     32 H           5.7121   -3.0578   -0.5868 H       1  UNL1        0.0621
     33 H           5.3027   -4.4500    1.3435 H       1  UNL1        0.0362
     34 H           3.6161   -4.7398    1.6873 H       1  UNL1        0.0362
     35 H           6.4543   -4.6949    3.1961 H       1  UNL1        0.0620
     36 H           7.0202   -4.2145    5.5222 H       1  UNL1        0.0618
     37 H           5.5225   -2.8304    6.9107 H       1  UNL1        0.0618
     38 H           3.4547   -1.8808    5.9848 H       1  UNL1        0.0621
     39 H           0.6974   -2.1778    4.6627 H       1  UNL1        0.0836
     40 H           1.2886   -0.4710    4.5632 H       1  UNL1        0.0836
     41 H           1.0193   -1.0599    2.1278 H       1  UNL1        0.2032
@<TRIPOS>UNITY_ATOM_ATTR
2 1
charge 1
@<TRIPOS>BOND
     1     1    22    1
     2     1    23    1
     3     1    24    1
     4     2    21    1
     5     2     3    1
     6     3     4    1
     7     4     5    1
     8     5    19    1
     9     5     6    1
    10     6    11   ar
    11     6     7   ar
    12     7     8   ar
    13     8     9   ar
    14     9    10   ar
    15    10    11   ar
    16    11    12    1
    17    12    13    1
    18    13    18   ar
    19    13    14   ar
    20    14    15   ar
    21    15    16   ar
    22    16    17   ar
    23    17    18   ar
    24    18    19    1
    25    19    21    1
    26     3    25    1
    27     3    26    1
    28     4    27    1
    29     4    28    1
    30     7    29    1
    31     8    30    1
    32     9    31    1
    33    10    32    1
    34    12    33    1
    35    12    34    1
    36    14    35    1
    37    15    36    1
    38    16    37    1
    39    17    38    1
    40    19    20    1
    41    21    39    1
    42    21    40    1
    43     2    41    1
    44     2     1    1
