@<TRIPOS>MOLECULE
ZINC00057512
 41 42 0 0 0
SMALL
GASTEIGER

@<TRIPOS>ATOM
      1 C          -8.5954   -3.4143   -2.8040 C.3     1  UNL1       -0.0397
      2 C          -7.4348   -2.5926   -2.3270 C.ar    1  UNL1       -0.0503
      3 C          -6.9516   -1.5368   -3.1149 C.ar    1  UNL1       -0.0570
      4 C          -5.8813   -0.7521   -2.6743 C.ar    1  UNL1       -0.0346
      5 C          -5.2947   -1.0186   -1.4347 C.ar    1  UNL1        0.1125
      6 C          -5.7588   -2.0746   -0.6443 C.ar    1  UNL1       -0.0346
      7 C          -6.8283   -2.8558   -1.0904 C.ar    1  UNL1       -0.0570
      8 S          -3.8853   -0.0487   -0.8973 S.O2    1  UNL1        0.0993
      9 O          -3.4155   -0.6208    0.3556 O.2     1  UNL1       -0.1463
     10 O          -2.9690   -0.1089   -2.0348 O.2     1  UNL1       -0.1463
     11 N          -4.3235    1.5034   -0.6941 N.2     1  UNL1       -0.1282
     12 C          -5.4394    1.8606   -0.1532 C.2     1  UNL1        0.0824
     13 O          -6.4048    1.2266    0.3010 O.co2   1  UNL1       -0.8476
     14 N          -5.8331    3.1587    0.0101 N.pl3   1  UNL1       -0.2727
     15 N          -4.9772    4.2934   -0.0426 N.3     1  UNL1       -0.2289
     16 C          -5.8129    5.4838    0.1500 C.3     1  UNL1        0.0166
     17 C          -5.2027    6.7410   -0.4790 C.3     1  UNL1       -0.0386
     18 C          -4.0532    7.3845    0.2870 C.3     1  UNL1       -0.0518
     19 C          -2.8924    6.4490    0.5978 C.3     1  UNL1       -0.0518
     20 C          -3.2878    5.3712    1.5980 C.3     1  UNL1       -0.0386
     21 C          -3.9211    4.1219    0.9740 C.3     1  UNL1        0.0166
     22 H          -9.4703   -2.7764   -2.9666 H       1  UNL1        0.0278
     23 H          -8.3405   -3.9204   -3.7407 H       1  UNL1        0.0278
     24 H          -8.8738   -4.1818   -2.0739 H       1  UNL1        0.0278
     25 H          -7.4155   -1.3100   -4.0713 H       1  UNL1        0.0621
     26 H          -5.5168    0.0743   -3.2789 H       1  UNL1        0.0637
     27 H          -5.3094   -2.2697    0.3252 H       1  UNL1        0.0637
     28 H          -7.1919   -3.6589   -0.4549 H       1  UNL1        0.0621
     29 H          -6.8269    3.2216    0.1862 H       1  UNL1        0.1669
     30 H          -6.0734    5.6438    1.2043 H       1  UNL1        0.0443
     31 H          -6.7681    5.3396   -0.3753 H       1  UNL1        0.0443
     32 H          -5.9971    7.4931   -0.5737 H       1  UNL1        0.0278
     33 H          -4.8774    6.5180   -1.5029 H       1  UNL1        0.0278
     34 H          -3.6752    8.2289   -0.3026 H       1  UNL1        0.0266
     35 H          -4.4364    7.8153    1.2212 H       1  UNL1        0.0266
     36 H          -2.4865    6.0085   -0.3200 H       1  UNL1        0.0266
     37 H          -2.0892    7.0513    1.0405 H       1  UNL1        0.0266
     38 H          -2.3855    5.0493    2.1341 H       1  UNL1        0.0278
     39 H          -3.9546    5.7890    2.3631 H       1  UNL1        0.0278
     40 H          -3.1099    3.5463    0.5108 H       1  UNL1        0.0443
     41 H          -4.2850    3.5203    1.8192 H       1  UNL1        0.0443
@<TRIPOS>UNITY_ATOM_ATTR
13 1
charge -1
@<TRIPOS>BOND
     1     1     2    1
     2     1    22    1
     3     1    23    1
     4     1    24    1
     5     2     7   ar
     6     2     3   ar
     7     3     4   ar
     8     3    25    1
     9     4     5   ar
    10     4    26    1
    11     5     6   ar
    12     5     8    1
    13     6     7   ar
    14     6    27    1
    15     7    28    1
    16     8     9    2
    17     8    10    2
    18     8    11    1
    19    11    12    2
    20    12    13    1
    21    12    14    1
    22    14    15    1
    23    14    29    1
    24    15    21    1
    25    15    16    1
    26    16    17    1
    27    16    30    1
    28    16    31    1
    29    17    18    1
    30    17    32    1
    31    17    33    1
    32    18    19    1
    33    18    34    1
    34    18    35    1
    35    19    20    1
    36    19    36    1
    37    19    37    1
    38    20    21    1
    39    20    38    1
    40    20    39    1
    41    21    40    1
    42    21    41    1
