@<TRIPOS>MOLECULE
ZINC00001148
 43 45 0 0 0
SMALL
GASTEIGER

@<TRIPOS>ATOM
      1 C          -3.0833    2.7149   -1.3138 C.3     1  UNL1       -0.0433
      2 N          -1.5819    2.6595   -1.4072 N.4     1  UNL1        0.2311
      3 C          -0.9673    3.9028   -0.8282 C.3     1  UNL1       -0.0433
      4 C          -0.9764    1.4083   -0.7958 C.3     1  UNL1       -0.0289
      5 C          -1.4656    0.1277   -1.4783 C.3     1  UNL1        0.0065
      6 C          -1.1402    0.0799   -2.9538 C.2     1  UNL1       -0.0706
      7 C          -2.0079   -0.0071   -3.9885 C.2     1  UNL1       -0.0106
      8 C          -1.4527    0.1095   -5.3514 C.ar    1  UNL1       -0.0111
      9 C          -0.6779   -0.9074   -5.9244 C.ar    1  UNL1       -0.0537
     10 C          -0.2545   -0.7905   -7.2449 C.ar    1  UNL1       -0.0612
     11 C          -0.5920    0.3376   -7.9939 C.ar    1  UNL1       -0.0614
     12 C          -1.3577    1.3563   -7.4243 C.ar    1  UNL1       -0.0548
     13 C          -1.7992    1.2448   -6.1018 C.ar    1  UNL1       -0.0027
     14 C          -2.6592    2.3060   -5.4679 C.3     1  UNL1        0.1152
     15 O          -4.0162    1.9108   -5.2860 O.3     1  UNL1       -0.4867
     16 C          -4.3370    0.9167   -4.3986 C.ar    1  UNL1        0.1287
     17 C          -3.4819   -0.0180   -3.7899 C.ar    1  UNL1        0.0241
     18 C          -4.0400   -1.0172   -2.9708 C.ar    1  UNL1       -0.0505
     19 C          -5.4009   -1.0261   -2.6676 C.ar    1  UNL1       -0.0610
     20 C          -6.2364   -0.0743   -3.2363 C.ar    1  UNL1       -0.0583
     21 C          -5.7098    0.8726   -4.1144 C.ar    1  UNL1       -0.0193
     22 H          -3.3716    2.6315   -0.2619 H       1  UNL1        0.0777
     23 H          -3.5015    1.8972   -1.8909 H       1  UNL1        0.0777
     24 H          -3.4201    3.6590   -1.7449 H       1  UNL1        0.0777
     25 H          -1.1938    3.9370    0.2393 H       1  UNL1        0.0777
     26 H           0.1145    3.8584   -0.9989 H       1  UNL1        0.0777
     27 H          -1.3865    4.7659   -1.3494 H       1  UNL1        0.0777
     28 H           0.1116    1.4987   -0.9021 H       1  UNL1        0.0817
     29 H          -1.2319    1.4089    0.2709 H       1  UNL1        0.0817
     30 H          -1.0074   -0.7355   -0.9841 H       1  UNL1        0.0359
     31 H          -2.5350    0.0293   -1.2830 H       1  UNL1        0.0359
     32 H          -0.0729    0.1512   -3.1812 H       1  UNL1        0.0580
     33 H          -0.4422   -1.8085   -5.3627 H       1  UNL1        0.0624
     34 H           0.3197   -1.5920   -7.7061 H       1  UNL1        0.0618
     35 H          -0.2742    0.4146   -9.0302 H       1  UNL1        0.0618
     36 H          -1.6302    2.2170   -8.0326 H       1  UNL1        0.0622
     37 H          -2.2368    2.6527   -4.5163 H       1  UNL1        0.0748
     38 H          -2.6741    3.1970   -6.1084 H       1  UNL1        0.0748
     39 H          -3.4107   -1.7967   -2.5431 H       1  UNL1        0.0625
     40 H          -5.8082   -1.7869   -2.0058 H       1  UNL1        0.0618
     41 H          -7.3036   -0.0878   -3.0254 H       1  UNL1        0.0619
     42 H          -6.3811    1.5841   -4.5920 H       1  UNL1        0.0654
     43 H          -1.3441    2.6417   -2.4105 H       1  UNL1        0.2028
@<TRIPOS>UNITY_ATOM_ATTR
2 1
charge 1
@<TRIPOS>BOND
     1     1     2    1
     2     1    22    1
     3     1    23    1
     4     1    24    1
     5     2     3    1
     6     2     4    1
     7     2    43    1
     8     3    25    1
     9     3    26    1
    10     3    27    1
    11     4     5    1
    12     4    28    1
    13     4    29    1
    14     5     6    1
    15     5    30    1
    16     5    31    1
    17     6     7    2
    18     6    32    1
    19     7    17    1
    20     7     8    1
    21     8    13   ar
    22     8     9   ar
    23     9    10   ar
    24     9    33    1
    25    10    11   ar
    26    10    34    1
    27    11    12   ar
    28    11    35    1
    29    12    13   ar
    30    12    36    1
    31    13    14    1
    32    14    15    1
    33    14    37    1
    34    14    38    1
    35    15    16    1
    36    16    21   ar
    37    16    17   ar
    38    17    18   ar
    39    18    19   ar
    40    18    39    1
    41    19    20   ar
    42    19    40    1
    43    20    21   ar
    44    20    41    1
    45    21    42    1
