@<TRIPOS>MOLECULE
ZINC00002092
 34 35 0 0 0
SMALL
GASTEIGER

@<TRIPOS>ATOM
      1 C           1.6319    0.8660    1.2793 C.3     1  UNL1       -0.0470
      2 C           0.6575    1.3852    0.2354 C.3     1  UNL1        0.0247
      3 N           1.2430    2.3968   -0.6466 N.ar    1  UNL1       -0.2993
      4 C           1.3594    3.6905   -0.1879 C.ar    1  UNL1        0.0126
      5 C           1.8000    4.6624   -0.9824 C.ar    1  UNL1       -0.0040
      6 C           2.0229    4.2403   -2.3668 C.ar    1  UNL1        0.1446
      7 N           2.0338    3.0339   -2.8032 N.ar    1  UNL1       -0.1767
      8 C           1.6854    2.0285   -1.9255 C.ar    1  UNL1        0.3501
      9 O           1.7340    0.8512   -2.2698 O.2     1  UNL1       -0.2444
     10 N           2.2879    5.2595   -3.3003 N.pl3   1  UNL1       -0.1993
     11 S           1.4301    6.7023   -3.4163 S.O2    1  UNL1        0.0735
     12 O           1.2641    6.9626   -4.8291 O.2     1  UNL1       -0.1499
     13 O           0.2973    6.6457   -2.5228 O.2     1  UNL1       -0.1499
     14 C           2.5585    7.9304   -2.7972 C.ar    1  UNL1        0.1087
     15 C           3.7832    8.1323   -3.4350 C.ar    1  UNL1       -0.0333
     16 C           4.5755    9.2286   -3.0719 C.ar    1  UNL1       -0.0392
     17 C           4.1763   10.1043   -2.0553 C.ar    1  UNL1        0.0247
     18 C           2.9443    9.8877   -1.4307 C.ar    1  UNL1       -0.0392
     19 C           2.1429    8.7959   -1.7812 C.ar    1  UNL1       -0.0333
     20 N           4.8578   11.3089   -1.8567 N.pl3   1  UNL1       -0.3580
     21 H           2.4683    0.3401    0.8095 H       1  UNL1        0.0247
     22 H           1.1223    0.1692    1.9530 H       1  UNL1        0.0247
     23 H           2.0414    1.6809    1.8848 H       1  UNL1        0.0247
     24 H           0.2826    0.5460   -0.3610 H       1  UNL1        0.0490
     25 H          -0.2155    1.8301    0.7292 H       1  UNL1        0.0490
     26 H           1.0900    3.8844    0.8453 H       1  UNL1        0.0811
     27 H           1.9361    5.6815   -0.6584 H       1  UNL1        0.0667
     28 H           2.4209    4.8859   -4.2421 H       1  UNL1        0.1752
     29 H           4.1007    7.4881   -4.2509 H       1  UNL1        0.0638
     30 H           5.4953    9.4191   -3.6204 H       1  UNL1        0.0636
     31 H           2.5763   10.5969   -0.6924 H       1  UNL1        0.0636
     32 H           1.1722    8.6775   -1.3046 H       1  UNL1        0.0638
     33 H           5.8376   11.2974   -2.1193 H       1  UNL1        0.1423
     34 H           4.6969   11.7490   -0.9565 H       1  UNL1        0.1423
@<TRIPOS>BOND
     1     1     2    1
     2     1    21    1
     3     1    22    1
     4     1    23    1
     5     2     3    1
     6     2    24    1
     7     2    25    1
     8     3     8   ar
     9     3     4   ar
    10     4     5   ar
    11     4    26    1
    12     5     6   ar
    13     5    27    1
    14     6     7   ar
    15     6    10    1
    16     7     8   ar
    17     8     9    2
    18    10    11    1
    19    10    28    1
    20    11    12    2
    21    11    13    2
    22    11    14    1
    23    14    19   ar
    24    14    15   ar
    25    15    16   ar
    26    15    29    1
    27    16    17   ar
    28    16    30    1
    29    17    18   ar
    30    17    20    1
    31    18    19   ar
    32    18    31    1
    33    19    32    1
    34    20    33    1
    35    20    34    1
