@<TRIPOS>MOLECULE
ZINC02036848
 47 49 0 0 0
SMALL
GASTEIGER

@<TRIPOS>ATOM
      1 C           1.0135    0.1152   -0.0141 C.3     1  UNL1       -0.0394
      2 C           0.4637    0.2439    1.3783 C.ar    1  UNL1       -0.0454
      3 C           0.4189    1.5247    1.9560 C.ar    1  UNL1       -0.0311
      4 C          -0.0590    1.7383    3.2542 C.ar    1  UNL1        0.0886
      5 C          -0.5235    0.6511    4.0199 C.ar    1  UNL1        0.0694
      6 C          -0.4933   -0.6210    3.4230 C.ar    1  UNL1       -0.0329
      7 C           0.0372   -0.8507    2.1397 C.ar    1  UNL1       -0.0455
      8 C           0.1242   -2.2850    1.6901 C.3     1  UNL1       -0.0394
      9 N          -0.9738    0.8801    5.3402 N.ar    1  UNL1       -0.3195
     10 C          -0.9869    2.1850    5.8340 C.ar    1  UNL1        0.1705
     11 N          -1.3996    2.4852    7.0256 N.ar    1  UNL1       -0.1733
     12 C          -1.3743    3.7567    7.5259 C.ar    1  UNL1        0.3505
     13 O          -1.6453    3.9913    8.7000 O.2     1  UNL1       -0.2446
     14 N          -1.0129    4.7984    6.7237 N.ar    1  UNL1       -0.2717
     15 H          -0.9710    5.7034    7.1686 H       1  UNL1        0.1735
     16 C          -0.4597    4.6920    5.4828 C.ar    1  UNL1        0.2817
     17 O           0.0283    5.6331    4.8786 O.2     1  UNL1       -0.2653
     18 C          -0.4720    3.2886    4.9404 C.ar    1  UNL1        0.1712
     19 N          -0.0397    3.0608    3.7342 N.ar    1  UNL1       -0.2368
     20 C          -1.3193   -0.2653    6.1959 C.3     1  UNL1        0.0538
     21 C          -0.0986   -1.1290    6.5792 C.3     1  UNL1        0.1014
     22 H           0.3722   -1.5545    5.6891 H       1  UNL1        0.0638
     23 C           0.9968   -0.3650    7.3362 C.3     1  UNL1        0.1106
     24 H           1.3963    0.4232    6.6849 H       1  UNL1        0.0646
     25 C           0.5904    0.2538    8.6856 C.3     1  UNL1        0.1065
     26 H          -0.2052    0.9837    8.5468 H       1  UNL1        0.0643
     27 C           0.1433   -0.7481    9.7638 C.3     1  UNL1        0.0726
     28 O           1.1429   -1.7193   10.0591 O.3     1  UNL1       -0.3924
     29 O           1.7438    0.9832    9.1487 O.3     1  UNL1       -0.3869
     30 O           2.0979   -1.2763    7.5587 O.3     1  UNL1       -0.3865
     31 O          -0.5423   -2.2727    7.3191 O.3     1  UNL1       -0.3874
     32 H           0.7862    1.0128   -0.5997 H       1  UNL1        0.0278
     33 H           0.5607   -0.7187   -0.5569 H       1  UNL1        0.0278
     34 H           2.0986   -0.0193    0.0195 H       1  UNL1        0.0278
     35 H           0.7709    2.3863    1.3900 H       1  UNL1        0.0642
     36 H          -0.8711   -1.4932    3.9501 H       1  UNL1        0.0641
     37 H           0.7499   -2.8515    2.3906 H       1  UNL1        0.0278
     38 H          -0.8750   -2.7321    1.6720 H       1  UNL1        0.0278
     39 H           0.5663   -2.4066    0.7005 H       1  UNL1        0.0278
     40 H          -1.8228    0.0608    7.1151 H       1  UNL1        0.0519
     41 H          -2.0826   -0.8864    5.7082 H       1  UNL1        0.0519
     42 H          -0.0626   -0.2160   10.6970 H       1  UNL1        0.0584
     43 H          -0.7774   -1.2625    9.4771 H       1  UNL1        0.0584
     44 H           1.5999   -1.9313    9.2208 H       1  UNL1        0.2095
     45 H           1.5358    1.3014   10.0467 H       1  UNL1        0.2100
     46 H           2.8190   -0.7017    7.8967 H       1  UNL1        0.2100
     47 H           0.2658   -2.7764    7.5432 H       1  UNL1        0.2100
@<TRIPOS>BOND
     1     1     2    1
     2     1    32    1
     3     1    33    1
     4     1    34    1
     5     2     7   ar
     6     2     3   ar
     7     3     4   ar
     8     3    35    1
     9     4    19   ar
    10     4     5   ar
    11     5     6   ar
    12     5     9   ar
    13     6     7   ar
    14     6    36    1
    15     7     8    1
    16     8    37    1
    17     8    38    1
    18     8    39    1
    19     9    10   ar
    20     9    20    1
    21    10    18    1
    22    10    11   ar
    23    11    12   ar
    24    12    13    2
    25    12    14   ar
    26    14    15    1
    27    14    16   ar
    28    16    17    2
    29    16    18   ar
    30    18    19   ar
    31    20    21    1
    32    20    40    1
    33    20    41    1
    34    21    22    1
    35    21    23    1
    36    21    31    1
    37    23    24    1
    38    23    25    1
    39    23    30    1
    40    25    26    1
    41    25    27    1
    42    25    29    1
    43    27    28    1
    44    27    42    1
    45    27    43    1
    46    28    44    1
    47    29    45    1
    48    30    46    1
    49    31    47    1
