@<TRIPOS>MOLECULE
ZINC00001207
 36 38 0 0 0
SMALL
GASTEIGER

@<TRIPOS>ATOM
      1 C          -1.0007   -0.7581    0.5161 C.3     1  UNL1       -0.0608
      2 C           0.4722   -1.1337    0.6172 C.3     1  UNL1       -0.0242
      3 C           0.9482   -1.1365    2.0390 C.ar    1  UNL1       -0.0080
      4 C           1.5679   -0.1218    2.7307 C.ar    1  UNL1       -0.0405
      5 C           1.7387   -0.3911    4.1491 C.ar    1  UNL1        0.0295
      6 C           1.5224   -1.7438    4.3724 C.ar    1  UNL1        0.0836
      7 S           0.7472   -2.4972    3.0326 S.2     1  UNL1       -0.0776
      8 N           1.8417   -2.5753    5.4514 N.am    1  UNL1       -0.2668
      9 C           2.8678   -2.1364    6.2784 C.2     1  UNL1        0.2413
     10 O           3.8351   -2.8459    6.5729 O.2     1  UNL1       -0.2732
     11 C           2.5567   -0.8878    7.0710 C.3     1  UNL1        0.1170
     12 N           2.4124    0.3619    6.3624 N.2     1  UNL1       -0.2733
     13 C           2.0890    0.6166    5.1578 C.2     1  UNL1        0.0769
     14 C           1.9449    2.0881    4.8112 C.ar    1  UNL1        0.0189
     15 C           0.8298    2.5062    4.0576 C.ar    1  UNL1       -0.0512
     16 C           0.6594    3.8432    3.6939 C.ar    1  UNL1       -0.0611
     17 C           1.5530    4.8029    4.1505 C.ar    1  UNL1       -0.0603
     18 C           2.6181    4.4207    4.9655 C.ar    1  UNL1       -0.0427
     19 C           2.8286    3.0710    5.2888 C.ar    1  UNL1        0.0501
     20 CL          4.2273    2.7341    6.2491 Cl      1  UNL1       -0.0829
     21 C           1.5621   -4.0050    5.5052 C.3     1  UNL1        0.0088
     22 H          -1.6354   -1.4886    1.0294 H       1  UNL1        0.0233
     23 H          -1.3120   -0.7204   -0.5329 H       1  UNL1        0.0233
     24 H          -1.1934    0.2241    0.9619 H       1  UNL1        0.0233
     25 H           0.6365   -2.1127    0.1518 H       1  UNL1        0.0316
     26 H           1.0612   -0.4104    0.0398 H       1  UNL1        0.0316
     27 H           1.7950    0.8249    2.2535 H       1  UNL1        0.0633
     28 H           1.6559   -1.0796    7.6621 H       1  UNL1        0.0605
     29 H           3.3763   -0.7647    7.7883 H       1  UNL1        0.0605
     30 H           0.0714    1.7942    3.7377 H       1  UNL1        0.0625
     31 H          -0.1794    4.1335    3.0644 H       1  UNL1        0.0618
     32 H           1.4159    5.8486    3.8856 H       1  UNL1        0.0618
     33 H           3.2924    5.1856    5.3457 H       1  UNL1        0.0632
     34 H           0.4761   -4.1511    5.5036 H       1  UNL1        0.0433
     35 H           2.0262   -4.5241    4.6601 H       1  UNL1        0.0433
     36 H           1.9491   -4.4403    6.4309 H       1  UNL1        0.0433
@<TRIPOS>BOND
     1     1     2    1
     2     1    22    1
     3     1    23    1
     4     1    24    1
     5     2     3    1
     6     2    25    1
     7     2    26    1
     8     3     7   ar
     9     3     4   ar
    10     4     5   ar
    11     4    27    1
    12     5    13    1
    13     5     6   ar
    14     6     7   ar
    15     6     8    1
    16     8     9   am
    17     8    21    1
    18     9    10    2
    19     9    11    1
    20    11    12    1
    21    11    28    1
    22    11    29    1
    23    12    13    2
    24    13    14    1
    25    14    19   ar
    26    14    15   ar
    27    15    16   ar
    28    15    30    1
    29    16    17   ar
    30    16    31    1
    31    17    18   ar
    32    17    32    1
    33    18    19   ar
    34    18    33    1
    35    19    20    1
    36    21    34    1
    37    21    35    1
    38    21    36    1
