@<TRIPOS>MOLECULE
ZINC03830999
 35 36 0 0 0
SMALL
GASTEIGER

@<TRIPOS>ATOM
      1 C           3.7174   -0.4305   -0.0109 C.ar    1  UNL1       -0.0158
      2 C           3.2664    0.8712   -0.2690 C.ar    1  UNL1       -0.0157
      3 C           1.9569    1.0853   -0.7074 C.ar    1  UNL1        0.1301
      4 C           1.1132    0.0012   -0.9475 C.ar    1  UNL1        0.0582
      5 C           1.5529   -1.2900   -0.6550 C.ar    1  UNL1       -0.0027
      6 C           2.8295   -1.4994   -0.1238 C.ar    1  UNL1        0.1297
      7 O           3.0663   -2.7983    0.2497 O.3     1  UNL1       -0.4539
      8 C           3.9922   -3.1416    1.2061 C.ar    1  UNL1        0.1545
      9 C           4.7318   -4.3099    0.9334 C.ar    1  UNL1        0.0569
     10 C           5.6458   -4.8360    1.8573 C.ar    1  UNL1       -0.0416
     11 C           5.8721   -4.1851    3.0708 C.ar    1  UNL1       -0.0393
     12 C           5.1173   -3.0428    3.3659 C.ar    1  UNL1       -0.0416
     13 C           4.1469   -2.5539    2.4719 C.ar    1  UNL1        0.0569
     14 I           2.8725   -1.0873    3.3099 I       1  UNL1       -0.0400
     15 C           6.8588   -4.7240    4.0866 C.3     1  UNL1        0.0261
     16 CA          8.2729   -4.9581    3.5598 C.3     1  UNL1        0.0826
     17 HA          8.3219   -5.6884    2.7468 H       1  UNL1        0.0973
     18 C           8.8892   -3.5853    3.1681 C.2     1  UNL1        0.4029
     19 O           9.5027   -3.0949    4.1712 O.co2   1  UNL1       -0.2400
     20 I           4.4563   -5.4158   -0.8444 I       1  UNL1       -0.0400
     21 I          -0.8233    0.2362   -1.6934 I       1  UNL1       -0.0399
     22 O           1.5048    2.3630   -0.8867 O.3     1  UNL1       -0.5057
     23 H           4.7378   -0.5776    0.3333 H       1  UNL1        0.0655
     24 H           3.9423    1.7050   -0.1003 H       1  UNL1        0.0655
     25 H           0.9012   -2.1466   -0.8081 H       1  UNL1        0.0666
     26 H           6.1753   -5.7562    1.6252 H       1  UNL1        0.0632
     27 H           5.2666   -2.5430    4.3227 H       1  UNL1        0.0632
     28 H           6.8924   -4.0397    4.9467 H       1  UNL1        0.0374
     29 H           6.4445   -5.6649    4.4715 H       1  UNL1        0.0374
     30 H1          9.2867   -4.6935    5.2892 H       1  UNL1        0.2003
     31 H2          8.6928   -6.3019    5.2337 H       1  UNL1        0.2003
     32 H           2.1331    2.9819   -0.4810 H       1  UNL1        0.2922
     33 OXT         8.8413   -3.2644    1.9639 O.co2   1  UNL1       -0.2400
     34 N           9.1063   -5.5369    4.7004 N.4     1  UNL1        0.2291
     35 H3         10.0383   -5.7588    4.3420 H       1  UNL1        0.2003
@<TRIPOS>UNITY_ATOM_ATTR
34 1
charge 1
@<TRIPOS>BOND
     1     1     6   ar
     2     1     2   ar
     3     1    23    1
     4     2     3   ar
     5     2    24    1
     6     3     4   ar
     7     3    22    1
     8     4     5   ar
     9     4    21    1
    10     5     6   ar
    11     5    25    1
    12     6     7    1
    13     7     8    1
    14     8    13   ar
    15     8     9   ar
    16     9    10   ar
    17     9    20    1
    18    10    11   ar
    19    10    26    1
    20    11    12   ar
    21    11    15    1
    22    12    13   ar
    23    12    27    1
    24    13    14    1
    25    15    16    1
    26    15    28    1
    27    15    29    1
    28    16    17    1
    29    16    18    1
    30    16    34    1
    31    18    19   ar
    32    18    33   ar
    33    22    32    1
    34    30    34    1
    35    31    34    1
    36    34    35    1
