@<TRIPOS>MOLECULE
ZINC00538065
 66 69 0 0 0
SMALL
GASTEIGER

@<TRIPOS>ATOM
      1 C           1.4978   -2.5258   -2.4026 C.3     1  UNL1       -0.0584
      2 C           0.2108   -2.8434   -1.6554 C.3     1  UNL1        0.0046
      3 C           0.4603   -3.1837   -0.2063 C.ar    1  UNL1        0.1340
      4 N           1.5948   -3.6547    0.2441 N.ar    1  UNL1       -0.1537
      5 N           1.3955   -3.7565    1.5969 N.ar    1  UNL1       -0.2127
      6 C           0.0771   -3.4078    1.9125 C.ar    1  UNL1        0.3468
      7 O          -0.4246   -3.4824    3.0209 O.2     1  UNL1       -0.2448
      8 N          -0.5058   -3.0321    0.7312 N.ar    1  UNL1       -0.2760
      9 C          -1.9478   -2.9399    0.5090 C.3     1  UNL1        0.0634
     10 C          -2.8254   -2.6891    1.7394 C.3     1  UNL1        0.1076
     11 O          -4.1946   -2.5847    1.3160 O.3     1  UNL1       -0.4902
     12 C          -4.8057   -1.4193    1.6871 C.ar    1  UNL1        0.1206
     13 C          -4.2566   -0.1642    1.4241 C.ar    1  UNL1       -0.0199
     14 C          -4.9332    0.9890    1.8233 C.ar    1  UNL1       -0.0583
     15 C          -6.1577    0.8874    2.4826 C.ar    1  UNL1       -0.0615
     16 C          -6.7259   -0.3661    2.7079 C.ar    1  UNL1       -0.0583
     17 C          -6.0597   -1.5195    2.2891 C.ar    1  UNL1       -0.0199
     18 C           2.1910   -4.5675    2.4831 C.3     1  UNL1        0.0516
     19 C           3.6025   -4.8713    2.0056 C.3     1  UNL1        0.0072
     20 C           4.4366   -3.6188    1.7684 C.3     1  UNL1       -0.0301
     21 N           5.8816   -3.9874    1.4590 N.4     1  UNL1        0.2375
     22 C           6.0232   -4.9588    0.2815 C.3     1  UNL1       -0.0158
     23 C           7.5004   -5.2762   -0.0142 C.3     1  UNL1        0.0525
     24 N           8.3204   -4.0648   -0.1463 N.pl3   1  UNL1       -0.3197
     25 C           8.2042   -3.1033    0.9676 C.3     1  UNL1        0.0525
     26 C           6.7272   -2.7265    1.2138 C.3     1  UNL1       -0.0158
     27 C           8.5578   -3.5141   -1.4058 C.ar    1  UNL1        0.0314
     28 C           9.7493   -2.8023   -1.6250 C.ar    1  UNL1       -0.0406
     29 C          10.0491   -2.2373   -2.8680 C.ar    1  UNL1       -0.0586
     30 C           9.1475   -2.3505   -3.9202 C.ar    1  UNL1       -0.0433
     31 C           7.9658   -3.0581   -3.7261 C.ar    1  UNL1        0.0427
     32 C           7.6798   -3.6443   -2.4896 C.ar    1  UNL1       -0.0223
     33 CL          6.8355   -3.2025   -5.0149 Cl      1  UNL1       -0.0835
     34 H           2.1290   -1.8366   -1.8313 H       1  UNL1        0.0234
     35 H           1.2760   -2.0591   -3.3678 H       1  UNL1        0.0234
     36 H           2.0777   -3.4348   -2.5911 H       1  UNL1        0.0234
     37 H          -0.4475   -1.9697   -1.7060 H       1  UNL1        0.0341
     38 H          -0.3079   -3.6794   -2.1365 H       1  UNL1        0.0341
     39 H          -2.1366   -2.1692   -0.2460 H       1  UNL1        0.0527
     40 H          -2.2553   -3.8846    0.0420 H       1  UNL1        0.0527
     41 H          -2.7831   -3.5518    2.4138 H       1  UNL1        0.0714
     42 H          -2.4738   -1.8202    2.3099 H       1  UNL1        0.0714
     43 H          -3.3113   -0.0677    0.9017 H       1  UNL1        0.0654
     44 H          -4.5080    1.9676    1.6171 H       1  UNL1        0.0619
     45 H          -6.6753    1.7859    2.8098 H       1  UNL1        0.0618
     46 H          -7.6882   -0.4438    3.2082 H       1  UNL1        0.0619
     47 H          -6.5163   -2.4932    2.4460 H       1  UNL1        0.0654
     48 H           2.2096   -4.0762    3.4620 H       1  UNL1        0.0512
     49 H           1.6515   -5.5138    2.6186 H       1  UNL1        0.0512
     50 H           4.0935   -5.5049    2.7546 H       1  UNL1        0.0335
     51 H           3.5274   -5.4596    1.0849 H       1  UNL1        0.0335
     52 H           4.0712   -3.0189    0.9301 H       1  UNL1        0.0815
     53 H           4.4668   -2.9987    2.6716 H       1  UNL1        0.0815
     54 H           5.5106   -4.4992   -0.5678 H       1  UNL1        0.0830
     55 H           5.5231   -5.8897    0.5594 H       1  UNL1        0.0830
     56 H           7.5851   -5.9250   -0.8948 H       1  UNL1        0.0516
     57 H           7.9028   -5.8597    0.8246 H       1  UNL1        0.0516
     58 H           8.6115   -3.5735    1.8710 H       1  UNL1        0.0516
     59 H           8.7899   -2.1918    0.8012 H       1  UNL1        0.0516
     60 H           6.6332   -2.0979    2.1050 H       1  UNL1        0.0830
     61 H           6.2935   -2.2136    0.3480 H       1  UNL1        0.0830
     62 H          10.4885   -2.7231   -0.8299 H       1  UNL1        0.0636
     63 H          10.9885   -1.7036   -3.0092 H       1  UNL1        0.0619
     64 H           9.3791   -1.9032   -4.8839 H       1  UNL1        0.0632
     65 H           6.7497   -4.1917   -2.4046 H       1  UNL1        0.0651
     66 H           6.2765   -4.4530    2.2858 H       1  UNL1        0.2034
@<TRIPOS>UNITY_ATOM_ATTR
21 1
charge 1
@<TRIPOS>BOND
     1     1     2    1
     2     1    34    1
     3     1    35    1
     4     1    36    1
     5     2     3    1
     6     2    37    1
     7     2    38    1
     8     3     8   ar
     9     3     4   ar
    10     4     5   ar
    11     5     6   ar
    12     5    18    1
    13     6     7    2
    14     6     8   ar
    15     8     9    1
    16     9    10    1
    17     9    39    1
    18     9    40    1
    19    10    11    1
    20    10    41    1
    21    10    42    1
    22    11    12    1
    23    12    17   ar
    24    12    13   ar
    25    13    14   ar
    26    13    43    1
    27    14    15   ar
    28    14    44    1
    29    15    16   ar
    30    15    45    1
    31    16    17   ar
    32    16    46    1
    33    17    47    1
    34    18    19    1
    35    18    48    1
    36    18    49    1
    37    19    20    1
    38    19    50    1
    39    19    51    1
    40    20    21    1
    41    20    52    1
    42    20    53    1
    43    21    26    1
    44    21    22    1
    45    21    66    1
    46    22    23    1
    47    22    54    1
    48    22    55    1
    49    23    24    1
    50    23    56    1
    51    23    57    1
    52    24    25    1
    53    24    27    1
    54    25    26    1
    55    25    58    1
    56    25    59    1
    57    26    60    1
    58    26    61    1
    59    27    32   ar
    60    27    28   ar
    61    28    29   ar
    62    28    62    1
    63    29    30   ar
    64    29    63    1
    65    30    31   ar
    66    30    64    1
    67    31    32   ar
    68    31    33    1
    69    32    65    1
