@<TRIPOS>MOLECULE
ZINC01482197
 22 23 0 0 0
SMALL
GASTEIGER

@<TRIPOS>ATOM
      1 C          -2.3404    4.4071   -1.7112 C.ar    1  UNL1       -0.0617
      2 C          -2.3898    4.2125   -0.3358 C.ar    1  UNL1       -0.0615
      3 C          -2.5100    2.9208    0.1800 C.ar    1  UNL1       -0.0581
      4 C          -2.5943    1.7972   -0.6624 C.ar    1  UNL1       -0.0388
      5 C          -2.5264    2.0201   -2.0470 C.ar    1  UNL1       -0.0581
      6 C          -2.4042    3.3119   -2.5676 C.ar    1  UNL1       -0.0615
      7 C          -2.7192    0.4117   -0.0787 C.3     1  UNL1        0.0321
      8 H          -1.7690   -0.0379    0.2035 H       1  UNL1        0.0406
      9 C          -3.7593   -0.5712   -0.5557 C.3     1  UNL1        0.0027
     10 C          -3.9467    0.1126    0.7616 C.3     1  UNL1       -0.0165
     11 H          -4.7383    0.8604    0.8014 H       1  UNL1        0.0856
     12 N          -3.7360   -0.6715    1.9817 N.4     1  UNL1        0.2212
     13 H          -2.2415    5.4122   -2.1167 H       1  UNL1        0.0618
     14 H          -2.3278    5.0664    0.3350 H       1  UNL1        0.0618
     15 H          -2.5288    2.8007    1.2603 H       1  UNL1        0.0620
     16 H          -2.5620    1.1826   -2.7414 H       1  UNL1        0.0620
     17 H          -2.3523    3.4641   -3.6436 H       1  UNL1        0.0618
     18 H          -4.4129   -0.2813   -1.3739 H       1  UNL1        0.0328
     19 H          -3.4815   -1.6190   -0.5898 H       1  UNL1        0.0328
     20 H          -4.0436   -1.6458    1.8583 H       1  UNL1        0.1997
     21 H          -2.7484   -0.6759    2.2648 H       1  UNL1        0.1997
     22 H          -4.2765   -0.2754    2.7628 H       1  UNL1        0.1997
@<TRIPOS>UNITY_ATOM_ATTR
12 1
charge 1
@<TRIPOS>BOND
     1     1     6   ar
     2     1     2   ar
     3     1    13    1
     4     2     3   ar
     5     2    14    1
     6     3     4   ar
     7     3    15    1
     8     4     5   ar
     9     5     6   ar
    10     5    16    1
    11     6    17    1
    12     7    10    1
    13     7     9    1
    14     9    10    1
    15     9    18    1
    16     9    19    1
    17    12    20    1
    18    12    21    1
    19    12    22    1
    20     7     8    1
    21     7     4    1
    22    10    12    1
    23    10    11    1
