@<TRIPOS>MOLECULE
ZINC00000135
 24 24 0 0 0
SMALL
GASTEIGER

@<TRIPOS>ATOM
      1 C           1.5865    1.0888   -0.3837 C.ar    1  UNL1       -0.0186
      2 C           0.1917    0.9973   -0.3165 C.ar    1  UNL1       -0.0399
      3 C          -0.4086   -0.1213    0.2578 C.ar    1  UNL1        0.0412
      4 C           0.3777   -1.1546    0.7633 C.ar    1  UNL1       -0.0399
      5 C           1.7685   -1.0661    0.6855 C.ar    1  UNL1       -0.0186
      6 C           2.3797    0.0575    0.1212 C.ar    1  UNL1        0.1207
      7 O           3.7444    0.0061    0.0742 O.3     1  UNL1       -0.4893
      8 C           4.4350    1.2537    0.0042 C.3     1  UNL1        0.1175
      9 C           5.9428    0.9888   -0.0458 C.3     1  UNL1        0.1120
     10 H           6.2532    0.4201    0.8387 H       1  UNL1        0.0650
     11 C           6.3402    0.2145   -1.3074 C.3     1  UNL1        0.0733
     12 O           7.7534    0.0073   -1.3125 O.3     1  UNL1       -0.3923
     13 O           6.6482    2.2380   -0.0261 O.3     1  UNL1       -0.3861
     14 CL         -2.1224   -0.2337    0.3320 Cl      1  UNL1       -0.0835
     15 H           2.0160    1.9651   -0.8568 H       1  UNL1        0.0654
     16 H          -0.4206    1.7984   -0.7232 H       1  UNL1        0.0633
     17 H          -0.0834   -2.0313    1.2118 H       1  UNL1        0.0633
     18 H           2.3818   -1.8762    1.0732 H       1  UNL1        0.0654
     19 H           4.1497    1.8262   -0.8851 H       1  UNL1        0.0723
     20 H           4.2030    1.8568    0.8921 H       1  UNL1        0.0723
     21 H           5.8525   -0.7639   -1.3474 H       1  UNL1        0.0584
     22 H           6.0821    0.7706   -2.2156 H       1  UNL1        0.0584
     23 H           8.1547    0.8526   -1.5777 H       1  UNL1        0.2095
     24 H           7.5618    2.0237    0.2370 H       1  UNL1        0.2100
@<TRIPOS>BOND
     1     1     6   ar
     2     1     2   ar
     3     1    15    1
     4     2     3   ar
     5     2    16    1
     6     3     4   ar
     7     3    14    1
     8     4     5   ar
     9     4    17    1
    10     5     6   ar
    11     5    18    1
    12     6     7    1
    13     7     8    1
    14     8     9    1
    15     8    19    1
    16     8    20    1
    17     9    10    1
    18     9    11    1
    19     9    13    1
    20    11    12    1
    21    11    21    1
    22    11    22    1
    23    12    23    1
    24    13    24    1
