@<TRIPOS>MOLECULE
ZINC00155531
 47 48 0 0 0
SMALL
GASTEIGER

@<TRIPOS>ATOM
      1 C          -3.6164    1.4040   -1.5396 C.3     1  UNL1       -0.0432
      2 N          -2.1393    1.6458   -1.4119 N.4     1  UNL1        0.2333
      3 C          -1.8779    2.9574   -0.7138 C.3     1  UNL1       -0.0432
      4 C          -1.3761    0.5171   -0.7357 C.3     1  UNL1        0.0027
      5 C          -1.4147   -0.7921   -1.5416 C.3     1  UNL1        0.1320
      6 O          -0.8924   -0.6728   -2.8768 O.3     1  UNL1       -0.4588
      7 C           0.4772   -0.6273   -2.9256 C.2     1  UNL1        0.3176
      8 O           1.1378   -0.3893   -1.9210 O.2     1  UNL1       -0.2501
      9 C           1.0170   -0.9868   -4.3126 C.3     1  UNL1        0.1100
     10 H           0.6157   -1.9916   -4.5179 H       1  UNL1        0.0491
     11 C           0.4636   -0.0349   -5.3724 C.ar    1  UNL1       -0.0310
     12 C          -0.3527   -0.5163   -6.4080 C.ar    1  UNL1       -0.0577
     13 C          -0.9077    0.3607   -7.3437 C.ar    1  UNL1       -0.0615
     14 C          -0.6534    1.7262   -7.2624 C.ar    1  UNL1       -0.0617
     15 C           0.1667    2.2181   -6.2515 C.ar    1  UNL1       -0.0615
     16 C           0.7210    1.3440   -5.3114 C.ar    1  UNL1       -0.0577
     17 C           2.5697   -1.1252   -4.2882 C.3     1  UNL1        0.0830
     18 C           3.1669   -1.6834   -5.5906 C.3     1  UNL1       -0.0229
     19 C           4.5526   -2.2103   -5.1972 C.3     1  UNL1       -0.0503
     20 C           4.4944   -2.4921   -3.6985 C.3     1  UNL1       -0.0503
     21 C           3.0656   -2.1727   -3.2720 C.3     1  UNL1       -0.0229
     22 O           3.1697    0.1429   -3.9972 O.3     1  UNL1       -0.3874
     23 H          -4.0520    1.3717   -0.5365 H       1  UNL1        0.0777
     24 H          -3.7810    0.4641   -2.0674 H       1  UNL1        0.0777
     25 H          -4.0424    2.2245   -2.1226 H       1  UNL1        0.0777
     26 H          -2.2973    2.9011    0.2959 H       1  UNL1        0.0777
     27 H          -0.7982    3.1225   -0.6762 H       1  UNL1        0.0777
     28 H          -2.3583    3.7519   -1.2901 H       1  UNL1        0.0777
     29 H          -0.3519    0.8814   -0.6191 H       1  UNL1        0.0848
     30 H          -1.8127    0.3763    0.2583 H       1  UNL1        0.0848
     31 H          -0.8620   -1.5744   -1.0053 H       1  UNL1        0.0752
     32 H          -2.4385   -1.1676   -1.6306 H       1  UNL1        0.0752
     33 H          -0.5662   -1.5804   -6.5052 H       1  UNL1        0.0621
     34 H          -1.5376   -0.0237   -8.1465 H       1  UNL1        0.0618
     35 H          -1.0814    2.4071   -7.9964 H       1  UNL1        0.0618
     36 H           0.3891    3.2794   -6.2020 H       1  UNL1        0.0618
     37 H           1.3701    1.7548   -4.5406 H       1  UNL1        0.0621
     38 H           2.5655   -2.5183   -5.9709 H       1  UNL1        0.0293
     39 H           3.2550   -0.9296   -6.3792 H       1  UNL1        0.0293
     40 H           5.3239   -1.4591   -5.4025 H       1  UNL1        0.0266
     41 H           4.8151   -3.1085   -5.7651 H       1  UNL1        0.0266
     42 H           5.2012   -1.8431   -3.1675 H       1  UNL1        0.0266
     43 H           4.7622   -3.5259   -3.4591 H       1  UNL1        0.0266
     44 H           3.0665   -1.8156   -2.2385 H       1  UNL1        0.0293
     45 H           2.4576   -3.0844   -3.3248 H       1  UNL1        0.0293
     46 H           4.1375    0.0595   -4.0434 H       1  UNL1        0.2102
     47 H          -1.7537    1.7233   -2.3659 H       1  UNL1        0.2029
@<TRIPOS>UNITY_ATOM_ATTR
2 1
charge 1
@<TRIPOS>BOND
     1     1     2    1
     2     1    23    1
     3     1    24    1
     4     1    25    1
     5     2     3    1
     6     2     4    1
     7     2    47    1
     8     3    26    1
     9     3    27    1
    10     3    28    1
    11     4     5    1
    12     4    29    1
    13     4    30    1
    14     5     6    1
    15     5    31    1
    16     5    32    1
    17     6     7    1
    18     7     8    2
    19     7     9    1
    20     9    10    1
    21     9    11    1
    22     9    17    1
    23    11    16   ar
    24    11    12   ar
    25    12    13   ar
    26    12    33    1
    27    13    14   ar
    28    13    34    1
    29    14    15   ar
    30    14    35    1
    31    15    16   ar
    32    15    36    1
    33    16    37    1
    34    17    21    1
    35    17    18    1
    36    17    22    1
    37    18    19    1
    38    18    38    1
    39    18    39    1
    40    19    20    1
    41    19    40    1
    42    19    41    1
    43    20    21    1
    44    20    42    1
    45    20    43    1
    46    21    44    1
    47    21    45    1
    48    22    46    1
