@<TRIPOS>MOLECULE
ZINC00003911
 46 47 0 0 0
SMALL
GASTEIGER

@<TRIPOS>ATOM
      1 C           0.2985    0.3946    2.6463 C.3     1  UNL1       -0.0216
      2 C           0.1800   -0.3967    1.3454 C.3     1  UNL1       -0.0252
      3 H           0.5665    0.2014    0.5131 H       1  UNL1        0.0848
      4 C          -1.2330   -0.9337    1.0475 C.3     1  UNL1       -0.0060
      5 C          -2.4075    0.0522    1.0175 C.3     1  UNL1       -0.0226
      6 C          -2.6273    0.9969   -0.1425 C.ar    1  UNL1       -0.0469
      7 C          -3.5956    2.0082    0.0363 C.ar    1  UNL1       -0.0551
      8 C          -4.0701    2.7711   -1.0335 C.ar    1  UNL1       -0.0199
      9 C          -3.5695    2.5348   -2.3079 C.ar    1  UNL1        0.1169
     10 C          -2.5720    1.5845   -2.5037 C.ar    1  UNL1       -0.0199
     11 C          -2.1012    0.8148   -1.4296 C.ar    1  UNL1       -0.0551
     12 O          -4.0608    3.1893   -3.3966 O.3     1  UNL1       -0.5068
     13 N           1.1336   -1.5935    1.4781 N.4     1  UNL1        0.2292
     14 C           1.3312   -2.3446    0.2069 C.3     1  UNL1       -0.0294
     15 C           2.3461   -3.4884    0.3250 C.3     1  UNL1        0.0128
     16 C           2.2615   -4.1997   -1.0055 C.ar    1  UNL1       -0.0387
     17 C           2.9185   -3.6549   -2.1290 C.ar    1  UNL1       -0.0547
     18 C           2.5419   -4.0420   -3.4129 C.ar    1  UNL1       -0.0163
     19 C           1.5262   -4.9665   -3.5797 C.ar    1  UNL1        0.1582
     20 C           0.9153   -5.5542   -2.4787 C.ar    1  UNL1        0.1585
     21 C           1.3022   -5.2023   -1.1888 C.ar    1  UNL1       -0.0132
     22 O          -0.1461   -6.3997   -2.6118 O.3     1  UNL1       -0.5033
     23 O           1.1267   -5.2639   -4.8496 O.3     1  UNL1       -0.5033
     24 H           0.1354    1.4602    2.4559 H       1  UNL1        0.0284
     25 H           1.2937    0.3004    3.0983 H       1  UNL1        0.0284
     26 H          -0.4327    0.0678    3.3920 H       1  UNL1        0.0284
     27 H          -1.2373   -1.4854    0.1026 H       1  UNL1        0.0323
     28 H          -1.4714   -1.6744    1.8246 H       1  UNL1        0.0323
     29 H          -3.3073   -0.5827    1.0078 H       1  UNL1        0.0315
     30 H          -2.4424    0.6093    1.9601 H       1  UNL1        0.0315
     31 H          -4.0369    2.1761    1.0189 H       1  UNL1        0.0621
     32 H          -4.8466    3.5086   -0.8649 H       1  UNL1        0.0654
     33 H          -2.2033    1.4088   -3.5111 H       1  UNL1        0.0654
     34 H          -1.3757    0.0380   -1.6481 H       1  UNL1        0.0621
     35 H          -4.8554    3.6868   -3.1360 H       1  UNL1        0.2921
     36 H           2.0526   -1.2571    1.7984 H       1  UNL1        0.2016
     37 H           0.3570   -2.7516   -0.0761 H       1  UNL1        0.0817
     38 H           1.6465   -1.6140   -0.5464 H       1  UNL1        0.0817
     39 H           3.3581   -3.1153    0.5105 H       1  UNL1        0.0365
     40 H           2.0887   -4.1702    1.1442 H       1  UNL1        0.0365
     41 H           3.6725   -2.8814   -2.0127 H       1  UNL1        0.0621
     42 H           3.0169   -3.5895   -4.2817 H       1  UNL1        0.0655
     43 H           0.7737   -5.6438   -0.3474 H       1  UNL1        0.0658
     44 H          -0.6353   -6.1280   -3.4095 H       1  UNL1        0.2923
     45 H           0.8874   -6.2079   -4.8715 H       1  UNL1        0.2923
     46 H           0.7924   -2.2293    2.2131 H       1  UNL1        0.2016
@<TRIPOS>UNITY_ATOM_ATTR
13 1
charge 1
@<TRIPOS>BOND
     1     1    24    1
     2     1    25    1
     3     1    26    1
     4     2     4    1
     5     2    13    1
     6     4     5    1
     7     4    27    1
     8     4    28    1
     9     5     6    1
    10     5    29    1
    11     5    30    1
    12     6    11   ar
    13     6     7   ar
    14     7     8   ar
    15     7    31    1
    16     8     9   ar
    17     8    32    1
    18     9    10   ar
    19     9    12    1
    20    10    11   ar
    21    10    33    1
    22    11    34    1
    23    12    35    1
    24    13    14    1
    25    13    36    1
    26    13    46    1
    27    14    15    1
    28    14    37    1
    29    14    38    1
    30    15    16    1
    31    15    39    1
    32    15    40    1
    33    16    21   ar
    34    16    17   ar
    35    17    18   ar
    36    17    41    1
    37    18    19   ar
    38    18    42    1
    39    19    20   ar
    40    19    23    1
    41    20    21   ar
    42    20    22    1
    43    21    43    1
    44    22    44    1
    45    23    45    1
    46     2     3    1
    47     2     1    1
