@<TRIPOS>MOLECULE
ZINC00538266
 36 38 0 0 0
SMALL
GASTEIGER

@<TRIPOS>ATOM
      1 C          -0.1543    1.2044   -0.0184 C.ar    1  UNL1       -0.0610
      2 C          -1.3487    1.0967   -0.7306 C.ar    1  UNL1       -0.0590
      3 C          -1.8077   -0.1574   -1.1315 C.ar    1  UNL1       -0.0258
      4 C          -1.0612   -1.2971   -0.8377 C.ar    1  UNL1        0.1325
      5 C           0.1663   -1.1983   -0.1779 C.ar    1  UNL1        0.0357
      6 C           0.6009    0.0619    0.2604 C.ar    1  UNL1       -0.0498
      7 C           1.0639   -2.3812    0.0297 C.2     1  UNL1        0.0777
      8 N           1.7816   -2.3760    1.1066 N.2     1  UNL1       -0.2761
      9 C           2.7004   -3.4830    1.3310 C.3     1  UNL1        0.0854
     10 C           1.8691   -4.7162    1.6647 C.2     1  UNL1        0.0774
     11 S           1.7781   -5.2011    3.2807 S.2     1  UNL1       -0.0379
     12 N           1.2649   -5.3818    0.5840 N.am    1  UNL1       -0.2869
     13 C           1.2400   -4.8270   -0.7513 C.ar    1  UNL1        0.0438
     14 C           1.1501   -3.4411   -1.0299 C.ar    1  UNL1        0.0233
     15 C           1.1156   -2.9915   -2.3677 C.ar    1  UNL1       -0.0324
     16 C           1.1174   -3.8929   -3.4243 C.ar    1  UNL1        0.0417
     17 C           1.2113   -5.2504   -3.1738 C.ar    1  UNL1       -0.0416
     18 C           1.2790   -5.7078   -1.8542 C.ar    1  UNL1       -0.0383
     19 CL          0.9926   -3.3234   -5.0405 Cl      1  UNL1       -0.0835
     20 C           0.6564   -6.7328    0.7723 C.3     1  UNL1        0.1127
     21 C           1.6305   -7.9157    0.7083 C.3     1  UNL1        0.4056
     22 F           2.8944   -7.5356    0.4147 F       1  UNL1       -0.1689
     23 F           1.6635   -8.6110    1.8636 F       1  UNL1       -0.1689
     24 F           1.2465   -8.7795   -0.2674 F       1  UNL1       -0.1689
     25 F          -1.5441   -2.4870   -1.2247 F       1  UNL1       -0.2048
     26 H           0.1974    2.1798    0.3118 H       1  UNL1        0.0618
     27 H          -1.9240    1.9894   -0.9664 H       1  UNL1        0.0618
     28 H          -2.7410   -0.2544   -1.6777 H       1  UNL1        0.0646
     29 H           1.5399    0.1608    0.8022 H       1  UNL1        0.0625
     30 H           3.3562   -3.6661    0.4689 H       1  UNL1        0.0576
     31 H           3.3654   -3.2181    2.1584 H       1  UNL1        0.0576
     32 H           1.0650   -1.9297   -2.5969 H       1  UNL1        0.0639
     33 H           1.2397   -5.9635   -3.9941 H       1  UNL1        0.0633
     34 H           1.3987   -6.7802   -1.7289 H       1  UNL1        0.0637
     35 H           0.1338   -6.7616    1.7342 H       1  UNL1        0.0557
     36 H          -0.1466   -6.8647    0.0362 H       1  UNL1        0.0557
@<TRIPOS>BOND
     1     1     6   ar
     2     1     2   ar
     3     1    26    1
     4     2     3   ar
     5     2    27    1
     6     3     4   ar
     7     3    28    1
     8     4     5   ar
     9     4    25    1
    10     5     6   ar
    11     5     7    1
    12     6    29    1
    13     7    14    1
    14     7     8    2
    15     8     9    1
    16     9    10    1
    17     9    30    1
    18     9    31    1
    19    10    11    2
    20    10    12    1
    21    12    13    1
    22    12    20    1
    23    13    18   ar
    24    13    14   ar
    25    14    15   ar
    26    15    16   ar
    27    15    32    1
    28    16    17   ar
    29    16    19    1
    30    17    18   ar
    31    17    33    1
    32    18    34    1
    33    20    21    1
    34    20    35    1
    35    20    36    1
    36    21    22    1
    37    21    23    1
    38    21    24    1
