@<TRIPOS>MOLECULE
ZINC03830713
 56 56 0 0 0
SMALL
GASTEIGER

@<TRIPOS>ATOM
      1 C          -0.7937   -7.7586   -5.0754 C.3     1  UNL1       -0.0653
      2 C          -1.2735   -6.4492   -4.4690 C.3     1  UNL1       -0.0559
      3 C          -0.8537   -5.2536   -5.3243 C.3     1  UNL1       -0.0532
      4 C          -1.3971   -3.9185   -4.8123 C.3     1  UNL1       -0.0504
      5 C          -0.8872   -3.5148   -3.4213 C.3     1  UNL1       -0.0232
      6 C          -1.4286   -2.1447   -2.9861 C.3     1  UNL1        0.0734
      7 H          -1.0985   -1.3788   -3.6958 H       1  UNL1        0.0637
      8 C          -2.9206   -2.1811   -2.8400 C.2     1  UNL1       -0.0595
      9 C          -3.7432   -1.3789   -3.5351 C.2     1  UNL1       -0.0793
     10 C          -5.2488   -1.2996   -3.4278 C.3     1  UNL1        0.0134
     11 H          -5.6322   -1.4810   -4.4435 H       1  UNL1        0.0375
     12 C          -5.9083   -2.3219   -2.4864 C.3     1  UNL1        0.0688
     13 H          -5.3612   -2.4453   -1.5446 H       1  UNL1        0.0603
     14 C          -7.2841   -1.7586   -2.2026 C.3     1  UNL1        0.0327
     15 C          -7.0055   -0.2878   -2.1860 C.2     1  UNL1        0.1398
     16 O          -7.7683    0.5098   -1.6507 O.2     1  UNL1       -0.2970
     17 C          -5.7263    0.0825   -2.9196 C.3     1  UNL1        0.0296
     18 H          -5.0214    0.5058   -2.1941 H       1  UNL1        0.0387
     19 C          -5.9849    1.0352   -4.0955 C.3     1  UNL1       -0.0246
     20 C          -6.3943    2.4224   -3.6773 C.2     1  UNL1       -0.0873
     21 C          -5.7810    3.5799   -3.9631 C.2     1  UNL1       -0.0879
     22 C          -4.5350    3.7826   -4.7794 C.3     1  UNL1       -0.0343
     23 C          -3.3674    4.3403   -3.9579 C.3     1  UNL1       -0.0394
     24 C          -2.8858    3.4268   -2.8279 C.3     1  UNL1        0.0495
     25 C          -2.2996    2.0693   -3.2264 C.2     1  UNL1        0.3560
     26 O          -1.9641    1.9299   -4.4344 O.co2   1  UNL1       -0.2464
     27 O          -2.2070    1.2288   -2.2818 O.co2   1  UNL1       -0.2464
     28 O          -6.0378   -3.5920   -3.1208 O.3     1  UNL1       -0.3908
     29 O          -0.9064   -1.8077   -1.7064 O.3     1  UNL1       -0.3878
     30 H          -1.2307   -7.9161   -6.0663 H       1  UNL1        0.0230
     31 H          -1.0829   -8.6001   -4.4383 H       1  UNL1        0.0230
     32 H           0.2964   -7.7661   -5.1744 H       1  UNL1        0.0230
     33 H          -2.3657   -6.4737   -4.3722 H       1  UNL1        0.0263
     34 H          -0.8581   -6.3622   -3.4598 H       1  UNL1        0.0263
     35 H           0.2390   -5.2061   -5.3898 H       1  UNL1        0.0265
     36 H          -1.2266   -5.3997   -6.3459 H       1  UNL1        0.0265
     37 H          -1.1177   -3.1363   -5.5295 H       1  UNL1        0.0266
     38 H          -2.4925   -3.9683   -4.8144 H       1  UNL1        0.0266
     39 H          -1.1646   -4.2691   -2.6740 H       1  UNL1        0.0293
     40 H           0.2100   -3.4881   -3.4189 H       1  UNL1        0.0293
     41 H          -3.2863   -2.8860   -2.1030 H       1  UNL1        0.0594
     42 H          -3.2915   -0.6628   -4.2231 H       1  UNL1        0.0574
     43 H          -7.6733   -2.1011   -1.2396 H       1  UNL1        0.0367
     44 H          -8.0020   -1.9876   -2.9956 H       1  UNL1        0.0367
     45 H          -5.0951    1.0622   -4.7303 H       1  UNL1        0.0314
     46 H          -6.7923    0.6329   -4.7225 H       1  UNL1        0.0314
     47 H          -7.3002    2.4849   -3.0729 H       1  UNL1        0.0569
     48 H          -6.2194    4.4914   -3.5601 H       1  UNL1        0.0569
     49 H          -4.2313    2.8739   -5.3035 H       1  UNL1        0.0307
     50 H          -4.7775    4.5057   -5.5695 H       1  UNL1        0.0307
     51 H          -2.5338    4.5528   -4.6389 H       1  UNL1        0.0273
     52 H          -3.6629    5.3055   -3.5261 H       1  UNL1        0.0273
     53 H          -2.0958    3.9569   -2.2806 H       1  UNL1        0.0379
     54 H          -3.6999    3.2644   -2.1118 H       1  UNL1        0.0379
     55 H          -5.1807   -3.7794   -3.5470 H       1  UNL1        0.2098
     56 H          -1.1945   -0.8709   -1.5820 H       1  UNL1        0.2102
@<TRIPOS>BOND
     1     1     2    1
     2     1    30    1
     3     1    31    1
     4     1    32    1
     5     2     3    1
     6     2    33    1
     7     2    34    1
     8     3     4    1
     9     3    35    1
    10     3    36    1
    11     4     5    1
    12     4    37    1
    13     4    38    1
    14     5     6    1
    15     5    39    1
    16     5    40    1
    17     6     7    1
    18     6     8    1
    19     6    29    1
    20     8     9    2
    21     8    41    1
    22     9    10    1
    23     9    42    1
    24    10    11    1
    25    10    17    1
    26    10    12    1
    27    12    14    1
    28    14    15    1
    29    14    43    1
    30    14    44    1
    31    15    16    2
    32    15    17    1
    33    17    18    1
    34    17    19    1
    35    19    20    1
    36    19    45    1
    37    19    46    1
    38    20    21    2
    39    20    47    1
    40    21    22    1
    41    21    48    1
    42    22    23    1
    43    22    49    1
    44    22    50    1
    45    23    24    1
    46    23    51    1
    47    23    52    1
    48    24    25    1
    49    24    53    1
    50    24    54    1
    51    25    26   ar
    52    25    27   ar
    53    28    55    1
    54    29    56    1
    55    12    28    1
    56    12    13    1
