@<TRIPOS>MOLECULE
ZINC03806262
 35 37 0 0 0
SMALL
GASTEIGER

@<TRIPOS>ATOM
      1 C          -2.4166    0.5974   -0.1072 C.ar    1  UNL1        0.0999
      2 N          -1.9402   -0.6238   -0.0209 N.ar    1  UNL1       -0.2357
      3 C          -0.5880   -0.4616    0.2014 C.ar    1  UNL1        0.1152
      4 C          -0.2389    0.8787    0.1793 C.ar    1  UNL1        0.1621
      5 N          -1.4351    1.5365    0.0448 N.ar    1  UNL1       -0.2882
      6 C1*        -1.6050    2.9747    0.0425 C.3     1  UNL1        0.1408
      7 H1*        -0.9127    3.4057    0.7753 H       1  UNL1        0.0840
      8 C2*        -1.4403    3.6054   -1.3313 C.3     1  UNL1        0.0213
      9 C3*        -2.2426    4.8757   -1.1801 C.3     1  UNL1        0.0876
     10 H3*        -2.5639    5.2979   -2.1366 H       1  UNL1        0.0621
     11 C4*        -3.3970    4.4490   -0.2726 C.3     1  UNL1        0.1100
     12 H4*        -3.6626    5.2228    0.4567 H       1  UNL1        0.0646
     13 O4*        -2.9450    3.3006    0.4814 O.3     1  UNL1       -0.3484
     14 C5*        -4.6341    4.0228   -1.0667 C.3     1  UNL1        0.0729
     15 O5*        -5.6741    3.6142   -0.1813 O.3     1  UNL1       -0.3924
     16 O3*        -1.4139    5.8428   -0.5341 O.3     1  UNL1       -0.3890
     17 N           0.9377    1.5434    0.2702 N.2     1  UNL1       -0.2209
     18 C           1.9682    0.9430   -0.2283 C.2     1  UNL1        0.0837
     19 N           2.1216   -0.2779   -0.8411 N.pl3   1  UNL1       -0.3321
     20 C           1.7055   -1.5324   -0.2037 C.3     1  UNL1        0.0416
     21 C           0.3114   -1.6134    0.4600 C.3     1  UNL1        0.1158
     22 H          -0.1862   -2.5241    0.1015 H       1  UNL1        0.0676
     23 O           0.4865   -1.8056    1.8817 O.3     1  UNL1       -0.3840
     24 H          -3.4549    0.8571   -0.2639 H       1  UNL1        0.1030
     25 H2*1       -1.8842    2.9724   -2.1092 H       1  UNL1        0.0335
     26 H2*2       -0.3867    3.7709   -1.5787 H       1  UNL1        0.0335
     27 H5*1       -5.0126    4.8529   -1.6701 H       1  UNL1        0.0584
     28 H5*2       -4.4176    3.1760   -1.7252 H       1  UNL1        0.0584
     29 H5*        -5.2846    2.9367    0.4051 H       1  UNL1        0.2095
     30 H3*        -1.9446    6.6445   -0.3801 H       1  UNL1        0.2099
     31 H           2.9170    1.5081   -0.2322 H       1  UNL1        0.0998
     32 H           3.0313   -0.3874   -1.2784 H       1  UNL1        0.1470
     33 H           1.7545   -2.3076   -0.9789 H       1  UNL1        0.0491
     34 H           2.4771   -1.7991    0.5298 H       1  UNL1        0.0491
     35 H           0.8689   -2.6886    2.0067 H       1  UNL1        0.2104
@<TRIPOS>BOND
     1     1     5   ar
     2     1     2   ar
     3     1    24    1
     4     2     3   ar
     5     3    21    1
     6     3     4   ar
     7     4     5   ar
     8     4    17    1
     9     5     6    1
    10     6     7    1
    11     6    13    1
    12     6     8    1
    13     8     9    1
    14     8    25    1
    15     8    26    1
    16     9    10    1
    17     9    11    1
    18     9    16    1
    19    11    12    1
    20    11    13    1
    21    11    14    1
    22    14    15    1
    23    14    27    1
    24    14    28    1
    25    15    29    1
    26    16    30    1
    27    17    18    2
    28    18    19    1
    29    18    31    1
    30    19    20    1
    31    19    32    1
    32    20    21    1
    33    20    33    1
    34    20    34    1
    35    21    22    1
    36    21    23    1
    37    23    35    1
