@<TRIPOS>MOLECULE
ZINC00000565
 44 45 0 0 0
SMALL
GASTEIGER

@<TRIPOS>ATOM
      1 C           0.6682    1.3119    2.3434 C.3     1  UNL1       -0.0394
      2 C           0.0923    0.6383    1.1283 C.ar    1  UNL1       -0.0445
      3 C          -0.4885   -0.6310    1.3200 C.ar    1  UNL1       -0.0585
      4 C          -1.0332   -1.3481    0.2557 C.ar    1  UNL1       -0.0615
      5 C          -1.0323   -0.7985   -1.0159 C.ar    1  UNL1       -0.0614
      6 C          -0.4687    0.4578   -1.2234 C.ar    1  UNL1       -0.0555
      7 C           0.1465    1.1835   -0.1741 C.ar    1  UNL1       -0.0116
      8 C           0.8406    2.5243   -0.4794 C.3     1  UNL1        0.1091
      9 H           1.7611    2.5534    0.1217 H       1  UNL1        0.0697
     10 C           1.3688    2.6554   -1.9182 C.ar    1  UNL1       -0.0145
     11 C           2.2044    1.6395   -2.4356 C.ar    1  UNL1       -0.0558
     12 C           2.5443    1.6008   -3.7897 C.ar    1  UNL1       -0.0614
     13 C           2.0913    2.5990   -4.6419 C.ar    1  UNL1       -0.0617
     14 C           1.3534    3.6640   -4.1297 C.ar    1  UNL1       -0.0614
     15 C           1.0114    3.7034   -2.7768 C.ar    1  UNL1       -0.0558
     16 O           0.0685    3.6621   -0.0059 O.3     1  UNL1       -0.3621
     17 C          -1.3148    3.6638   -0.3678 C.3     1  UNL1        0.0887
     18 C          -2.0235    4.9300    0.1502 C.3     1  UNL1       -0.0084
     19 N          -2.2152    5.0033    1.6633 N.4     1  UNL1        0.2325
     20 C          -3.0689    3.9099    2.2394 C.3     1  UNL1       -0.0433
     21 C          -0.9412    5.2061    2.4254 C.3     1  UNL1       -0.0433
     22 H          -0.0621    1.2861    3.1613 H       1  UNL1        0.0278
     23 H           1.5786    0.7977    2.6631 H       1  UNL1        0.0278
     24 H           0.9087    2.3623    2.1749 H       1  UNL1        0.0278
     25 H          -0.4993   -1.0841    2.3102 H       1  UNL1        0.0620
     26 H          -1.4492   -2.3392    0.4190 H       1  UNL1        0.0618
     27 H          -1.4455   -1.3541   -1.8549 H       1  UNL1        0.0618
     28 H          -0.4801    0.8468   -2.2417 H       1  UNL1        0.0621
     29 H           2.5450    0.8261   -1.7936 H       1  UNL1        0.0621
     30 H           3.1429    0.7775   -4.1790 H       1  UNL1        0.0618
     31 H           2.3281    2.5572   -5.7009 H       1  UNL1        0.0618
     32 H           1.0323    4.4605   -4.7967 H       1  UNL1        0.0618
     33 H           0.4421    4.5542   -2.4157 H       1  UNL1        0.0621
     34 H          -1.4041    3.6548   -1.4578 H       1  UNL1        0.0614
     35 H          -1.8216    2.7754    0.0114 H       1  UNL1        0.0614
     36 H          -1.4651    5.8317   -0.1253 H       1  UNL1        0.0837
     37 H          -3.0292    4.9973   -0.2772 H       1  UNL1        0.0837
     38 H          -2.6867    2.9378    1.9305 H       1  UNL1        0.0777
     39 H          -3.0449    3.9903    3.3309 H       1  UNL1        0.0777
     40 H          -4.0920    4.0657    1.8844 H       1  UNL1        0.0777
     41 H          -0.4058    6.0510    1.9879 H       1  UNL1        0.0777
     42 H          -1.2084    5.4475    3.4625 H       1  UNL1        0.0777
     43 H          -0.3513    4.2894    2.3972 H       1  UNL1        0.0777
     44 H          -2.7418    5.8686    1.8175 H       1  UNL1        0.2028
@<TRIPOS>UNITY_ATOM_ATTR
19 1
charge 1
@<TRIPOS>BOND
     1     1     2    1
     2     1    22    1
     3     1    23    1
     4     1    24    1
     5     2     7   ar
     6     2     3   ar
     7     3     4   ar
     8     3    25    1
     9     4     5   ar
    10     4    26    1
    11     5     6   ar
    12     5    27    1
    13     6     7   ar
    14     6    28    1
    15     7     8    1
    16     8     9    1
    17     8    10    1
    18     8    16    1
    19    10    15   ar
    20    10    11   ar
    21    11    12   ar
    22    11    29    1
    23    12    13   ar
    24    12    30    1
    25    13    14   ar
    26    13    31    1
    27    14    15   ar
    28    14    32    1
    29    15    33    1
    30    16    17    1
    31    17    18    1
    32    17    34    1
    33    17    35    1
    34    18    19    1
    35    18    36    1
    36    18    37    1
    37    19    20    1
    38    19    21    1
    39    19    44    1
    40    20    38    1
    41    20    39    1
    42    20    40    1
    43    21    41    1
    44    21    42    1
    45    21    43    1
