@<TRIPOS>MOLECULE
ZINC00057406
 33 33 0 0 0
SMALL
GASTEIGER

@<TRIPOS>ATOM
      1 C           1.3182    1.8211   -1.5931 C.3     1  UNL1       -0.0190
      2 C           0.3673    0.6953   -1.2117 C.3     1  UNL1        0.0036
      3 H           0.7119    0.2463   -0.2723 H       1  UNL1        0.0876
      4 C          -1.1286    1.0910   -1.0543 C.3     1  UNL1        0.1256
      5 H          -1.2162    1.7947   -0.2202 H       1  UNL1        0.0702
      6 C          -1.7331    1.7289   -2.2988 C.ar    1  UNL1        0.0313
      7 C          -1.5911    3.1241   -2.4231 C.ar    1  UNL1       -0.0106
      8 C          -1.9893    3.8130   -3.5710 C.ar    1  UNL1        0.1207
      9 C          -2.5828    3.1100   -4.6076 C.ar    1  UNL1       -0.0165
     10 C          -2.7750    1.7331   -4.4974 C.ar    1  UNL1       -0.0161
     11 C          -2.3717    1.0375   -3.3479 C.ar    1  UNL1        0.1261
     12 O          -2.5093   -0.3240   -3.2367 O.3     1  UNL1       -0.4947
     13 C          -3.6098   -0.8831   -3.9697 C.3     1  UNL1        0.0788
     14 O          -1.7230    5.1511   -3.5435 O.3     1  UNL1       -0.4951
     15 C          -2.0651    5.8980   -4.7081 C.3     1  UNL1        0.0788
     16 O          -1.8251   -0.0884   -0.6431 O.3     1  UNL1       -0.3815
     17 N           0.4866   -0.4110   -2.2106 N.4     1  UNL1        0.2226
     18 H           1.3061    2.6039   -0.8260 H       1  UNL1        0.0285
     19 H           1.0640    2.2781   -2.5533 H       1  UNL1        0.0285
     20 H           2.3463    1.4543   -1.6713 H       1  UNL1        0.0285
     21 H          -1.1289    3.7084   -1.6286 H       1  UNL1        0.0659
     22 H          -2.9065    3.5999   -5.5216 H       1  UNL1        0.0655
     23 H          -3.2357    1.2276   -5.3423 H       1  UNL1        0.0655
     24 H          -4.5261   -0.2922   -3.8491 H       1  UNL1        0.0660
     25 H          -3.3493   -0.9859   -5.0288 H       1  UNL1        0.0660
     26 H          -3.8096   -1.8864   -3.5788 H       1  UNL1        0.0660
     27 H          -1.4718    5.5731   -5.5703 H       1  UNL1        0.0660
     28 H          -3.1375    5.8360   -4.9210 H       1  UNL1        0.0660
     29 H          -1.8264    6.9472   -4.5112 H       1  UNL1        0.0660
     30 H          -2.7737    0.1399   -0.5985 H       1  UNL1        0.2105
     31 H           0.0815   -0.1476   -3.1160 H       1  UNL1        0.1998
     32 H           1.4424   -0.7456   -2.3483 H       1  UNL1        0.1998
     33 H          -0.1115   -1.1913   -1.8785 H       1  UNL1        0.1998
@<TRIPOS>UNITY_ATOM_ATTR
17 1
charge 1
@<TRIPOS>BOND
     1     1     2    1
     2     1    18    1
     3     1    19    1
     4     1    20    1
     5     2     3    1
     6     2     4    1
     7     2    17    1
     8     4     5    1
     9     4     6    1
    10     4    16    1
    11     6    11   ar
    12     6     7   ar
    13     7     8   ar
    14     7    21    1
    15     8     9   ar
    16     8    14    1
    17     9    10   ar
    18     9    22    1
    19    10    11   ar
    20    10    23    1
    21    11    12    1
    22    12    13    1
    23    13    24    1
    24    13    25    1
    25    13    26    1
    26    14    15    1
    27    15    27    1
    28    15    28    1
    29    15    29    1
    30    16    30    1
    31    17    31    1
    32    17    32    1
    33    17    33    1
