@<TRIPOS>MOLECULE
ZINC00896681
 44 46 0 0 0
SMALL
GASTEIGER

@<TRIPOS>ATOM
      1 C           0.9604    2.1000    0.9975 C.3     1  UNL1       -0.0561
      2 C           0.2498    1.3462   -0.1353 C.3     1  UNL1        0.0124
      3 H           0.5277    1.8763   -1.0553 H       1  UNL1        0.0365
      4 C          -1.2960    1.4398   -0.0442 C.3     1  UNL1        0.0247
      5 N          -1.8766    0.8293    1.1659 N.pl3   1  UNL1       -0.2979
      6 C          -1.8911    1.5987    2.3588 C.ar    1  UNL1        0.0479
      7 C          -2.2509    2.9589    2.3535 C.ar    1  UNL1       -0.0393
      8 C          -2.2916    3.7059    3.5332 C.ar    1  UNL1       -0.0599
      9 C          -1.9779    3.1075    4.7490 C.ar    1  UNL1       -0.0606
     10 C          -1.6470    1.7545    4.7873 C.ar    1  UNL1       -0.0462
     11 C          -1.6182    0.9979    3.6078 C.ar    1  UNL1        0.0341
     12 S          -1.1826   -0.7337    3.7218 S.3     1  UNL1       -0.0857
     13 C          -2.0344   -1.3538    2.2784 C.ar    1  UNL1        0.0341
     14 C          -2.2649   -0.5284    1.1588 C.ar    1  UNL1        0.0479
     15 C          -2.9947   -1.0712    0.0840 C.ar    1  UNL1       -0.0393
     16 C          -3.4495   -2.3931    0.1097 C.ar    1  UNL1       -0.0599
     17 C          -3.1794   -3.2021    1.2089 C.ar    1  UNL1       -0.0606
     18 C          -2.4686   -2.6853    2.2907 C.ar    1  UNL1       -0.0462
     19 C           0.8382   -0.0715   -0.2109 C.3     1  UNL1       -0.0283
     20 N           0.3044   -0.9083   -1.3595 N.4     1  UNL1        0.2311
     21 C           0.6349   -0.3772   -2.7271 C.3     1  UNL1       -0.0433
     22 C           0.7576   -2.3417   -1.2260 C.3     1  UNL1       -0.0433
     23 H           0.5551    3.1083    1.1199 H       1  UNL1        0.0235
     24 H           2.0287    2.2021    0.7733 H       1  UNL1        0.0235
     25 H           0.8844    1.5692    1.9505 H       1  UNL1        0.0235
     26 H          -1.5753    2.4952   -0.1290 H       1  UNL1        0.0472
     27 H          -1.7217    0.9972   -0.9508 H       1  UNL1        0.0472
     28 H          -2.5631    3.4544    1.4388 H       1  UNL1        0.0636
     29 H          -2.5864    4.7528    3.5041 H       1  UNL1        0.0618
     30 H          -2.0122    3.6883    5.6669 H       1  UNL1        0.0618
     31 H          -1.4247    1.2935    5.7475 H       1  UNL1        0.0629
     32 H          -3.3106   -0.4454   -0.7476 H       1  UNL1        0.0636
     33 H          -4.0669   -2.7755   -0.7003 H       1  UNL1        0.0618
     34 H          -3.5612   -4.2204    1.2482 H       1  UNL1        0.0618
     35 H          -2.2969   -3.3144    3.1618 H       1  UNL1        0.0629
     36 H           1.9263   -0.0252   -0.3498 H       1  UNL1        0.0817
     37 H           0.6395   -0.6263    0.7102 H       1  UNL1        0.0817
     38 H           1.7216   -0.3414   -2.8382 H       1  UNL1        0.0777
     39 H           0.1895   -1.0477   -3.4665 H       1  UNL1        0.0777
     40 H           0.1936    0.6167   -2.8350 H       1  UNL1        0.0777
     41 H           0.4545   -2.7072   -0.2420 H       1  UNL1        0.0777
     42 H           0.2618   -2.9251   -2.0066 H       1  UNL1        0.0777
     43 H           1.8451   -2.3762   -1.3422 H       1  UNL1        0.0777
     44 H          -0.7151   -0.9455   -1.2643 H       1  UNL1        0.2028
@<TRIPOS>UNITY_ATOM_ATTR
20 1
charge 1
@<TRIPOS>BOND
     1     1    23    1
     2     1    24    1
     3     1    25    1
     4     2     4    1
     5     2    19    1
     6     4     5    1
     7     4    26    1
     8     4    27    1
     9     5    14    1
    10     5     6    1
    11     6    11   ar
    12     6     7   ar
    13     7     8   ar
    14     7    28    1
    15     8     9   ar
    16     8    29    1
    17     9    10   ar
    18     9    30    1
    19    10    11   ar
    20    10    31    1
    21    11    12    1
    22    12    13    1
    23    13    18   ar
    24    13    14   ar
    25    14    15   ar
    26    15    16   ar
    27    15    32    1
    28    16    17   ar
    29    16    33    1
    30    17    18   ar
    31    17    34    1
    32    18    35    1
    33    19    20    1
    34    19    36    1
    35    19    37    1
    36    20    21    1
    37    20    22    1
    38    20    44    1
    39    21    38    1
    40    21    39    1
    41    21    40    1
    42    22    41    1
    43    22    42    1
    44    22    43    1
    45     2     3    1
    46     2     1    1
