@<TRIPOS>MOLECULE
ZINC03779042
 32 33 0 0 0
SMALL
GASTEIGER

@<TRIPOS>ATOM
      1 C          -5.6626    6.2160    4.1182 C.3     1  UNL1       -0.0332
      2 C          -4.2717    5.7924    3.7997 C.ar    1  UNL1        0.0302
      3 C          -3.9857    4.6022    3.2656 C.ar    1  UNL1        0.0199
      4 N          -2.7010    4.1551    3.0645 N.ar    1  UNL1       -0.2737
      5 C          -1.6069    4.9726    3.3174 C.ar    1  UNL1        0.3313
      6 O          -0.4386    4.5998    3.2494 O.2     1  UNL1       -0.2464
      7 N          -1.9065    6.2540    3.7057 N.ar    1  UNL1       -0.2747
      8 H          -1.1245    6.8410    3.9434 H       1  UNL1        0.1734
      9 C          -3.1370    6.6860    4.1132 C.ar    1  UNL1        0.2568
     10 O          -3.2944    7.7464    4.7202 O.2     1  UNL1       -0.2674
     11 C          -2.4536    2.7523    2.7268 C.3     1  UNL1        0.1419
     12 H          -1.5640    2.6950    2.0889 H       1  UNL1        0.0840
     13 C          -2.2694    1.8795    3.9677 C.3     1  UNL1        0.0205
     14 C          -3.6199    1.2160    4.1548 C.3     1  UNL1        0.1174
     15 H          -4.2664    1.8384    4.7870 H       1  UNL1        0.0601
     16 C          -4.1594    1.1380    2.7240 C.3     1  UNL1        0.1092
     17 H          -3.8294    0.2218    2.2203 H       1  UNL1        0.0642
     18 O          -3.5755    2.2328    1.9914 O.3     1  UNL1       -0.3487
     19 C          -5.6924    1.2158    2.6722 C.3     1  UNL1        0.0726
     20 O          -6.1798    1.1773    1.3331 O.3     1  UNL1       -0.3924
     21 N          -3.4667   -0.1369    4.7068 N.2     1  UNL1       -0.1040
     22 N          -3.4300   -0.2397    5.9455 N.2     1  UNL1       -0.1667
     23 N          -3.3994   -0.3386    7.0805 N.2     1  UNL1        0.0678
     24 H          -5.8539    6.0777    5.1868 H       1  UNL1        0.0280
     25 H          -6.3966    5.6148    3.5700 H       1  UNL1        0.0280
     26 H          -5.8379    7.2631    3.8583 H       1  UNL1        0.0280
     27 H          -4.7912    3.9291    3.0103 H       1  UNL1        0.0816
     28 H          -1.4970    1.1253    3.7728 H       1  UNL1        0.0331
     29 H          -1.9521    2.4376    4.8550 H       1  UNL1        0.0331
     30 H          -6.1373    0.3743    3.2102 H       1  UNL1        0.0584
     31 H          -6.0698    2.1392    3.1224 H       1  UNL1        0.0584
     32 H          -5.9803    2.0420    0.9302 H       1  UNL1        0.2095
@<TRIPOS>BOND
     1     1     2    1
     2     1    24    1
     3     1    25    1
     4     1    26    1
     5     2     9   ar
     6     2     3   ar
     7     3     4   ar
     8     3    27    1
     9     4     5   ar
    10     5     6    2
    11     5     7   ar
    12     7     8    1
    13     7     9   ar
    14     9    10    2
    15    11    18    1
    16    11    13    1
    17    13    14    1
    18    13    28    1
    19    13    29    1
    20    14    16    1
    21    16    17    1
    22    16    18    1
    23    16    19    1
    24    19    20    1
    25    19    30    1
    26    19    31    1
    27    20    32    1
    28    21    22    2
    29    22    23    2
    30    11    12    1
    31    11     4    1
    32    14    21    1
    33    14    15    1
