@<TRIPOS>MOLECULE
ZINC01842633
 41 42 0 0 0
SMALL
GASTEIGER

@<TRIPOS>ATOM
      1 C          -1.8778    1.9400   -0.7719 C.3     1  UNL1       -0.0362
      2 C          -1.2964    1.8494    0.6104 C.ar    1  UNL1       -0.0088
      3 C          -2.2174    1.6628    1.6624 C.ar    1  UNL1       -0.0554
      4 C          -1.8016    1.6624    2.9895 C.ar    1  UNL1       -0.0613
      5 C          -0.4598    1.8458    3.2828 C.ar    1  UNL1       -0.0583
      6 C           0.4734    1.9752    2.2503 C.ar    1  UNL1       -0.0196
      7 C           0.0771    1.9669    0.9040 C.ar    1  UNL1        0.1243
      8 O           0.9538    2.0432   -0.1594 O.3     1  UNL1       -0.4838
      9 C           2.3390    2.3321    0.1308 C.3     1  UNL1        0.1300
     10 H           2.4037    3.0265    0.9778 H       1  UNL1        0.0786
     11 C           2.9318    3.1252   -1.0562 C.3     1  UNL1        0.0287
     12 C           2.8576    2.4634   -2.4273 C.3     1  UNL1       -0.0302
     13 N           1.4427    2.3463   -2.8848 N.4     1  UNL1        0.2249
     14 C           1.2819    1.8302   -4.2679 C.3     1  UNL1       -0.0449
     15 C           3.1954    1.1050    0.4240 C.ar    1  UNL1       -0.0072
     16 C           4.4042    1.2779    1.1257 C.ar    1  UNL1       -0.0551
     17 C           5.2822    0.2112    1.3288 C.ar    1  UNL1       -0.0614
     18 C           4.9579   -1.0556    0.8459 C.ar    1  UNL1       -0.0617
     19 C           3.7427   -1.2541    0.1858 C.ar    1  UNL1       -0.0614
     20 C           2.8645   -0.1855   -0.0148 C.ar    1  UNL1       -0.0551
     21 H          -2.3577    0.9960   -1.0489 H       1  UNL1        0.0279
     22 H          -2.6318    2.7365   -0.7973 H       1  UNL1        0.0279
     23 H          -1.1329    2.1851   -1.5300 H       1  UNL1        0.0279
     24 H          -3.2768    1.5261    1.4475 H       1  UNL1        0.0621
     25 H          -2.5247    1.5261    3.7907 H       1  UNL1        0.0618
     26 H          -0.1304    1.8737    4.3192 H       1  UNL1        0.0619
     27 H           1.5083    2.0761    2.5596 H       1  UNL1        0.0654
     28 H           2.4135    4.0895   -1.1138 H       1  UNL1        0.0356
     29 H           3.9861    3.3513   -0.8478 H       1  UNL1        0.0356
     30 H           3.3696    3.0942   -3.1626 H       1  UNL1        0.0815
     31 H           3.3019    1.4645   -2.4477 H       1  UNL1        0.0815
     32 H           0.9403    1.7377   -2.2159 H       1  UNL1        0.2011
     33 H           1.7237    0.8324   -4.3195 H       1  UNL1        0.0777
     34 H           0.2117    1.7897   -4.4810 H       1  UNL1        0.0777
     35 H           1.7806    2.5217   -4.9529 H       1  UNL1        0.0777
     36 H           4.6806    2.2538    1.5231 H       1  UNL1        0.0621
     37 H           6.2188    0.3620    1.8671 H       1  UNL1        0.0618
     38 H           5.6459   -1.8838    0.9913 H       1  UNL1        0.0618
     39 H           3.4840   -2.2542   -0.1571 H       1  UNL1        0.0618
     40 H           1.9169   -0.3842   -0.5108 H       1  UNL1        0.0621
     41 H           0.9757    3.2592   -2.8086 H       1  UNL1        0.2011
@<TRIPOS>UNITY_ATOM_ATTR
13 1
charge 1
@<TRIPOS>BOND
     1     1     2    1
     2     1    21    1
     3     1    22    1
     4     1    23    1
     5     2     7   ar
     6     2     3   ar
     7     3     4   ar
     8     3    24    1
     9     4     5   ar
    10     4    25    1
    11     5     6   ar
    12     5    26    1
    13     6     7   ar
    14     6    27    1
    15     7     8    1
    16     8     9    1
    17     9    10    1
    18     9    11    1
    19     9    15    1
    20    11    12    1
    21    11    28    1
    22    11    29    1
    23    12    13    1
    24    12    30    1
    25    12    31    1
    26    13    14    1
    27    13    32    1
    28    13    41    1
    29    14    33    1
    30    14    34    1
    31    14    35    1
    32    15    20   ar
    33    15    16   ar
    34    16    17   ar
    35    16    36    1
    36    17    18   ar
    37    17    37    1
    38    18    19   ar
    39    18    38    1
    40    19    20   ar
    41    19    39    1
    42    20    40    1
