@<TRIPOS>MOLECULE
ZINC03830944
 60 60 0 0 0
SMALL
GASTEIGER

@<TRIPOS>ATOM
      1 C           3.1580    2.7884   -0.4367 C.3     1  UNL1        0.0127
      2 C           2.5511    3.8450    0.4624 C.2     1  UNL1        0.2168
      3 O           1.3381    3.7759    0.6887 O.2     1  UNL1       -0.2756
      4 N           3.3277    4.8866    0.9739 N.am    1  UNL1       -0.2671
      5 C           2.5891    5.9426    1.7362 C.3     1  UNL1        0.0480
      6 C           1.9550    5.4250    3.0539 C.3     1  UNL1        0.0943
      7 H           1.3146    4.5522    2.8965 H       1  UNL1        0.0632
      8 C           1.1473    6.4894    3.7979 C.3     1  UNL1        0.0716
      9 O           0.5882    5.8922    4.9835 O.3     1  UNL1       -0.3924
     10 O           2.9802    5.0168    3.9711 O.3     1  UNL1       -0.3880
     11 C           4.7200    5.0960    0.6281 C.ar    1  UNL1        0.0641
     12 C           5.6956    4.1497    1.0314 C.ar    1  UNL1        0.0489
     13 C           7.0141    4.1506    0.5243 C.ar    1  UNL1        0.0654
     14 C           7.4798    5.3682   -0.0317 C.ar    1  UNL1        0.0397
     15 C           6.5733    6.4109   -0.3677 C.ar    1  UNL1        0.0654
     16 C           5.1759    6.1945   -0.1474 C.ar    1  UNL1        0.0489
     17 I           3.7585    7.3895   -1.2416 I       1  UNL1       -0.0411
     18 C           7.0463    7.7830   -0.7692 C.2     1  UNL1        0.2462
     19 O           6.5888    8.7593   -0.1897 O.2     1  UNL1       -0.2701
     20 N           8.0203    7.8852   -1.7434 N.am    1  UNL1       -0.3088
     21 C           8.5808    9.1373   -2.2502 C.3     1  UNL1        0.0401
     22 C           9.0722   10.2036   -1.2472 C.3     1  UNL1        0.0936
     23 H           8.2520   10.5595   -0.6169 H       1  UNL1        0.0632
     24 C          10.2485    9.7620   -0.3727 C.3     1  UNL1        0.0716
     25 O          10.7010   10.8735    0.4137 O.3     1  UNL1       -0.3924
     26 O           9.5209   11.3489   -2.0039 O.3     1  UNL1       -0.3880
     27 I           9.6136    5.7647    0.0423 I       1  UNL1       -0.0422
     28 C           7.8247    2.8625    0.4271 C.2     1  UNL1        0.2462
     29 O           8.9153    2.8273   -0.1390 O.2     1  UNL1       -0.2701
     30 N           7.2736    1.6885    0.8918 N.am    1  UNL1       -0.3088
     31 C           7.9589    0.3978    0.8637 C.3     1  UNL1        0.0401
     32 C           9.2620    0.3154    1.6840 C.3     1  UNL1        0.0936
     33 H          10.0255    0.9676    1.2557 H       1  UNL1        0.0632
     34 C           9.0632    0.6702    3.1636 C.3     1  UNL1        0.0716
     35 O           8.1077   -0.2254    3.7389 O.3     1  UNL1       -0.3924
     36 O           9.7672   -1.0319    1.6135 O.3     1  UNL1       -0.3880
     37 I           5.3646    3.0949    2.9115 I       1  UNL1       -0.0411
     38 H           2.7940    1.8104   -0.1100 H       1  UNL1        0.0323
     39 H           4.2415    2.7489   -0.4308 H       1  UNL1        0.0323
     40 H           2.8225    2.9709   -1.4620 H       1  UNL1        0.0323
     41 H           3.2765    6.7633    1.9664 H       1  UNL1        0.0495
     42 H           1.7842    6.3150    1.0898 H       1  UNL1        0.0495
     43 H           1.7913    7.3012    4.1382 H       1  UNL1        0.0583
     44 H           0.3304    6.8912    3.2046 H       1  UNL1        0.0583
     45 H           1.3007    5.3219    5.3432 H       1  UNL1        0.2095
     46 H           3.5526    4.4099    3.4704 H       1  UNL1        0.2099
     47 H           8.2878    7.0418   -2.2428 H       1  UNL1        0.1491
     48 H           9.4196    8.8549   -2.8998 H       1  UNL1        0.0488
     49 H           7.8305    9.5855   -2.9116 H       1  UNL1        0.0488
     50 H           9.9555    8.9710    0.3185 H       1  UNL1        0.0583
     51 H          11.0964    9.4181   -0.9754 H       1  UNL1        0.0583
     52 H          11.4650   11.2601   -0.0501 H       1  UNL1        0.2095
     53 H           9.7135   12.0308   -1.3322 H       1  UNL1        0.2099
     54 H           6.3319    1.6746    1.2607 H       1  UNL1        0.1491
     55 H           7.2417   -0.3502    1.2223 H       1  UNL1        0.0488
     56 H           8.1648    0.1420   -0.1832 H       1  UNL1        0.0488
     57 H          10.0009    0.5433    3.7163 H       1  UNL1        0.0583
     58 H           8.7123    1.6971    3.2861 H       1  UNL1        0.0583
     59 H           7.7771    0.1967    4.5521 H       1  UNL1        0.2095
     60 H           9.3772   -1.5062    2.3747 H       1  UNL1        0.2099
@<TRIPOS>BOND
     1     1     2    1
     2     1    38    1
     3     1    39    1
     4     1    40    1
     5     2     3    2
     6     2     4   am
     7     4     5    1
     8     4    11    1
     9     5    41    1
    10     5    42    1
    11     6     8    1
    12     6    10    1
    13     8     9    1
    14     8    43    1
    15     8    44    1
    16     9    45    1
    17    10    46    1
    18    11    16   ar
    19    11    12   ar
    20    12    13   ar
    21    12    37    1
    22    13    14   ar
    23    13    28    1
    24    14    15   ar
    25    14    27    1
    26    15    16   ar
    27    15    18    1
    28    16    17    1
    29    18    19    2
    30    18    20   am
    31    20    21    1
    32    20    47    1
    33    21    22    1
    34    21    48    1
    35    21    49    1
    36    22    23    1
    37    22    24    1
    38    22    26    1
    39    24    25    1
    40    24    50    1
    41    24    51    1
    42    25    52    1
    43    26    53    1
    44    28    29    2
    45    28    30   am
    46    30    31    1
    47    30    54    1
    48    31    32    1
    49    31    55    1
    50    31    56    1
    51    32    33    1
    52    32    34    1
    53    32    36    1
    54    34    35    1
    55    34    57    1
    56    34    58    1
    57    35    59    1
    58    36    60    1
    59     6     7    1
    60     6     5    1
