@<TRIPOS>MOLECULE
ZINC00004759
 46 47 0 0 0
SMALL
GASTEIGER

@<TRIPOS>ATOM
      1 C          -0.6062    1.5061   -3.9723 C.3     1  UNL1       -0.0625
      2 C          -1.1190    0.0693   -3.9531 C.3     1  UNL1       -0.0416
      3 C          -0.5024   -0.7086   -5.1217 C.3     1  UNL1       -0.0625
      4 C          -0.9988   -0.7199   -2.6235 C.3     1  UNL1       -0.0065
      5 C          -1.6741   -0.2369   -1.2909 C.3     1  UNL1       -0.0113
      6 H          -1.4052   -1.0077   -0.5496 H       1  UNL1        0.0860
      7 C          -3.2559   -0.2427   -1.3619 C.3     1  UNL1        0.0385
      8 C          -3.7671   -1.7454   -1.4374 C.3     1  UNL1       -0.0382
      9 C          -4.9734   -1.3249   -0.5790 C.3     1  UNL1       -0.0511
     10 C          -4.0686   -0.2262    0.0073 C.3     1  UNL1       -0.0382
     11 C          -3.8536    0.8150   -2.4615 C.ar    1  UNL1       -0.0358
     12 C          -3.8670    2.2070   -2.2385 C.ar    1  UNL1       -0.0565
     13 C          -4.1824    3.1158   -3.2549 C.ar    1  UNL1       -0.0431
     14 C          -4.5156    2.6568   -4.5229 C.ar    1  UNL1        0.0410
     15 C          -4.6413    1.2935   -4.7491 C.ar    1  UNL1       -0.0431
     16 C          -4.3639    0.3941   -3.7148 C.ar    1  UNL1       -0.0565
     17 CL         -4.7316    3.7661   -5.8135 Cl      1  UNL1       -0.0835
     18 N          -0.9760    1.0144   -0.6966 N.4     1  UNL1        0.2337
     19 C          -1.3623    1.3069    0.7371 C.3     1  UNL1       -0.0431
     20 C           0.5391    0.9671   -0.7392 C.3     1  UNL1       -0.0431
     21 H           0.4810    1.5500   -3.8952 H       1  UNL1        0.0232
     22 H          -1.0435    2.1182   -3.1849 H       1  UNL1        0.0232
     23 H          -0.8868    1.9882   -4.9179 H       1  UNL1        0.0232
     24 H          -2.1606    0.1059   -4.2185 H       1  UNL1        0.0297
     25 H           0.5806   -0.7806   -5.0401 H       1  UNL1        0.0232
     26 H          -0.9181   -1.7202   -5.1714 H       1  UNL1        0.0232
     27 H          -0.7489   -0.2164   -6.0731 H       1  UNL1        0.0232
     28 H          -1.4105   -1.7192   -2.8231 H       1  UNL1        0.0323
     29 H           0.0659   -0.9152   -2.4387 H       1  UNL1        0.0323
     30 H          -4.0064   -2.1578   -2.4200 H       1  UNL1        0.0276
     31 H          -3.1282   -2.4702   -0.9248 H       1  UNL1        0.0276
     32 H          -5.3368   -2.0681    0.1282 H       1  UNL1        0.0266
     33 H          -5.8219   -0.9457   -1.1627 H       1  UNL1        0.0266
     34 H          -3.5070   -0.5636    0.8856 H       1  UNL1        0.0276
     35 H          -4.5940    0.7002    0.2587 H       1  UNL1        0.0276
     36 H          -3.6101    2.6042   -1.2598 H       1  UNL1        0.0621
     37 H          -4.1428    4.1887   -3.0579 H       1  UNL1        0.0632
     38 H          -4.9032    0.9197   -5.7349 H       1  UNL1        0.0632
     39 H          -4.4348   -0.6684   -3.9523 H       1  UNL1        0.0621
     40 H          -1.0723    0.4547    1.3588 H       1  UNL1        0.0777
     41 H          -0.8327    2.2098    1.0552 H       1  UNL1        0.0777
     42 H          -2.4295    1.5053    0.7859 H       1  UNL1        0.0777
     43 H           0.8778    0.9487   -1.7723 H       1  UNL1        0.0777
     44 H           0.9239    1.8793   -0.2711 H       1  UNL1        0.0777
     45 H           0.8771    0.0816   -0.1931 H       1  UNL1        0.0777
     46 H          -1.2767    1.8205   -1.2563 H       1  UNL1        0.2031
@<TRIPOS>UNITY_ATOM_ATTR
18 1
charge 1
@<TRIPOS>BOND
     1     1     2    1
     2     1    21    1
     3     1    22    1
     4     1    23    1
     5     2     3    1
     6     2     4    1
     7     2    24    1
     8     3    25    1
     9     3    26    1
    10     3    27    1
    11     4    28    1
    12     4    29    1
    13     5     7    1
    14     5    18    1
    15     7    10    1
    16     7     8    1
    17     7    11    1
    18     8     9    1
    19     8    30    1
    20     8    31    1
    21     9    10    1
    22     9    32    1
    23     9    33    1
    24    10    34    1
    25    10    35    1
    26    11    16   ar
    27    11    12   ar
    28    12    13   ar
    29    12    36    1
    30    13    14   ar
    31    13    37    1
    32    14    15   ar
    33    14    17    1
    34    15    16   ar
    35    15    38    1
    36    16    39    1
    37    18    19    1
    38    18    20    1
    39    18    46    1
    40    19    40    1
    41    19    41    1
    42    19    42    1
    43    20    43    1
    44    20    44    1
    45    20    45    1
    46     5     6    1
    47     5     4    1
