@<TRIPOS>MOLECULE
ZINC03830579
 52 55 0 0 0
SMALL
GASTEIGER

@<TRIPOS>ATOM
      1 C           0.7526    0.6296   -0.3598 C.3     1  UNL1       -0.0411
      2 N           2.2532    0.4167   -0.2346 N.4     1  UNL1        0.2438
      3 C           2.5856   -1.0609   -0.4796 C.3     1  UNL1       -0.0298
      4 C           4.0910   -1.2705   -0.3234 C.3     1  UNL1       -0.0059
      5 C           4.8019    0.0585   -0.0248 C.3     1  UNL1        0.0108
      6 C           4.2281    0.6315    1.2761 C.3     1  UNL1       -0.0059
      7 C           2.7149    0.8214    1.1709 C.3     1  UNL1       -0.0298
      8 C           4.5208    1.0555   -1.1689 C.3     1  UNL1        0.1457
      9 H           4.9953    2.0262   -0.9759 H       1  UNL1        0.0791
     10 C           2.9966    1.2820   -1.2826 C.3     1  UNL1        0.0079
     11 O           4.9971    0.5230   -2.4185 O.3     1  UNL1       -0.4532
     12 C           6.3390    0.6972   -2.6705 C.2     1  UNL1        0.3490
     13 O           7.0929    1.2329   -1.8670 O.2     1  UNL1       -0.2468
     14 C           6.7636    0.0756   -4.0534 C.3     1  UNL1        0.2134
     15 C           7.4283    1.1849   -4.8865 C.ar    1  UNL1       -0.0008
     16 C           6.6512    2.0289   -5.7073 C.ar    1  UNL1       -0.0550
     17 C           7.2311    3.0793   -6.4230 C.ar    1  UNL1       -0.0614
     18 C           8.5998    3.3100   -6.3340 C.ar    1  UNL1       -0.0617
     19 C           9.3907    2.4852   -5.5362 C.ar    1  UNL1       -0.0614
     20 C           8.8098    1.4391   -4.8108 C.ar    1  UNL1       -0.0550
     21 C           7.6167   -1.2051   -3.8694 C.ar    1  UNL1       -0.0008
     22 C           8.1287   -1.8806   -4.9981 C.ar    1  UNL1       -0.0550
     23 C           8.8253   -3.0849   -4.8695 C.ar    1  UNL1       -0.0614
     24 C           9.0351   -3.6416   -3.6118 C.ar    1  UNL1       -0.0617
     25 C           8.5704   -2.9813   -2.4803 C.ar    1  UNL1       -0.0614
     26 C           7.8723   -1.7755   -2.6063 C.ar    1  UNL1       -0.0550
     27 O           5.5757   -0.3243   -4.7786 O.3     1  UNL1       -0.3698
     28 H           0.5374    1.6878   -0.1857 H       1  UNL1        0.0778
     29 H           0.4426    0.3351   -1.3663 H       1  UNL1        0.0778
     30 H           0.2525    0.0105    0.3910 H       1  UNL1        0.0778
     31 H           2.2442   -1.3160   -1.4888 H       1  UNL1        0.0815
     32 H           2.0227   -1.6541    0.2503 H       1  UNL1        0.0815
     33 H           4.2788   -1.9875    0.4854 H       1  UNL1        0.0321
     34 H           4.4938   -1.7326   -1.2325 H       1  UNL1        0.0321
     35 H           5.8761   -0.1250    0.0815 H       1  UNL1        0.0342
     36 H           4.4535   -0.0350    2.1176 H       1  UNL1        0.0321
     37 H           4.7046    1.5910    1.5107 H       1  UNL1        0.0321
     38 H           2.1784    0.1938    1.8916 H       1  UNL1        0.0815
     39 H           2.4315    1.8684    1.3271 H       1  UNL1        0.0815
     40 H           2.6027    1.0137   -2.2694 H       1  UNL1        0.0852
     41 H           2.7399    2.3245   -1.0624 H       1  UNL1        0.0852
     42 H           5.5772    1.8746   -5.8024 H       1  UNL1        0.0621
     43 H           6.6139    3.7200   -7.0496 H       1  UNL1        0.0618
     44 H           9.0523    4.1299   -6.8855 H       1  UNL1        0.0618
     45 H          10.4604    2.6615   -5.4723 H       1  UNL1        0.0618
     46 H           9.4579    0.8263   -4.1885 H       1  UNL1        0.0621
     47 H           7.9911   -1.4700   -5.9979 H       1  UNL1        0.0621
     48 H           9.2066   -3.5902   -5.7541 H       1  UNL1        0.0618
     49 H           9.5704   -4.5834   -3.5136 H       1  UNL1        0.0618
     50 H           8.7546   -3.4050   -1.4950 H       1  UNL1        0.0618
     51 H           7.5500   -1.2996   -1.6829 H       1  UNL1        0.0621
     52 H           5.8007   -1.1180   -5.2964 H       1  UNL1        0.2117
@<TRIPOS>UNITY_ATOM_ATTR
2 1
charge 1
@<TRIPOS>BOND
     1     1    28    1
     2     1    29    1
     3     1    30    1
     4     2     1    1
     5     2     7    1
     6     2    10    1
     7     2     3    1
     8     3     4    1
     9     3    31    1
    10     3    32    1
    11     4     5    1
    12     4    33    1
    13     4    34    1
    14     5     6    1
    15     5     8    1
    16     5    35    1
    17     6     7    1
    18     6    36    1
    19     6    37    1
    20     7    38    1
    21     7    39    1
    22     8     9    1
    23     8    10    1
    24     8    11    1
    25    10    40    1
    26    10    41    1
    27    11    12    1
    28    12    13    2
    29    12    14    1
    30    14    15    1
    31    14    21    1
    32    14    27    1
    33    15    20   ar
    34    15    16   ar
    35    16    17   ar
    36    16    42    1
    37    17    18   ar
    38    17    43    1
    39    18    19   ar
    40    18    44    1
    41    19    20   ar
    42    19    45    1
    43    20    46    1
    44    21    26   ar
    45    21    22   ar
    46    22    23   ar
    47    22    47    1
    48    23    24   ar
    49    23    48    1
    50    24    25   ar
    51    24    49    1
    52    25    26   ar
    53    25    50    1
    54    26    51    1
    55    27    52    1
