@<TRIPOS>MOLECULE
ZINC02169830
 32 34 0 0 0
SMALL
GASTEIGER

@<TRIPOS>ATOM
      1 C2         -1.9971    0.5953    0.0739 C.ar    1    A1        0.1205
      2 N1         -2.0522   -0.7522    0.0335 N.ar    1    A1       -0.2188
      3 C6         -0.8894   -1.4411   -0.0242 C.ar    1    A1        0.1472
      4 C5          0.3156   -0.7213    0.0039 C.ar    1    A1        0.1473
      5 C4          0.2140    0.6572    0.0497 C.ar    1    A1        0.1674
      6 N3         -0.9075    1.3898    0.0735 N.ar    1    A1       -0.2159
      7 N9          1.5111    1.1048    0.0200 N.ar    1    A1       -0.2855
      8 C8          2.3264   -0.0011   -0.0011 C.ar    1    A1        0.1004
      9 N7          1.6380   -1.1233   -0.0066 N.ar    1    A1       -0.2306
     10 C1*         1.9615    2.4789   -0.0703 C.3     1    A1        0.1667
     11 H1*         3.0578    2.4724   -0.0177 H       1    A1        0.0866
     12 C2*         1.4694    3.2024   -1.3216 C.3     1    A1        0.1285
     13 H2*         0.4327    2.9478   -1.5598 H       1    A1        0.0665
     14 C3*         1.5315    4.6564   -0.8751 C.3     1    A1        0.1135
     15 H3*         0.8524    5.2962   -1.4456 H       1    A1        0.0647
     16 C4*         1.2091    4.5794    0.6197 C.3     1    A1        0.1126
     17 H4*         1.8653    5.2286    1.2103 H       1    A1        0.0647
     18 O4*         1.4741    3.2257    1.0657 O.3     1    A1       -0.3457
     19 C5*        -0.2502    4.9200    0.9242 C.3     1    A1        0.0730
     20 O5*        -0.4614    4.9112    2.3341 O.3     1    A1       -0.3924
     21 O3*         2.8553    5.1622   -1.0819 O.3     1    A1       -0.3864
     22 O2*         2.2609    2.9105   -2.4702 O.3     1    A1       -0.3847
     23 N6         -0.9519   -2.8284   -0.1065 N.pl3   1    A1       -0.3413
     24 H2         -2.9560    1.1035    0.1134 H       1    A1        0.1048
     25 H8          3.4059    0.0723   -0.0345 H       1    A1        0.1030
     26 H5*1       -0.4963    5.9226    0.5595 H       1    A1        0.0584
     27 H5*2       -0.9425    4.2023    0.4761 H       1    A1        0.0584
     28 H5*        -0.0907    4.0666    2.6575 H       1    A1        0.2095
     29 H3*         2.8786    6.0830   -0.7620 H       1    A1        0.2100
     30 H2*         2.3214    3.7256   -3.0005 H       1    A1        0.2101
     31 H61        -0.0965   -3.2891    0.1854 H       1    A1        0.1438
     32 H62        -1.8317   -3.1936    0.2354 H       1    A1        0.1438
@<TRIPOS>BOND
     1     1     6   ar
     2     1     2   ar
     3     1    24    1
     4     2     3   ar
     5     3     4   ar
     6     3    23    1
     7     4     9   ar
     8     4     5   ar
     9     5     6   ar
    10     5     7   ar
    11     7     8   ar
    12     7    10    1
    13     8     9   ar
    14     8    25    1
    15    10    11    1
    16    10    18    1
    17    10    12    1
    18    12    13    1
    19    12    14    1
    20    12    22    1
    21    14    15    1
    22    14    16    1
    23    14    21    1
    24    16    17    1
    25    16    18    1
    26    16    19    1
    27    19    20    1
    28    19    26    1
    29    19    27    1
    30    20    28    1
    31    21    29    1
    32    22    30    1
    33    23    31    1
    34    23    32    1
