@<TRIPOS>MOLECULE
ZINC00643143
 64 68 0 0 0
SMALL
GASTEIGER

@<TRIPOS>ATOM
      1 C          -5.1095   13.0942  -11.0328 C.3     1  UNL1        0.0124
      2 C          -3.9121   12.4963  -11.7214 C.2     1  UNL1        0.2126
      3 O          -3.6163   12.8547  -12.8619 O.2     1  UNL1       -0.2759
      4 N          -3.1711   11.5685  -11.0160 N.am    1  UNL1       -0.2987
      5 C          -1.9407   11.0342  -11.6077 C.3     1  UNL1        0.0304
      6 C          -0.7360   11.3653  -10.7156 C.3     1  UNL1        0.0280
      7 N          -0.9651   10.8896   -9.3358 N.pl3   1  UNL1       -0.3269
      8 C          -2.2124   11.3516   -8.7063 C.3     1  UNL1        0.0280
      9 C          -3.4234   11.1072   -9.6401 C.3     1  UNL1        0.0304
     10 C          -0.2368    9.8388   -8.8130 C.ar    1  UNL1        0.0300
     11 C           0.2798    8.8310   -9.6337 C.ar    1  UNL1       -0.0372
     12 C           1.1545    7.8618   -9.1445 C.ar    1  UNL1       -0.0182
     13 C           1.5682    7.8963   -7.8158 C.ar    1  UNL1        0.1207
     14 C           0.9767    8.8089   -6.9489 C.ar    1  UNL1       -0.0182
     15 C           0.0800    9.7688   -7.4465 C.ar    1  UNL1       -0.0372
     16 O           2.5709    7.1044   -7.3082 O.3     1  UNL1       -0.4893
     17 C           3.5412    6.7563   -8.3039 C.3     1  UNL1        0.1179
     18 C           4.8962    6.3957   -7.6959 C.3     1  UNL1        0.1195
     19 H           4.7762    5.5509   -7.0099 H       1  UNL1        0.0654
     20 C           5.5867    7.5524   -7.0207 C.3     1  UNL1        0.0808
     21 O           6.2720    8.2389   -8.0749 O.3     1  UNL1       -0.3406
     22 C           6.4801    7.2658   -9.1235 C.3     1  UNL1        0.2169
     23 O           5.8087    6.0507   -8.7469 O.3     1  UNL1       -0.3343
     24 C           7.9906    7.0133   -9.3264 C.3     1  UNL1        0.0828
     25 N           8.6550    6.4578   -8.1633 N.ar    1  UNL1       -0.3313
     26 C           8.8450    5.1308   -7.8981 C.ar    1  UNL1        0.0242
     27 C           9.5412    5.1038   -6.7130 C.ar    1  UNL1        0.0454
     28 N           9.7917    6.3762   -6.2673 N.ar    1  UNL1       -0.2441
     29 C           9.2597    7.1709   -7.1684 C.ar    1  UNL1        0.0961
     30 C           5.9226    7.8442  -10.4411 C.ar    1  UNL1        0.0313
     31 C           5.8845    9.2499  -10.6063 C.ar    1  UNL1       -0.0507
     32 C           5.4125    9.8387  -11.7851 C.ar    1  UNL1       -0.0429
     33 C           4.9659    9.0373  -12.8235 C.ar    1  UNL1        0.0424
     34 C           4.9988    7.6528  -12.7005 C.ar    1  UNL1       -0.0246
     35 C           5.4857    7.0588  -11.5275 C.ar    1  UNL1        0.0507
     36 CL          5.5361    5.3308  -11.5303 Cl      1  UNL1       -0.0830
     37 CL          4.3853    9.7552  -14.2740 Cl      1  UNL1       -0.0835
     38 H          -5.6503   13.7324  -11.7388 H       1  UNL1        0.0323
     39 H          -4.7795   13.7112  -10.1927 H       1  UNL1        0.0323
     40 H          -5.7933   12.3116  -10.6962 H       1  UNL1        0.0323
     41 H          -2.0688    9.9489  -11.6959 H       1  UNL1        0.0480
     42 H          -1.7720   11.4307  -12.6135 H       1  UNL1        0.0480
     43 H          -0.6026   12.4539  -10.6770 H       1  UNL1        0.0479
     44 H           0.1856   10.9668  -11.1544 H       1  UNL1        0.0479
     45 H          -2.1196   12.4263   -8.5097 H       1  UNL1        0.0479
     46 H          -2.4068   10.8598   -7.7467 H       1  UNL1        0.0479
     47 H          -4.3105   11.5785   -9.2127 H       1  UNL1        0.0480
     48 H          -3.6222   10.0307   -9.7076 H       1  UNL1        0.0480
     49 H           0.0183    8.7849  -10.6866 H       1  UNL1        0.0637
     50 H           1.5257    7.1173   -9.8412 H       1  UNL1        0.0655
     51 H           1.2509    8.8225   -5.8978 H       1  UNL1        0.0655
     52 H          -0.3032   10.5191   -6.7594 H       1  UNL1        0.0637
     53 H           3.1756    5.8938   -8.8752 H       1  UNL1        0.0723
     54 H           3.6848    7.5867   -9.0045 H       1  UNL1        0.0723
     55 H           6.3428    7.1932   -6.3149 H       1  UNL1        0.0588
     56 H           4.9161    8.2343   -6.4915 H       1  UNL1        0.0588
     57 H           8.1680    6.3097  -10.1489 H       1  UNL1        0.0549
     58 H           8.5144    7.9473   -9.5683 H       1  UNL1        0.0549
     59 H           8.4754    4.3449   -8.5427 H       1  UNL1        0.0825
     60 H           9.8779    4.2369   -6.1596 H       1  UNL1        0.0845
     61 H           9.2771    8.2531   -7.1426 H       1  UNL1        0.1029
     62 H           6.2284    9.9098   -9.8088 H       1  UNL1        0.0623
     63 H           5.4015   10.9240  -11.8787 H       1  UNL1        0.0632
     64 H           4.6534    7.0324  -13.5250 H       1  UNL1        0.0647
@<TRIPOS>BOND
     1     1     2    1
     2     1    38    1
     3     1    39    1
     4     1    40    1
     5     2     3    2
     6     2     4   am
     7     4     9    1
     8     4     5    1
     9     5     6    1
    10     5    41    1
    11     5    42    1
    12     6     7    1
    13     6    43    1
    14     6    44    1
    15     7     8    1
    16     7    10    1
    17     8     9    1
    18     8    45    1
    19     8    46    1
    20     9    47    1
    21     9    48    1
    22    10    15   ar
    23    10    11   ar
    24    11    12   ar
    25    11    49    1
    26    12    13   ar
    27    12    50    1
    28    13    14   ar
    29    13    16    1
    30    14    15   ar
    31    14    51    1
    32    15    52    1
    33    16    17    1
    34    17    18    1
    35    17    53    1
    36    17    54    1
    37    18    19    1
    38    18    23    1
    39    18    20    1
    40    20    21    1
    41    20    55    1
    42    20    56    1
    43    21    22    1
    44    22    23    1
    45    24    25    1
    46    24    57    1
    47    24    58    1
    48    25    29   ar
    49    25    26   ar
    50    26    27   ar
    51    26    59    1
    52    27    28   ar
    53    27    60    1
    54    28    29   ar
    55    29    61    1
    56    30    35   ar
    57    30    31   ar
    58    31    32   ar
    59    31    62    1
    60    32    33   ar
    61    32    63    1
    62    33    34   ar
    63    33    37    1
    64    34    35   ar
    65    34    64    1
    66    35    36    1
    67    22    30    1
    68    22    24    1
