@<TRIPOS>MOLECULE
ZINC00035804
 31 32 0 0 0
SMALL
GASTEIGER

@<TRIPOS>ATOM
      1 C           2.1614    0.3995   -0.2143 C.ar    1  UNL1       -0.0236
      2 C           1.0449    1.0046   -0.8417 C.ar    1  UNL1       -0.0192
      3 C           0.6158    2.0071    0.0060 C.ar    1  UNL1        0.1217
      4 O           1.4174    2.0481    1.1136 O.2     1  UNL1       -0.4662
      5 C           2.3447    1.0686    0.9716 C.ar    1  UNL1        0.0921
      6 C          -0.5105    2.9828   -0.0154 C.3     1  UNL1        0.0673
      7 N          -1.3542    2.9914   -1.2056 N.pl3   1  UNL1       -0.3360
      8 C          -2.6880    3.4284   -1.0685 C.ar    1  UNL1        0.0432
      9 C          -3.0187    4.4801   -0.1937 C.ar    1  UNL1       -0.0198
     10 C          -4.3279    4.9666   -0.0626 C.ar    1  UNL1        0.0690
     11 C          -5.3298    4.4313   -0.8588 C.ar    1  UNL1        0.1241
     12 C          -5.0100    3.4040   -1.7637 C.ar    1  UNL1       -0.0180
     13 C          -3.7006    2.9009   -1.8924 C.ar    1  UNL1        0.0858
     14 C          -3.4646    1.7679   -2.8876 C.2     1  UNL1        0.3884
     15 O          -4.3668    1.5789   -3.7620 O.co2   1  UNL1       -0.2405
     16 O          -2.3961    1.0913   -2.7408 O.co2   1  UNL1       -0.2405
     17 S          -7.0237    4.9020   -0.8073 S.O2    1  UNL1        0.0574
     18 O          -7.8327    3.7306   -0.5703 O.2     1  UNL1       -0.1532
     19 O          -7.2328    6.1255   -0.0667 O.2     1  UNL1       -0.1532
     20 N          -7.3121    5.3427   -2.4080 N.3     1  UNL1       -0.2035
     21 CL         -4.5605    6.1928    1.1284 Cl      1  UNL1       -0.0815
     22 H           2.7490   -0.4292   -0.5800 H       1  UNL1        0.0649
     23 H           0.5854    0.7387   -1.7873 H       1  UNL1        0.0652
     24 H           3.0470    0.9708    1.7877 H       1  UNL1        0.1029
     25 H          -1.1126    2.7829    0.8800 H       1  UNL1        0.0542
     26 H          -0.0778    3.9855    0.0970 H       1  UNL1        0.0542
     27 H          -1.3833    2.0728   -1.6961 H       1  UNL1        0.1465
     28 H          -2.2373    4.9325    0.4107 H       1  UNL1        0.0651
     29 H          -5.7896    2.9559   -2.3805 H       1  UNL1        0.0646
     30 H          -7.6209    4.5435   -2.9584 H       1  UNL1        0.1442
     31 H          -7.9354    6.1494   -2.4333 H       1  UNL1        0.1442
@<TRIPOS>BOND
     1     1     5   ar
     2     1     2   ar
     3     1    22    1
     4     2     3   ar
     5     2    23    1
     6     3     4   ar
     7     3     6    1
     8     4     5   ar
     9     5    24    1
    10     6     7    1
    11     6    25    1
    12     6    26    1
    13     7     8    1
    14     7    27    1
    15     8    13   ar
    16     8     9   ar
    17     9    10   ar
    18     9    28    1
    19    10    11   ar
    20    10    21    1
    21    11    12   ar
    22    11    17    1
    23    12    13   ar
    24    12    29    1
    25    13    14    1
    26    14    15   ar
    27    14    16   ar
    28    17    18    2
    29    17    19    2
    30    17    20    1
    31    20    30    1
    32    20    31    1
