@<TRIPOS>MOLECULE
ZINC03775140
 62 64 0 0 0
SMALL
GASTEIGER

@<TRIPOS>ATOM
      1 C          -3.8607   -3.6685    3.6832 C.3     1  UNL1        0.0788
      2 O          -3.1548   -2.4140    3.6612 O.3     1  UNL1       -0.4943
      3 C          -3.6538   -1.4299    4.4860 C.ar    1  UNL1        0.1340
      4 C          -4.5913   -1.7191    5.5087 C.ar    1  UNL1        0.0029
      5 C          -5.1331   -0.7297    6.3427 C.ar    1  UNL1        0.0466
      6 C          -4.7013    0.5819    6.1631 C.ar    1  UNL1        0.0625
      7 C          -3.7539    0.8852    5.1898 C.ar    1  UNL1       -0.0259
      8 C          -3.2385   -0.0902    4.3162 C.ar    1  UNL1        0.0797
      9 C          -2.3635    0.5033    3.2465 C.2     1  UNL1        0.2479
     10 O          -1.9920    1.6703    3.3636 O.2     1  UNL1       -0.2701
     11 N          -2.0461   -0.1984    2.0983 N.am    1  UNL1       -0.3055
     12 C          -1.1591    0.4235    1.0851 C.3     1  UNL1        0.0594
     13 H          -0.2309    0.6860    1.6079 H       1  UNL1        0.0528
     14 C          -1.7191    1.7232    0.4707 C.3     1  UNL1        0.0085
     15 C          -2.9841    1.4954   -0.3265 C.3     1  UNL1       -0.0300
     16 N          -2.7464    0.4776   -1.4230 N.4     1  UNL1        0.2372
     17 C          -2.1136   -0.8057   -0.8960 C.3     1  UNL1       -0.0032
     18 C          -0.8389   -0.5505   -0.0656 C.3     1  UNL1        0.1163
     19 H          -0.0780   -0.1116   -0.7281 H       1  UNL1        0.0668
     20 O          -0.3735   -1.8262    0.3905 O.3     1  UNL1       -0.3727
     21 C           0.8280   -1.8006    1.1576 C.3     1  UNL1        0.0371
     22 C          -4.0472    0.1661   -2.1716 C.3     1  UNL1       -0.0287
     23 C          -4.6545    1.3949   -2.8499 C.3     1  UNL1        0.0217
     24 C          -3.7248    2.0511   -3.8684 C.3     1  UNL1        0.0944
     25 O          -4.3819    3.1663   -4.4755 O.3     1  UNL1       -0.4918
     26 C          -3.6457    3.8104   -5.4342 C.ar    1  UNL1        0.1207
     27 C          -4.3467    4.3800   -6.4970 C.ar    1  UNL1       -0.0172
     28 C          -3.6682    4.9817   -7.5548 C.ar    1  UNL1       -0.0230
     29 C          -2.2887    5.0615   -7.5266 C.ar    1  UNL1        0.1236
     30 C          -1.5681    4.5859   -6.4396 C.ar    1  UNL1       -0.0230
     31 C          -2.2469    3.9517   -5.3968 C.ar    1  UNL1       -0.0172
     32 F          -1.6306    5.6251   -8.5547 F       1  UNL1       -0.2055
     33 CL         -5.3206    1.8697    7.1337 Cl      1  UNL1       -0.0816
     34 N          -6.2567   -1.0332    7.1291 N.pl3   1  UNL1       -0.3567
     35 H          -3.4859   -4.2903    2.8657 H       1  UNL1        0.0660
     36 H          -4.9342   -3.5194    3.5118 H       1  UNL1        0.0660
     37 H          -3.6943   -4.2233    4.6174 H       1  UNL1        0.0660
     38 H          -4.9446   -2.7330    5.6794 H       1  UNL1        0.0673
     39 H          -3.4488    1.9286    5.0878 H       1  UNL1        0.0641
     40 H          -2.0280   -1.2127    2.2110 H       1  UNL1        0.1494
     41 H          -1.9369    2.4832    1.2257 H       1  UNL1        0.0336
     42 H          -0.9603    2.1757   -0.1829 H       1  UNL1        0.0336
     43 H          -3.8130    1.1428    0.2896 H       1  UNL1        0.0815
     44 H          -3.2610    2.4329   -0.8164 H       1  UNL1        0.0815
     45 H          -1.8753   -1.4273   -1.7678 H       1  UNL1        0.0841
     46 H          -2.8699   -1.3344   -0.3040 H       1  UNL1        0.0841
     47 H           1.6281   -1.2616    0.6407 H       1  UNL1        0.0524
     48 H           0.6481   -1.3625    2.1437 H       1  UNL1        0.0524
     49 H           1.1481   -2.8352    1.3107 H       1  UNL1        0.0524
     50 H          -3.8050   -0.6059   -2.9091 H       1  UNL1        0.0815
     51 H          -4.7374   -0.2535   -1.4336 H       1  UNL1        0.0815
     52 H          -5.5864    1.0947   -3.3443 H       1  UNL1        0.0350
     53 H          -4.9682    2.1376   -2.1056 H       1  UNL1        0.0350
     54 H          -2.8326    2.3955   -3.3402 H       1  UNL1        0.0698
     55 H          -3.4432    1.3180   -4.6336 H       1  UNL1        0.0698
     56 H          -5.4376    4.3397   -6.5141 H       1  UNL1        0.0655
     57 H          -4.2080    5.3737   -8.4109 H       1  UNL1        0.0647
     58 H          -0.4917    4.7098   -6.4121 H       1  UNL1        0.0647
     59 H          -1.6538    3.5974   -4.5622 H       1  UNL1        0.0655
     60 H          -6.4497   -0.3389    7.8511 H       1  UNL1        0.1424
     61 H          -6.3288   -1.9853    7.4683 H       1  UNL1        0.1424
     62 H          -2.0722    0.8697   -2.0903 H       1  UNL1        0.2034
@<TRIPOS>UNITY_ATOM_ATTR
16 1
charge 1
@<TRIPOS>BOND
     1     1     2    1
     2     1    35    1
     3     1    36    1
     4     1    37    1
     5     2     3    1
     6     3     8   ar
     7     3     4   ar
     8     4     5   ar
     9     4    38    1
    10     5     6   ar
    11     5    34    1
    12     6     7   ar
    13     6    33    1
    14     7     8   ar
    15     7    39    1
    16     8     9    1
    17     9    10    2
    18     9    11   am
    19    11    12    1
    20    11    40    1
    21    12    13    1
    22    12    18    1
    23    12    14    1
    24    14    15    1
    25    14    41    1
    26    14    42    1
    27    15    16    1
    28    15    43    1
    29    15    44    1
    30    16    17    1
    31    17    18    1
    32    17    45    1
    33    17    46    1
    34    18    19    1
    35    18    20    1
    36    20    21    1
    37    21    47    1
    38    21    48    1
    39    21    49    1
    40    22    23    1
    41    22    50    1
    42    22    51    1
    43    23    24    1
    44    23    52    1
    45    23    53    1
    46    24    25    1
    47    24    54    1
    48    24    55    1
    49    25    26    1
    50    26    31   ar
    51    26    27   ar
    52    27    28   ar
    53    27    56    1
    54    28    29   ar
    55    28    57    1
    56    29    30   ar
    57    29    32    1
    58    30    31   ar
    59    30    58    1
    60    31    59    1
    61    34    60    1
    62    34    61    1
    63    16    62    1
    64    16    22    1
