@<TRIPOS>MOLECULE
ZINC01535101
 60 61 0 0 0
SMALL
GASTEIGER

@<TRIPOS>ATOM
      1 C           6.3870   -9.0038    2.7748 C.3     1  UNL1       -0.0572
      2 C           5.3272   -7.9604    2.4095 C.3     1  UNL1       -0.0035
      3 C           4.7588   -7.3123    3.6749 C.3     1  UNL1       -0.0572
      4 C           5.8416   -6.8980    1.4337 C.ar    1  UNL1        0.0566
      5 C           4.9623   -6.2032    0.5748 C.ar    1  UNL1        0.0224
      6 C           5.5792   -5.2394   -0.2450 C.ar    1  UNL1        0.0835
      7 N           6.9019   -4.9604   -0.1544 N.ar    1  UNL1       -0.2125
      8 C           7.6228   -5.6551    0.7112 C.ar    1  UNL1        0.2377
      9 N           7.1779   -6.6347    1.4955 N.ar    1  UNL1       -0.2172
     10 N           8.9870   -5.3382    0.6604 N.pl3   1  UNL1       -0.1777
     11 C           9.9040   -6.4075    0.2858 C.3     1  UNL1        0.0261
     12 S           9.5102   -4.2117    1.7695 S.O2    1  UNL1        0.0446
     13 O           9.1289   -4.6179    3.1090 O.2     1  UNL1       -0.1552
     14 O          10.9183   -3.9356    1.4791 O.2     1  UNL1       -0.1552
     15 C           8.5986   -2.7408    1.3294 C.3     1  UNL1        0.0739
     16 C           4.9552   -4.4285   -1.3262 C.ar    1  UNL1        0.0013
     17 C           4.0037   -4.9505   -2.2211 C.ar    1  UNL1       -0.0498
     18 C           3.4641   -4.1695   -3.2477 C.ar    1  UNL1       -0.0258
     19 C           3.9162   -2.8717   -3.4361 C.ar    1  UNL1        0.1234
     20 C           4.8626   -2.3221   -2.5861 C.ar    1  UNL1       -0.0258
     21 C           5.3628   -3.0897   -1.5311 C.ar    1  UNL1       -0.0498
     22 F           3.4517   -2.1523   -4.4658 F       1  UNL1       -0.2055
     23 C           3.5126   -6.5042    0.6106 C.2     1  UNL1       -0.0523
     24 C           2.5549   -5.5841    0.4431 C.2     1  UNL1       -0.0551
     25 C           1.0757   -5.7929    0.5762 C.3     1  UNL1        0.0760
     26 H           0.6736   -6.3233   -0.2940 H       1  UNL1        0.0638
     27 C           0.3785   -4.4420    0.7633 C.3     1  UNL1        0.0034
     28 C           0.4174   -3.5596   -0.4960 C.3     1  UNL1        0.0681
     29 H           1.4401   -3.4171   -0.8572 H       1  UNL1        0.0599
     30 C          -0.2203   -2.2016   -0.2427 C.3     1  UNL1        0.0752
     31 C           0.6251   -1.4407    0.7743 C.2     1  UNL1        0.3585
     32 O           1.8339   -1.2658    0.4602 O.co2   1  UNL1       -0.2463
     33 O           0.0087   -1.1084    1.8247 O.co2   1  UNL1       -0.2463
     34 O          -0.2772   -4.2497   -1.5474 O.3     1  UNL1       -0.3911
     35 O           0.8451   -6.6182    1.7226 O.3     1  UNL1       -0.3877
     36 H           7.2219   -8.5624    3.3268 H       1  UNL1        0.0236
     37 H           6.7844   -9.4819    1.8727 H       1  UNL1        0.0236
     38 H           5.9469   -9.7890    3.4003 H       1  UNL1        0.0236
     39 H           4.5350   -8.5425    1.9278 H       1  UNL1        0.0359
     40 H           5.5362   -6.7828    4.2349 H       1  UNL1        0.0236
     41 H           3.9691   -6.5885    3.4435 H       1  UNL1        0.0236
     42 H           4.3205   -8.0703    4.3339 H       1  UNL1        0.0236
     43 H          10.6631   -5.9990   -0.3906 H       1  UNL1        0.0447
     44 H          10.3970   -6.8471    1.1567 H       1  UNL1        0.0447
     45 H           9.3916   -7.2066   -0.2602 H       1  UNL1        0.0447
     46 H           8.8341   -2.4739    0.2972 H       1  UNL1        0.0482
     47 H           7.5312   -2.9121    1.4638 H       1  UNL1        0.0482
     48 H           8.9161   -1.9362    1.9983 H       1  UNL1        0.0482
     49 H           3.6440   -5.9704   -2.1138 H       1  UNL1        0.0625
     50 H           2.6899   -4.5692   -3.8936 H       1  UNL1        0.0646
     51 H           5.1994   -1.3022   -2.7372 H       1  UNL1        0.0646
     52 H           6.0871   -2.6311   -0.8595 H       1  UNL1        0.0625
     53 H           3.1908   -7.5094    0.8638 H       1  UNL1        0.0622
     54 H           2.8453   -4.5641    0.2095 H       1  UNL1        0.0598
     55 H          -0.6608   -4.6201    1.0639 H       1  UNL1        0.0318
     56 H           0.8537   -3.9234    1.6071 H       1  UNL1        0.0318
     57 H          -0.2800   -1.6237   -1.1717 H       1  UNL1        0.0404
     58 H          -1.2486   -2.3267    0.1164 H       1  UNL1        0.0404
     59 H          -1.1490   -3.8275   -1.6355 H       1  UNL1        0.2098
     60 H           0.8111   -6.0163    2.4873 H       1  UNL1        0.2102
@<TRIPOS>BOND
     1     1     2    1
     2     1    36    1
     3     1    37    1
     4     1    38    1
     5     2     3    1
     6     2     4    1
     7     2    39    1
     8     3    40    1
     9     3    41    1
    10     3    42    1
    11     4     9   ar
    12     4     5   ar
    13     5     6   ar
    14     5    23    1
    15     6     7   ar
    16     6    16    1
    17     7     8   ar
    18     8     9   ar
    19     8    10    1
    20    10    11    1
    21    10    12    1
    22    11    43    1
    23    11    44    1
    24    11    45    1
    25    12    13    2
    26    12    14    2
    27    12    15    1
    28    15    46    1
    29    15    47    1
    30    15    48    1
    31    16    21   ar
    32    16    17   ar
    33    17    18   ar
    34    17    49    1
    35    18    19   ar
    36    18    50    1
    37    19    20   ar
    38    19    22    1
    39    20    21   ar
    40    20    51    1
    41    21    52    1
    42    23    24    2
    43    23    53    1
    44    24    54    1
    45    25    27    1
    46    25    35    1
    47    27    55    1
    48    27    56    1
    49    28    30    1
    50    28    34    1
    51    30    31    1
    52    30    57    1
    53    30    58    1
    54    31    32   ar
    55    31    33   ar
    56    34    59    1
    57    35    60    1
    58    25    26    1
    59    25    24    1
    60    28    29    1
    61    28    27    1
