@<TRIPOS>MOLECULE
ZINC01530867
 23 25 0 0 0
SMALL
GASTEIGER

@<TRIPOS>ATOM
      1 C           0.5413    1.0272   -0.1087 C.3     1  UNL1        0.0185
      2 C          -0.5875    0.0837    0.1894 C.3     1  UNL1        0.0185
      3 N           0.7790   -0.4170    0.0000 N.3     1  UNL1       -0.2514
      4 P           1.6851   -0.9019    1.4534 P.3     1  UNL1        0.1283
      5 S           0.6813   -2.6908    1.5267 S.2     1  UNL1       -0.0169
      6 N           3.1470   -0.8536    0.5304 N.3     1  UNL1       -0.2514
      7 C           4.1257   -1.9474    0.5876 C.3     1  UNL1        0.0185
      8 C           3.2954   -1.7367   -0.6371 C.3     1  UNL1        0.0185
      9 N           2.5912   -1.3867    2.9067 N.3     1  UNL1       -0.2514
     10 C           3.3522   -0.3320    3.5809 C.3     1  UNL1        0.0185
     11 C           2.0716   -0.8495    4.1697 C.3     1  UNL1        0.0185
     12 H           0.9009    1.6620    0.6911 H       1  UNL1        0.0443
     13 H           0.6164    1.4367   -1.1060 H       1  UNL1        0.0443
     14 H          -1.0021    0.0468    1.1879 H       1  UNL1        0.0443
     15 H          -1.2793   -0.1656   -0.6073 H       1  UNL1        0.0443
     16 H           5.1654   -1.6476    0.5611 H       1  UNL1        0.0443
     17 H           3.9095   -2.8138    1.2002 H       1  UNL1        0.0443
     18 H           2.5171   -2.4591   -0.8493 H       1  UNL1        0.0443
     19 H           3.7599   -1.2932   -1.5071 H       1  UNL1        0.0443
     20 H           4.2872   -0.6522    4.0264 H       1  UNL1        0.0443
     21 H           3.3656    0.6468    3.1224 H       1  UNL1        0.0443
     22 H           1.1867   -0.2283    4.1267 H       1  UNL1        0.0443
     23 H           2.1253   -1.5287    5.0118 H       1  UNL1        0.0443
@<TRIPOS>BOND
     1     1     3    1
     2     1     2    1
     3     1    12    1
     4     1    13    1
     5     2     3    1
     6     2    14    1
     7     2    15    1
     8     3     4    1
     9     4     5    2
    10     4     6    1
    11     4     9    1
    12     6     8    1
    13     6     7    1
    14     7     8    1
    15     7    16    1
    16     7    17    1
    17     8    18    1
    18     8    19    1
    19     9    11    1
    20     9    10    1
    21    10    11    1
    22    10    20    1
    23    10    21    1
    24    11    22    1
    25    11    23    1
