@<TRIPOS>MOLECULE
ZINC00020251
 41 43 0 0 0
SMALL
GASTEIGER

@<TRIPOS>ATOM
      1 C           2.5141   -0.2656    0.0756 C.3     1  UNL1       -0.0397
      2 C           1.0155   -0.1781    0.1057 C.ar    1  UNL1       -0.0503
      3 C           0.2499   -1.0127   -0.7134 C.ar    1  UNL1       -0.0571
      4 C          -1.1494   -0.9400   -0.7001 C.ar    1  UNL1       -0.0401
      5 C          -1.8194   -0.0196    0.1195 C.ar    1  UNL1        0.0345
      6 C          -1.0339    0.8078    0.9389 C.ar    1  UNL1       -0.0401
      7 C           0.3626    0.7298    0.9375 C.ar    1  UNL1       -0.0571
      8 N          -3.2271    0.1121    0.1385 N.pl3   1  UNL1       -0.2884
      9 C          -4.0208   -1.1261   -0.0336 C.3     1  UNL1        0.1157
     10 C          -4.5242   -1.2651   -1.4387 C.2     1  UNL1        0.2564
     11 N          -4.2258   -0.4205   -2.4094 N.2     1  UNL1       -0.2744
     12 C          -5.0169   -0.7223   -3.6027 C.3     1  UNL1        0.1197
     13 C          -5.5376   -2.1339   -3.2923 C.3     1  UNL1        0.1150
     14 N          -5.3126   -2.2500   -1.8388 N.pl3   1  UNL1       -0.2356
     15 C          -3.9388    1.3392    0.0968 C.ar    1  UNL1        0.0379
     16 C          -3.4126    2.4394   -0.6099 C.ar    1  UNL1       -0.0401
     17 C          -4.1484    3.6151   -0.7842 C.ar    1  UNL1       -0.0566
     18 C          -5.4223    3.7260   -0.2372 C.ar    1  UNL1       -0.0201
     19 C          -5.9357    2.6645    0.4950 C.ar    1  UNL1        0.1186
     20 C          -5.2050    1.4913    0.6759 C.ar    1  UNL1        0.0012
     21 O          -7.1810    2.7167    1.0473 O.3     1  UNL1       -0.5067
     22 H           2.8387   -1.2705    0.3631 H       1  UNL1        0.0278
     23 H           2.8857   -0.0400   -0.9295 H       1  UNL1        0.0278
     24 H           2.9709    0.4469    0.7697 H       1  UNL1        0.0278
     25 H           0.7432   -1.7232   -1.3757 H       1  UNL1        0.0621
     26 H          -1.6851   -1.6007   -1.3730 H       1  UNL1        0.0636
     27 H          -1.5101    1.5188    1.6126 H       1  UNL1        0.0636
     28 H           0.9305    1.3825    1.5963 H       1  UNL1        0.0621
     29 H          -3.4362   -2.0176    0.2266 H       1  UNL1        0.0591
     30 H          -4.8751   -1.1504    0.6521 H       1  UNL1        0.0591
     31 H          -4.4019   -0.6783   -4.5043 H       1  UNL1        0.0782
     32 H          -5.8367    0.0002   -3.6656 H       1  UNL1        0.0782
     33 H          -6.5947   -2.2618   -3.5341 H       1  UNL1        0.0764
     34 H          -4.9357   -2.8970   -3.7950 H       1  UNL1        0.0764
     35 H          -5.6379   -2.9705   -1.2044 H       1  UNL1        0.2911
     36 H          -2.4266    2.3828   -1.0685 H       1  UNL1        0.0636
     37 H          -3.7249    4.4404   -1.3526 H       1  UNL1        0.0619
     38 H          -5.9882    4.6414   -0.3819 H       1  UNL1        0.0654
     39 H          -5.6412    0.7203    1.3034 H       1  UNL1        0.0673
     40 H          -7.5644    3.5959    0.8839 H       1  UNL1        0.2921
     41 H          -3.6153    0.3693   -2.2074 H       1  UNL1        0.3037
@<TRIPOS>BOND
     1     1     2    1
     2     1    22    1
     3     1    23    1
     4     1    24    1
     5     2     7   ar
     6     2     3   ar
     7     3     4   ar
     8     3    25    1
     9     4     5   ar
    10     4    26    1
    11     5     6   ar
    12     5     8    1
    13     6     7   ar
    14     6    27    1
    15     7    28    1
    16     8     9    1
    17     8    15    1
    18     9    10    1
    19     9    29    1
    20     9    30    1
    21    10    14    1
    22    10    11    2
    23    11    12    1
    24    11    41    1
    25    12    13    1
    26    12    31    1
    27    12    32    1
    28    13    14    1
    29    13    33    1
    30    13    34    1
    31    14    35    1
    32    15    20   ar
    33    15    16   ar
    34    16    17   ar
    35    16    36    1
    36    17    18   ar
    37    17    37    1
    38    18    19   ar
    39    18    38    1
    40    19    20   ar
    41    19    21    1
    42    20    39    1
    43    21    40    1
