@<TRIPOS>MOLECULE
ZINC03798734
 49 49 0 0 0
SMALL
GASTEIGER

@<TRIPOS>ATOM
      1 C           0.5663    1.2471    2.5619 C.3     1  UNL1       -0.0390
      2 C           0.3219    0.5329    1.2565 C.ar    1  UNL1       -0.0396
      3 C          -0.0908   -0.8101    1.3027 C.ar    1  UNL1       -0.0162
      4 C          -0.3196   -1.5426    0.1381 C.ar    1  UNL1        0.1235
      5 C          -0.1337   -0.9301   -1.1179 C.ar    1  UNL1       -0.0053
      6 C           0.2922    0.4279   -1.1889 C.ar    1  UNL1       -0.0367
      7 C           0.5149    1.1630    0.0095 C.ar    1  UNL1       -0.0187
      8 C           1.0159    2.5563   -0.0304 C.2     1  UNL1       -0.0538
      9 C           0.2296    3.6499   -0.0105 C.2     1  UNL1       -0.0583
     10 C           0.6949    5.0485    0.0009 C.2     1  UNL1       -0.0504
     11 C          -0.2068    6.0628    0.0138 C.2     1  UNL1       -0.0588
     12 C           0.1211    7.4775    0.0225 C.2     1  UNL1       -0.0613
     13 C          -0.7347    8.5191    0.0294 C.2     1  UNL1       -0.0586
     14 C          -0.3027    9.9313    0.0321 C.2     1  UNL1       -0.0436
     15 C          -1.2293   10.9111    0.0271 C.2     1  UNL1        0.0296
     16 C          -1.0496   12.4388    0.0168 C.2     1  UNL1        0.3798
     17 O          -2.0588   13.0591    0.4589 O.co2   1  UNL1       -0.2412
     18 O           0.0239   12.8986   -0.4476 O.co2   1  UNL1       -0.2412
     19 C           1.1834   10.1958    0.0479 C.3     1  UNL1       -0.0395
     20 C           2.1971    5.2605    0.0071 C.3     1  UNL1       -0.0397
     21 C           0.5335    1.0938   -2.5250 C.3     1  UNL1       -0.0388
     22 C          -0.3846   -1.7252   -2.3794 C.3     1  UNL1       -0.0360
     23 O          -0.7124   -2.8570    0.1220 O.3     1  UNL1       -0.4948
     24 C          -0.9210   -3.5091    1.3670 C.3     1  UNL1        0.0788
     25 H           1.6105    1.5674    2.6347 H       1  UNL1        0.0278
     26 H          -0.0973    2.1113    2.6574 H       1  UNL1        0.0278
     27 H           0.3688    0.5920    3.4179 H       1  UNL1        0.0278
     28 H          -0.2216   -1.2688    2.2778 H       1  UNL1        0.0657
     29 H           2.0992    2.6262   -0.0463 H       1  UNL1        0.0624
     30 H          -0.8503    3.5083    0.0076 H       1  UNL1        0.0620
     31 H          -1.2724    5.8374    0.0130 H       1  UNL1        0.0620
     32 H           1.1756    7.7118    0.0274 H       1  UNL1        0.0618
     33 H          -1.8079    8.3408    0.0246 H       1  UNL1        0.0620
     34 H          -2.2888   10.6512    0.0471 H       1  UNL1        0.0693
     35 H           1.6401    9.7319    0.9299 H       1  UNL1        0.0278
     36 H           1.6529    9.7823   -0.8518 H       1  UNL1        0.0278
     37 H           1.4680   11.2466    0.0951 H       1  UNL1        0.0278
     38 H           2.6433    4.8087    0.9004 H       1  UNL1        0.0278
     39 H           2.6506    4.8156   -0.8843 H       1  UNL1        0.0278
     40 H           2.5142    6.3037    0.0124 H       1  UNL1        0.0278
     41 H          -0.1238    1.9614   -2.6420 H       1  UNL1        0.0278
     42 H           1.5793    1.4068   -2.6083 H       1  UNL1        0.0278
     43 H           0.3378    0.4382   -3.3777 H       1  UNL1        0.0278
     44 H          -1.1692   -1.2461   -2.9738 H       1  UNL1        0.0279
     45 H           0.5359   -1.8011   -2.9675 H       1  UNL1        0.0279
     46 H          -0.7202   -2.7486   -2.1897 H       1  UNL1        0.0279
     47 H           0.0049   -3.5567    1.9495 H       1  UNL1        0.0660
     48 H          -1.7254   -3.0300    1.9347 H       1  UNL1        0.0660
     49 H          -1.2317   -4.5373    1.1565 H       1  UNL1        0.0660
@<TRIPOS>BOND
     1     1     2    1
     2     1    25    1
     3     1    26    1
     4     1    27    1
     5     2     7   ar
     6     2     3   ar
     7     3     4   ar
     8     3    28    1
     9     4     5   ar
    10     4    23    1
    11     5     6   ar
    12     5    22    1
    13     6     7   ar
    14     6    21    1
    15     7     8    1
    16     8     9    2
    17     8    29    1
    18     9    10    1
    19     9    30    1
    20    10    11    2
    21    10    20    1
    22    11    12    1
    23    11    31    1
    24    12    13    2
    25    12    32    1
    26    13    14    1
    27    13    33    1
    28    14    15    2
    29    14    19    1
    30    15    16    1
    31    15    34    1
    32    16    17   ar
    33    16    18   ar
    34    19    35    1
    35    19    36    1
    36    19    37    1
    37    20    38    1
    38    20    39    1
    39    20    40    1
    40    21    41    1
    41    21    42    1
    42    21    43    1
    43    22    44    1
    44    22    45    1
    45    22    46    1
    46    23    24    1
    47    24    47    1
    48    24    48    1
    49    24    49    1
