@<TRIPOS>MOLECULE
ZINC00057533
 41 42 0 0 0
SMALL
GASTEIGER

@<TRIPOS>ATOM
      1 C           1.8379   -5.9210    1.7764 C.3     1  UNL1       -0.0493
      2 C           2.5560   -6.6150    0.6293 C.3     1  UNL1        0.0122
      3 N           2.7767   -5.9139   -0.6568 N.am    1  UNL1       -0.2969
      4 C           3.4519   -6.7589   -1.6555 C.3     1  UNL1        0.0398
      5 C           2.5733   -7.4750   -2.6544 C.ar    1  UNL1       -0.0273
      6 C           1.2868   -7.9323   -2.3520 C.ar    1  UNL1       -0.0389
      7 C           0.6079   -8.7154   -3.2784 C.ar    1  UNL1        0.0279
      8 N           1.1052   -9.0567   -4.4830 N.ar    1  UNL1       -0.2632
      9 C           2.3427   -8.6036   -4.7703 C.ar    1  UNL1        0.0279
     10 C           3.1033   -7.8310   -3.9077 C.ar    1  UNL1       -0.0389
     11 C           2.5951   -4.5338   -0.7609 C.2     1  UNL1        0.2255
     12 O           2.0730   -3.8878    0.1599 O.2     1  UNL1       -0.2748
     13 C           2.9055   -3.7047   -2.0180 C.3     1  UNL1        0.0838
     14 H           2.8860   -2.6635   -1.6496 H       1  UNL1        0.0466
     15 C           1.7165   -3.7720   -2.9838 C.3     1  UNL1        0.0593
     16 O           1.6489   -2.5997   -3.8021 O.3     1  UNL1       -0.3939
     17 C           4.3148   -3.7996   -2.5731 C.ar    1  UNL1       -0.0334
     18 C           4.6075   -4.3448   -3.8340 C.ar    1  UNL1       -0.0578
     19 C           5.9287   -4.4873   -4.2647 C.ar    1  UNL1       -0.0615
     20 C           6.9772   -4.0358   -3.4672 C.ar    1  UNL1       -0.0617
     21 C           6.7055   -3.4301   -2.2443 C.ar    1  UNL1       -0.0615
     22 C           5.3873   -3.3195   -1.7979 C.ar    1  UNL1       -0.0578
     23 H           2.4187   -5.0731    2.1537 H       1  UNL1        0.0245
     24 H           1.7180   -6.6154    2.6143 H       1  UNL1        0.0245
     25 H           0.8408   -5.5800    1.4819 H       1  UNL1        0.0245
     26 H           3.5432   -6.9266    0.9919 H       1  UNL1        0.0462
     27 H           2.0016   -7.5329    0.4075 H       1  UNL1        0.0462
     28 H           4.2154   -6.1891   -2.1684 H       1  UNL1        0.0514
     29 H           4.0126   -7.5374   -1.1188 H       1  UNL1        0.0514
     30 H           0.8099   -7.7238   -1.4012 H       1  UNL1        0.0636
     31 H          -0.3783   -9.1136   -3.0556 H       1  UNL1        0.0829
     32 H           2.7266   -8.8969   -5.7439 H       1  UNL1        0.0829
     33 H           4.1060   -7.5359   -4.1965 H       1  UNL1        0.0636
     34 H           1.7542   -4.6418   -3.6421 H       1  UNL1        0.0568
     35 H           0.7693   -3.8234   -2.4341 H       1  UNL1        0.0568
     36 H           1.5073   -1.8378   -3.2138 H       1  UNL1        0.2094
     37 H           3.8130   -4.6933   -4.4913 H       1  UNL1        0.0621
     38 H           6.1386   -4.9508   -5.2252 H       1  UNL1        0.0618
     39 H           8.0045   -4.1444   -3.8048 H       1  UNL1        0.0618
     40 H           7.5189   -3.0431   -1.6360 H       1  UNL1        0.0618
     41 H           5.1983   -2.8418   -0.8376 H       1  UNL1        0.0621
@<TRIPOS>BOND
     1     1     2    1
     2     1    23    1
     3     1    24    1
     4     1    25    1
     5     2     3    1
     6     2    26    1
     7     2    27    1
     8     3     4    1
     9     3    11   am
    10     4     5    1
    11     4    28    1
    12     4    29    1
    13     5    10   ar
    14     5     6   ar
    15     6     7   ar
    16     6    30    1
    17     7     8   ar
    18     7    31    1
    19     8     9   ar
    20     9    10   ar
    21     9    32    1
    22    10    33    1
    23    11    12    2
    24    13    15    1
    25    13    17    1
    26    15    16    1
    27    15    34    1
    28    15    35    1
    29    16    36    1
    30    17    22   ar
    31    17    18   ar
    32    18    19   ar
    33    18    37    1
    34    19    20   ar
    35    19    38    1
    36    20    21   ar
    37    20    39    1
    38    21    22   ar
    39    21    40    1
    40    22    41    1
    41    13    14    1
    42    13    11    1
