@<TRIPOS>MOLECULE
ZINC00002009
 26 26 0 0 0
SMALL
GASTEIGER

@<TRIPOS>ATOM
      1 C           1.0447    0.1988   -0.0210 C.3     1  UNL1        0.0009
      2 N           0.6304   -0.3748    1.2567 N.pl3   1  UNL1       -0.3273
      3 C           0.8806   -1.7124    1.5356 C.3     1  UNL1        0.0635
      4 C           0.4555   -2.2845    2.7935 C.2     1  UNL1       -0.0583
      5 C          -0.1406   -1.5075    3.7160 C.2     1  UNL1       -0.0200
      6 C          -0.3640   -0.0958    3.4413 C.2     1  UNL1        0.1466
      7 C           0.0262    0.4058    2.2509 C.2     1  UNL1        0.0354
      8 O          -0.8667    0.6460    4.5197 O.3     1  UNL1       -0.4102
      9 C          -1.9504    1.4564    4.2994 C.2     1  UNL1        0.4077
     10 O          -2.5866    1.5077    3.2491 O.2     1  UNL1       -0.2258
     11 N          -2.2919    2.2147    5.4155 N.am    1  UNL1       -0.2732
     12 C          -1.5223    2.2527    6.6456 C.3     1  UNL1        0.0060
     13 C          -3.4938    3.0217    5.3501 C.3     1  UNL1        0.0060
     14 H           0.6407    1.2058   -0.1691 H       1  UNL1        0.0428
     15 H           0.6906   -0.4236   -0.8510 H       1  UNL1        0.0428
     16 H           2.1373    0.2574   -0.0738 H       1  UNL1        0.0428
     17 H           1.4124   -2.2918    0.7903 H       1  UNL1        0.0565
     18 H           0.6234   -3.3415    2.9631 H       1  UNL1        0.0592
     19 H          -0.4825   -1.9141    4.6600 H       1  UNL1        0.0652
     20 H          -0.0857    1.4570    2.0079 H       1  UNL1        0.0818
     21 H          -1.2201    3.2887    6.8330 H       1  UNL1        0.0429
     22 H          -2.1555    1.9081    7.4687 H       1  UNL1        0.0429
     23 H          -0.6257    1.6321    6.6017 H       1  UNL1        0.0429
     24 H          -3.4113    3.7276    4.5184 H       1  UNL1        0.0429
     25 H          -4.3534    2.3664    5.1757 H       1  UNL1        0.0429
     26 H          -3.6428    3.5726    6.2834 H       1  UNL1        0.0429
@<TRIPOS>BOND
     1     1     2    1
     2     1    14    1
     3     1    15    1
     4     1    16    1
     5     2     7    1
     6     2     3    1
     7     3     4    1
     8     3    17    1
     9     4     5    2
    10     4    18    1
    11     5     6    1
    12     5    19    1
    13     6     7    2
    14     6     8    1
    15     7    20    1
    16     8     9    1
    17     9    10    2
    18     9    11   am
    19    11    12    1
    20    11    13    1
    21    12    21    1
    22    12    22    1
    23    12    23    1
    24    13    24    1
    25    13    25    1
    26    13    26    1
