@<TRIPOS>MOLECULE
ZINC03830477
 37 39 0 0 0
SMALL
GASTEIGER

@<TRIPOS>ATOM
      1 C          -6.1310   -3.6477   -0.1326 C.3     0  UNK0        0.1072
      2 O          -4.9427   -4.3639    0.1934 O.2     0  UNK0       -0.3964
      3 N          -5.3351   -5.6581    0.5145 N.2     0  UNK0       -0.0779
      4 C          -4.3690   -6.4981    0.7719 C.2     0  UNK0        0.1897
      5 C          -4.8940   -7.8489    1.0689 C.ar    0  UNK0        0.1067
      6 C          -6.2463   -8.1405    0.9033 C.ar    0  UNK0        0.0067
      7 S          -6.6257   -9.6792    1.5066 S.2     0  UNK0       -0.0604
      8 C          -4.9532   -9.9432    1.7972 C.ar    0  UNK0        0.1562
      9 N          -4.1551   -8.9359    1.5354 N.ar    0  UNK0       -0.2233
     10 N          -4.5771  -11.1606    2.2350 N.pl3   0  UNK0       -0.3375
     11 C          -2.8813   -6.1115    0.7360 C.2     0  UNK0        0.2684
     12 O          -2.4354   -5.4791   -0.2180 O.2     0  UNK0       -0.2683
     13 N          -2.0862   -6.5193    1.7928 N.am    2  UNK2       -0.2963
     14 C          -0.5890   -6.3670    1.7339 C.3     2  UNK2        0.1286
     15 H          -0.2104   -6.8479    0.8176 H       2  UNK2        0.0622
     16 C           0.1176   -4.9950    2.0463 C.3     2  UNK2        0.1042
     17 H           0.5762   -4.5248    1.1665 H       2  UNK2        0.0644
     18 N           1.0676   -5.8083    2.8062 N.am    2  UNK2       -0.2491
     19 C           0.2067   -6.8449    2.9832 C.2     2  UNK2        0.2440
     20 O           0.0335   -7.6919    3.8295 O.2     2  UNK2       -0.2731
     21 C           1.9719   -5.2924    3.7077 C.2     2  UNK2        0.1231
     22 C           1.8593   -4.0224    4.1395 C.2     2  UNK2       -0.0455
     23 C           0.7602   -3.0630    3.8268 C.3     2  UNK2        0.0159
     24 S          -0.7493   -3.8297    3.1507 S.3     2  UNK2       -0.1314
     25 C           3.2008   -6.1768    4.1691 C.2     2  UNK2        0.4003
     26 O           3.3750   -7.2388    3.4962 O.co2   2  UNK2       -0.2392
     27 H          -5.8730   -2.6526   -0.4853 H       0  UNK0        0.0687
     28 H          -6.7708   -3.5655    0.7551 H       0  UNK0        0.0687
     29 H          -6.6870   -4.1727   -0.9245 H       0  UNK0        0.0687
     30 H          -7.0214   -7.4974    0.5067 H       0  UNK0        0.0716
     31 H          -5.2973  -11.8798    2.2419 H       0  UNK0        0.1442
     32 H          -3.6831  -11.4876    1.8997 H       0  UNK0        0.1442
     33 H          -2.4611   -7.2305    2.4198 H       1  ACE1        0.1499
     34 H           2.6195   -3.6571    4.8177 H       2  UNK2        0.0601
     35 H           1.1312   -2.2936    3.1422 H       2  UNK2        0.0420
     36 H           0.4715   -2.5571    4.7560 H       2  UNK2        0.0420
     37 O           3.9189   -5.6759    5.0814 O.co2   2  UNK2       -0.2392
@<TRIPOS>BOND
     1     1     2    1
     2     1    27    1
     3     1    28    1
     4     1    29    1
     5     2     3    1
     6     3     4    2
     7     4     5    1
     8     4    11    1
     9     5     9   ar
    10     5     6   ar
    11     6     7   ar
    12     6    30    1
    13     7     8   ar
    14     8     9   ar
    15     8    10    1
    16    10    31    1
    17    10    32    1
    18    11    12    2
    19    11    13   am
    20    13    33    1
    21    14    19    1
    22    14    16    1
    23    16    17    1
    24    16    24    1
    25    16    18    1
    26    18    19   am
    27    18    21    1
    28    19    20    2
    29    21    22    2
    30    21    25    1
    31    22    23    1
    32    22    34    1
    33    23    24    1
    34    23    35    1
    35    23    36    1
    36    25    26   ar
    37    25    37   ar
    38    14    15    1
    39    14    13    1
