@<TRIPOS>MOLECULE
ZINC03802690
 35 37 0 0 0
SMALL
GASTEIGER

@<TRIPOS>ATOM
      1 C           0.9578   -0.0866   -0.1683 C.2     1  UNL1       -0.0971
      2 C           0.2558    0.0144   -1.3081 C.2     1  UNL1       -0.0462
      3 C           0.8588    0.1724   -2.6892 C.3     1  UNL1        0.0608
      4 H           1.8870    0.5514   -2.6448 H       1  UNL1        0.0576
      5 C          -0.0553    1.2617   -3.2591 C.3     1  UNL1       -0.0014
      6 C          -1.4557    0.9776   -2.6979 C.3     1  UNL1        0.0660
      7 H          -2.0409    0.3661   -3.3911 H       1  UNL1        0.0601
      8 C          -1.2418    0.2752   -1.3434 C.3     1  UNL1        0.0310
      9 H          -1.5187    0.9391   -0.5142 H       1  UNL1        0.0394
     10 C          -2.0742   -1.0129   -1.2476 C.3     1  UNL1        0.0531
     11 O          -1.9460   -1.6112    0.0380 O.3     1  UNL1       -0.3943
     12 O          -2.1444    2.2143   -2.5522 O.3     1  UNL1       -0.3910
     13 N           0.9011   -1.0803   -3.4336 N.ar    1  UNL1       -0.3075
     14 C          -0.0423   -1.5637   -4.3096 C.ar    1  UNL1        0.0989
     15 N           0.2538   -2.7576   -4.7702 N.ar    1  UNL1       -0.2286
     16 C           1.4875   -3.0203   -4.2426 C.ar    1  UNL1        0.1720
     17 C           1.9326   -1.9910   -3.4402 C.ar    1  UNL1        0.1697
     18 N           3.1393   -1.8818   -2.8263 N.ar    1  UNL1       -0.1964
     19 C           3.9358   -2.8930   -3.0661 C.ar    1  UNL1        0.1950
     20 N           3.5813   -3.9910   -3.8231 N.ar    1  UNL1       -0.2934
     21 H           4.2425   -4.7316   -3.9890 H       1  UNL1        0.1716
     22 C           2.3602   -4.1511   -4.4545 C.ar    1  UNL1        0.2803
     23 O           2.0959   -5.1502   -5.1158 O.2     1  UNL1       -0.2654
     24 N           5.1961   -2.9129   -2.5657 N.pl3   1  UNL1       -0.3289
     25 H           0.4644   -0.0687    0.8010 H       1  UNL1        0.0535
     26 H           2.0415   -0.1593   -0.1726 H       1  UNL1        0.0535
     27 H          -0.0575    1.2992   -4.3536 H       1  UNL1        0.0313
     28 H           0.2852    2.2506   -2.9193 H       1  UNL1        0.0313
     29 H          -3.1355   -0.7834   -1.3903 H       1  UNL1        0.0564
     30 H          -1.7920   -1.7549   -2.0011 H       1  UNL1        0.0564
     31 H          -1.0395   -1.9644    0.0954 H       1  UNL1        0.2094
     32 H          -3.0272    2.0269   -2.1865 H       1  UNL1        0.2098
     33 H          -0.9328   -1.0215   -4.5902 H       1  UNL1        0.1029
     34 H           5.3657   -2.2209   -1.8439 H       1  UNL1        0.1451
     35 H           5.6361   -3.8065   -2.3982 H       1  UNL1        0.1451
@<TRIPOS>BOND
     1     1     2    2
     2     1    25    1
     3     1    26    1
     4     2     8    1
     5     2     3    1
     6     3     4    1
     7     3     5    1
     8     3    13    1
     9     5     6    1
    10     5    27    1
    11     5    28    1
    12     6     7    1
    13     6     8    1
    14     6    12    1
    15    10    11    1
    16    10    29    1
    17    10    30    1
    18    11    31    1
    19    12    32    1
    20    13    17   ar
    21    13    14   ar
    22    14    15   ar
    23    14    33    1
    24    15    16   ar
    25    16    22   ar
    26    16    17   ar
    27    17    18   ar
    28    18    19   ar
    29    19    20   ar
    30    19    24    1
    31    20    21    1
    32    20    22   ar
    33    22    23    2
    34    24    34    1
    35    24    35    1
    36     8    10    1
    37     8     9    1
