@<TRIPOS>MOLECULE
ZINC01530755
 83 84 0 0 0
SMALL
GASTEIGER

@<TRIPOS>ATOM
      1 C          -2.7401   -2.7772   -1.4514 C.3     1  UNL1       -0.0559
      2 C          -2.0505   -2.5582   -2.8232 C.3     1  UNL1       -0.0092
      3 C          -2.4333   -3.7287   -3.7509 C.3     1  UNL1       -0.0559
      4 C          -2.7124   -1.2661   -3.3772 C.3     1  UNL1       -0.0559
      5 C          -0.5007   -2.4430   -2.7771 C.ar    1  UNL1        0.0007
      6 C           0.1616   -1.6293   -3.7273 C.ar    1  UNL1       -0.0411
      7 C           1.5476   -1.4313   -3.7133 C.ar    1  UNL1        0.0100
      8 C           2.3179   -2.1076   -2.7644 C.ar    1  UNL1       -0.0411
      9 C           1.7411   -2.9700   -1.8097 C.ar    1  UNL1        0.0007
     10 C           0.3309   -3.1239   -1.8515 C.ar    1  UNL1        0.1242
     11 O          -0.2176   -4.0196   -0.9778 O.3     1  UNL1       -0.5062
     12 C           2.6300   -3.6932   -0.7638 C.3     1  UNL1       -0.0092
     13 C           4.1439   -3.4044   -0.9415 C.3     1  UNL1       -0.0559
     14 C           2.2603   -3.2184    0.6603 C.3     1  UNL1       -0.0559
     15 C           2.4899   -5.2319   -0.8400 C.3     1  UNL1       -0.0559
     16 S           2.3448   -0.4495   -4.9874 S.3     1  UNL1       -0.1078
     17 C           2.4658    1.2777   -4.2421 C.3     1  UNL1        0.0655
     18 C           1.0658    1.7953   -3.9147 C.3     1  UNL1       -0.0408
     19 C           3.3985    1.2692   -3.0302 C.3     1  UNL1       -0.0408
     20 S           3.2198    2.3471   -5.5994 S.3     1  UNL1       -0.1078
     21 C           3.3390    3.9719   -4.8564 C.ar    1  UNL1        0.0100
     22 C           2.3119    4.9052   -5.0345 C.ar    1  UNL1       -0.0411
     23 C           2.3895    6.2193   -4.5243 C.ar    1  UNL1        0.0007
     24 C           3.5646    6.5417   -3.7976 C.ar    1  UNL1        0.1242
     25 C           4.6540    5.6523   -3.6319 C.ar    1  UNL1        0.0007
     26 C           4.5002    4.3625   -4.1840 C.ar    1  UNL1       -0.0411
     27 C           5.9287    5.9847   -2.8049 C.3     1  UNL1       -0.0092
     28 C           5.6635    5.5603   -1.3453 C.3     1  UNL1       -0.0559
     29 C           7.1729    5.2134   -3.3206 C.3     1  UNL1       -0.0559
     30 C           6.3644    7.4718   -2.7934 C.3     1  UNL1       -0.0559
     31 O           3.6516    7.7474   -3.1651 O.3     1  UNL1       -0.5062
     32 C           1.1952    7.1896   -4.7435 C.3     1  UNL1       -0.0092
     33 C           0.2161    7.0198   -3.5637 C.3     1  UNL1       -0.0559
     34 C           1.5907    8.6833   -4.8568 C.3     1  UNL1       -0.0559
     35 C           0.4095    6.8941   -6.0512 C.3     1  UNL1       -0.0559
     36 H          -3.8328   -2.7426   -1.5563 H       1  UNL1        0.0238
     37 H          -2.4539   -2.0014   -0.7331 H       1  UNL1        0.0238
     38 H          -2.5361   -3.7529   -1.0058 H       1  UNL1        0.0238
     39 H          -3.5222   -3.8461   -3.8106 H       1  UNL1        0.0238
     40 H          -2.0644   -3.5710   -4.7710 H       1  UNL1        0.0238
     41 H          -2.0212   -4.6798   -3.3956 H       1  UNL1        0.0238
     42 H          -2.4219   -0.3926   -2.7811 H       1  UNL1        0.0238
     43 H          -2.4540   -1.0697   -4.4220 H       1  UNL1        0.0238
     44 H          -3.8067   -1.3361   -3.3496 H       1  UNL1        0.0238
     45 H          -0.3971   -1.1388   -4.5202 H       1  UNL1        0.0633
     46 H           3.3923   -1.9644   -2.8102 H       1  UNL1        0.0633
     47 H          -0.7733   -4.6180   -1.5048 H       1  UNL1        0.2922
     48 H           4.3684   -2.3377   -0.8260 H       1  UNL1        0.0238
     49 H           4.7436   -3.9385   -0.1953 H       1  UNL1        0.0238
     50 H           4.4991   -3.7278   -1.9275 H       1  UNL1        0.0238
     51 H           1.2249   -3.4488    0.9290 H       1  UNL1        0.0238
     52 H           2.8959   -3.7004    1.4132 H       1  UNL1        0.0238
     53 H           2.3911   -2.1346    0.7602 H       1  UNL1        0.0238
     54 H           1.4872   -5.5898   -0.5913 H       1  UNL1        0.0238
     55 H           2.7366   -5.6036   -1.8407 H       1  UNL1        0.0238
     56 H           3.1689   -5.7206   -0.1294 H       1  UNL1        0.0238
     57 H           0.5687    1.1759   -3.1620 H       1  UNL1        0.0251
     58 H           1.0982    2.8048   -3.4926 H       1  UNL1        0.0251
     59 H           0.4232    1.8261   -4.8034 H       1  UNL1        0.0251
     60 H           4.4338    1.0383   -3.3098 H       1  UNL1        0.0251
     61 H           3.3995    2.2391   -2.5204 H       1  UNL1        0.0251
     62 H           3.0903    0.5401   -2.2757 H       1  UNL1        0.0251
     63 H           1.4346    4.5743   -5.5818 H       1  UNL1        0.0633
     64 H           5.2859    3.6205   -4.0768 H       1  UNL1        0.0633
     65 H           5.4545    4.4869   -1.2690 H       1  UNL1        0.0238
     66 H           6.5282    5.7748   -0.7063 H       1  UNL1        0.0238
     67 H           4.8023    6.0932   -0.9249 H       1  UNL1        0.0238
     68 H           7.3344    5.4000   -4.3888 H       1  UNL1        0.0238
     69 H           8.0819    5.5218   -2.7900 H       1  UNL1        0.0238
     70 H           7.0917    4.1325   -3.1687 H       1  UNL1        0.0238
     71 H           6.4814    7.8644   -3.8090 H       1  UNL1        0.0238
     72 H           5.6758    8.1183   -2.2427 H       1  UNL1        0.0238
     73 H           7.3277    7.5919   -2.2797 H       1  UNL1        0.0238
     74 H           2.8575    7.8370   -2.6159 H       1  UNL1        0.2922
     75 H           0.6778    7.2987   -2.6105 H       1  UNL1        0.0238
     76 H          -0.6743    7.6460   -3.6945 H       1  UNL1        0.0238
     77 H          -0.1225    5.9809   -3.4714 H       1  UNL1        0.0238
     78 H           2.4102    8.8247   -5.5702 H       1  UNL1        0.0238
     79 H           0.7450    9.2923   -5.2013 H       1  UNL1        0.0238
     80 H           1.8828    9.1248   -3.9007 H       1  UNL1        0.0238
     81 H           1.0638    6.9578   -6.9283 H       1  UNL1        0.0238
     82 H          -0.0688    5.9099   -6.0476 H       1  UNL1        0.0238
     83 H          -0.4049    7.6163   -6.1937 H       1  UNL1        0.0238
@<TRIPOS>BOND
     1     1     2    1
     2     1    36    1
     3     1    37    1
     4     1    38    1
     5     2     3    1
     6     2     4    1
     7     2     5    1
     8     3    39    1
     9     3    40    1
    10     3    41    1
    11     4    42    1
    12     4    43    1
    13     4    44    1
    14     5    10   ar
    15     5     6   ar
    16     6     7   ar
    17     6    45    1
    18     7     8   ar
    19     7    16    1
    20     8     9   ar
    21     8    46    1
    22     9    10   ar
    23     9    12    1
    24    10    11    1
    25    11    47    1
    26    12    13    1
    27    12    14    1
    28    12    15    1
    29    13    48    1
    30    13    49    1
    31    13    50    1
    32    14    51    1
    33    14    52    1
    34    14    53    1
    35    15    54    1
    36    15    55    1
    37    15    56    1
    38    16    17    1
    39    17    18    1
    40    17    19    1
    41    17    20    1
    42    18    57    1
    43    18    58    1
    44    18    59    1
    45    19    60    1
    46    19    61    1
    47    19    62    1
    48    20    21    1
    49    21    26   ar
    50    21    22   ar
    51    22    23   ar
    52    22    63    1
    53    23    24   ar
    54    23    32    1
    55    24    25   ar
    56    24    31    1
    57    25    26   ar
    58    25    27    1
    59    26    64    1
    60    27    28    1
    61    27    29    1
    62    27    30    1
    63    28    65    1
    64    28    66    1
    65    28    67    1
    66    29    68    1
    67    29    69    1
    68    29    70    1
    69    30    71    1
    70    30    72    1
    71    30    73    1
    72    31    74    1
    73    32    33    1
    74    32    34    1
    75    32    35    1
    76    33    75    1
    77    33    76    1
    78    33    77    1
    79    34    78    1
    80    34    79    1
    81    34    80    1
    82    35    81    1
    83    35    82    1
    84    35    83    1
