@<TRIPOS>MOLECULE
ZINC00002273
 33 33 0 0 0
SMALL
GASTEIGER

@<TRIPOS>ATOM
      1 C          -2.9903   -1.4858    1.0011 C.3     1  UNL1       -0.0219
      2 C          -1.4756   -1.4795    0.8234 C.3     1  UNL1       -0.0283
      3 C          -0.8482   -2.6759    1.5295 C.3     1  UNL1       -0.0219
      4 N          -1.1239   -1.5580   -0.6362 N.4     1  UNL1        0.2308
      5 C          -1.5901   -0.4008   -1.4870 C.3     1  UNL1       -0.0026
      6 C          -1.0697   -0.5641   -2.9292 C.3     1  UNL1        0.1199
      7 H          -1.4390   -1.5120   -3.3386 H       1  UNL1        0.0698
      8 C          -1.5130    0.5817   -3.8067 C.ar    1  UNL1       -0.0072
      9 C          -2.4155    0.3512   -4.8609 C.ar    1  UNL1       -0.0141
     10 C          -2.8897    1.4207   -5.6171 C.ar    1  UNL1        0.1207
     11 C          -2.4831    2.7196   -5.3457 C.ar    1  UNL1        0.0213
     12 C          -1.5824    2.9515   -4.3165 C.ar    1  UNL1        0.1207
     13 C          -1.0847    1.8986   -3.5515 C.ar    1  UNL1       -0.0141
     14 O          -1.2214    4.2422   -4.0720 O.3     1  UNL1       -0.5066
     15 O          -3.7790    1.2379   -6.6316 O.3     1  UNL1       -0.5066
     16 O           0.3564   -0.6725   -2.8803 O.3     1  UNL1       -0.3819
     17 H          -3.4469   -2.3621    0.5290 H       1  UNL1        0.0284
     18 H          -3.4509   -0.5894    0.5742 H       1  UNL1        0.0284
     19 H          -3.2531   -1.4989    2.0646 H       1  UNL1        0.0284
     20 H          -1.0430   -0.5489    1.2070 H       1  UNL1        0.0845
     21 H          -1.2340   -3.6219    1.1348 H       1  UNL1        0.0284
     22 H           0.2405   -2.6774    1.4144 H       1  UNL1        0.0284
     23 H          -1.0700   -2.6468    2.6020 H       1  UNL1        0.0284
     24 H          -0.0956   -1.5853   -0.7510 H       1  UNL1        0.2017
     25 H          -2.6839   -0.3784   -1.4664 H       1  UNL1        0.0843
     26 H          -1.1827    0.4976   -1.0118 H       1  UNL1        0.0843
     27 H          -2.7576   -0.6557   -5.0849 H       1  UNL1        0.0658
     28 H          -2.8667    3.5485   -5.9357 H       1  UNL1        0.0691
     29 H          -0.3770    2.1027   -2.7527 H       1  UNL1        0.0658
     30 H          -0.5766    4.2845   -3.3492 H       1  UNL1        0.2921
     31 H          -3.9583    0.2932   -6.7625 H       1  UNL1        0.2921
     32 H           0.6949   -0.4144   -3.7627 H       1  UNL1        0.2105
     33 H          -1.4577   -2.4450   -1.0353 H       1  UNL1        0.2017
@<TRIPOS>UNITY_ATOM_ATTR
4 1
charge 1
@<TRIPOS>BOND
     1     1     2    1
     2     1    17    1
     3     1    18    1
     4     1    19    1
     5     2     3    1
     6     2     4    1
     7     2    20    1
     8     3    21    1
     9     3    22    1
    10     3    23    1
    11     4     5    1
    12     4    24    1
    13     4    33    1
    14     5     6    1
    15     5    25    1
    16     5    26    1
    17     6     7    1
    18     6     8    1
    19     6    16    1
    20     8    13   ar
    21     8     9   ar
    22     9    10   ar
    23     9    27    1
    24    10    11   ar
    25    10    15    1
    26    11    12   ar
    27    11    28    1
    28    12    13   ar
    29    12    14    1
    30    13    29    1
    31    14    30    1
    32    15    31    1
    33    16    32    1
