@<TRIPOS>MOLECULE
ZINC01530638
 41 42 0 0 0
SMALL
GASTEIGER

@<TRIPOS>ATOM
      1 C          -5.4084   -2.9832    1.1367 C.3     1  UNL1       -0.0449
      2 N          -3.9432   -2.7427    1.0164 N.4     1  UNL1        0.2249
      3 C          -3.0777   -3.7229    1.7346 C.3     1  UNL1       -0.0302
      4 C          -1.5969   -3.3957    1.5555 C.3     1  UNL1        0.0287
      5 C          -1.1591   -1.9981    2.0692 C.3     1  UNL1        0.1300
      6 H          -0.0637   -1.9715    2.0622 H       1  UNL1        0.0786
      7 C          -1.4494   -1.7415    3.5414 C.ar    1  UNL1       -0.0072
      8 C          -0.9444   -2.6464    4.5049 C.ar    1  UNL1       -0.0551
      9 C          -1.0310   -2.3666    5.8734 C.ar    1  UNL1       -0.0614
     10 C          -1.6273   -1.1885    6.3035 C.ar    1  UNL1       -0.0617
     11 C          -2.1445   -0.2945    5.3697 C.ar    1  UNL1       -0.0614
     12 C          -2.0481   -0.5645    3.9989 C.ar    1  UNL1       -0.0551
     13 O          -1.6812   -0.9607    1.1884 O.3     1  UNL1       -0.4840
     14 C          -0.7183   -0.4135    0.3476 C.ar    1  UNL1        0.1214
     15 C           0.3651   -1.1642   -0.0986 C.ar    1  UNL1       -0.0194
     16 C           1.3741   -0.6001   -0.8968 C.ar    1  UNL1       -0.0467
     17 C           1.2786    0.7309   -1.2950 C.ar    1  UNL1        0.0550
     18 C           0.1635    1.4791   -0.8842 C.ar    1  UNL1       -0.0467
     19 C          -0.8363    0.9159   -0.0785 C.ar    1  UNL1       -0.0194
     20 C           2.3418    1.3529   -2.1711 C.3     1  UNL1        0.4174
     21 F           3.3483    0.4973   -2.4816 F       1  UNL1       -0.1659
     22 F           1.8316    1.7852   -3.3597 F       1  UNL1       -0.1659
     23 F           2.9250    2.4359   -1.5921 F       1  UNL1       -0.1659
     24 H          -5.6484   -3.9486    0.6836 H       1  UNL1        0.0777
     25 H          -5.9157   -2.1780    0.5999 H       1  UNL1        0.0777
     26 H          -5.6769   -2.9629    2.1960 H       1  UNL1        0.0777
     27 H          -3.6855   -2.7010    0.0210 H       1  UNL1        0.2011
     28 H          -3.3653   -3.7087    2.7893 H       1  UNL1        0.0815
     29 H          -3.2968   -4.7144    1.3197 H       1  UNL1        0.0815
     30 H          -1.0133   -4.1738    2.0674 H       1  UNL1        0.0356
     31 H          -1.3473   -3.5041    0.4904 H       1  UNL1        0.0356
     32 H          -0.4350   -3.5569    4.2108 H       1  UNL1        0.0621
     33 H          -0.6088   -3.0575    6.6004 H       1  UNL1        0.0618
     34 H          -1.6713   -0.9557    7.3667 H       1  UNL1        0.0618
     35 H          -2.6007    0.6335    5.7122 H       1  UNL1        0.0618
     36 H          -2.4175    0.1902    3.3087 H       1  UNL1        0.0621
     37 H           0.5158   -2.1927    0.1868 H       1  UNL1        0.0654
     38 H           2.2213   -1.2169   -1.1797 H       1  UNL1        0.0624
     39 H           0.0867    2.5299   -1.1864 H       1  UNL1        0.0624
     40 H          -1.6590    1.5598    0.2218 H       1  UNL1        0.0654
     41 H          -3.7374   -1.7992    1.3800 H       1  UNL1        0.2011
@<TRIPOS>UNITY_ATOM_ATTR
2 1
charge 1
@<TRIPOS>BOND
     1     1     2    1
     2     1    24    1
     3     1    25    1
     4     1    26    1
     5     2     3    1
     6     2    27    1
     7     2    41    1
     8     3     4    1
     9     3    28    1
    10     3    29    1
    11     4    30    1
    12     4    31    1
    13     5     7    1
    14     5    13    1
    15     7    12   ar
    16     7     8   ar
    17     8     9   ar
    18     8    32    1
    19     9    10   ar
    20     9    33    1
    21    10    11   ar
    22    10    34    1
    23    11    12   ar
    24    11    35    1
    25    12    36    1
    26    13    14    1
    27    14    19   ar
    28    14    15   ar
    29    15    16   ar
    30    15    37    1
    31    16    17   ar
    32    16    38    1
    33    17    18   ar
    34    17    20    1
    35    18    19   ar
    36    18    39    1
    37    19    40    1
    38    20    21    1
    39    20    22    1
    40    20    23    1
    41     5     6    1
    42     5     4    1
