@<TRIPOS>MOLECULE
ZINC03786466
 49 52 0 0 0
SMALL
GASTEIGER

@<TRIPOS>ATOM
      1 C           2.5345   -0.8958   -4.5302 C.3     1  UNL1       -0.0605
      2 C           1.3966   -1.1633   -3.5558 C.3     1  UNL1       -0.0153
      3 C           1.9489   -1.4521   -2.1636 C.3     1  UNL1       -0.0319
      4 N           0.8482   -1.5862   -1.1313 N.4     1  UNL1        0.2383
      5 C           0.1207   -2.9095   -1.2120 C.3     1  UNL1       -0.0279
      6 C          -1.2884   -2.9413   -0.5557 C.3     1  UNL1        0.0089
      7 H          -1.4035   -3.9587   -0.1441 H       1  UNL1        0.0361
      8 C          -1.5055   -1.9714    0.6290 C.3     1  UNL1       -0.0326
      9 C          -0.7609   -0.6435    0.4998 C.3     1  UNL1        0.0285
     10 H           0.1220   -0.9790    1.0874 H       1  UNL1        0.0404
     11 C          -0.0709   -0.3868   -0.9052 C.3     1  UNL1       -0.0098
     12 H          -0.8084   -0.3974   -1.7256 H       1  UNL1        0.0860
     13 C           0.7243    0.9655   -0.9818 C.3     1  UNL1        0.0181
     14 C           1.1605    1.3979    0.3661 C.ar    1  UNL1       -0.0168
     15 C           2.3021    1.8420    0.9899 C.ar    1  UNL1        0.0061
     16 N           1.9266    2.2775    2.2552 N.ar    1  UNL1       -0.3604
     17 H           2.5556    2.6415    2.9624 H       1  UNL1        0.1653
     18 C           0.5575    2.1505    2.4056 C.ar    1  UNL1        0.0470
     19 C           0.1882    1.3303    1.3628 C.ar    1  UNL1        0.0067
     20 C          -0.9954    0.6029    1.3131 C.ar    1  UNL1       -0.0295
     21 C          -2.0027    1.0750    2.1390 C.ar    1  UNL1       -0.0574
     22 C          -1.7169    2.0964    3.0822 C.ar    1  UNL1       -0.0595
     23 C          -0.3959    2.5703    3.3169 C.ar    1  UNL1       -0.0378
     24 C          -2.4404   -2.7814   -1.5704 C.3     1  UNL1        0.0011
     25 S          -2.4218   -4.0714   -2.8518 S.3     1  UNL1       -0.1637
     26 C          -3.7889   -3.4717   -3.8790 C.3     1  UNL1       -0.0181
     27 H           3.3133   -1.6589   -4.4529 H       1  UNL1        0.0232
     28 H           2.9905    0.0801   -4.3316 H       1  UNL1        0.0232
     29 H           2.1587   -0.8928   -5.5579 H       1  UNL1        0.0232
     30 H           0.8137   -2.0157   -3.9211 H       1  UNL1        0.0314
     31 H           0.7278   -0.2954   -3.5593 H       1  UNL1        0.0314
     32 H           2.5158   -2.3839   -2.1402 H       1  UNL1        0.0814
     33 H           2.6256   -0.6686   -1.8144 H       1  UNL1        0.0814
     34 H           0.7768   -3.6317   -0.7063 H       1  UNL1        0.0817
     35 H           0.0865   -3.1925   -2.2650 H       1  UNL1        0.0817
     36 H          -1.1091   -2.4869    1.5217 H       1  UNL1        0.0278
     37 H          -2.5677   -1.8298    0.8544 H       1  UNL1        0.0278
     38 H           0.0050    1.7221   -1.3181 H       1  UNL1        0.0369
     39 H           1.5244    1.0117   -1.7241 H       1  UNL1        0.0369
     40 H           3.3354    1.9465    0.6623 H       1  UNL1        0.0810
     41 H          -3.0135    0.6736    2.0896 H       1  UNL1        0.0621
     42 H          -2.5245    2.5085    3.6796 H       1  UNL1        0.0618
     43 H          -0.1732    3.2726    4.1162 H       1  UNL1        0.0638
     44 H          -3.3963   -2.8670   -1.0398 H       1  UNL1        0.0381
     45 H          -2.4101   -1.7999   -2.0489 H       1  UNL1        0.0381
     46 H          -4.5008   -2.8879   -3.2904 H       1  UNL1        0.0340
     47 H          -4.3119   -4.3268   -4.3137 H       1  UNL1        0.0340
     48 H          -3.3932   -2.8526   -4.6882 H       1  UNL1        0.0340
     49 H           1.3947   -1.6425   -0.2439 H       1  UNL1        0.2036
@<TRIPOS>UNITY_ATOM_ATTR
4 1
charge 1
@<TRIPOS>BOND
     1     1     2    1
     2     1    27    1
     3     1    28    1
     4     1    29    1
     5     2     3    1
     6     2    30    1
     7     2    31    1
     8     3    32    1
     9     3    33    1
    10     4    11    1
    11     4     5    1
    12     5     6    1
    13     5    34    1
    14     5    35    1
    15     6     7    1
    16     6     8    1
    17     6    24    1
    18     8     9    1
    19     8    36    1
    20     8    37    1
    21     9    10    1
    22     9    20    1
    23     9    11    1
    24    11    12    1
    25    11    13    1
    26    13    14    1
    27    13    38    1
    28    13    39    1
    29    14    19   ar
    30    14    15   ar
    31    15    16   ar
    32    15    40    1
    33    16    17    1
    34    16    18   ar
    35    18    23   ar
    36    18    19   ar
    37    19    20   ar
    38    20    21   ar
    39    21    22   ar
    40    21    41    1
    41    22    23   ar
    42    22    42    1
    43    23    43    1
    44    24    25    1
    45    24    44    1
    46    24    45    1
    47    25    26    1
    48    26    46    1
    49    26    47    1
    50    26    48    1
    51     4    49    1
    52     4     3    1
