@<TRIPOS>MOLECULE
ZINC00004234
 35 36 0 0 0
SMALL
GASTEIGER

@<TRIPOS>ATOM
      1 C           0.9718   -0.0920    0.1213 C.3     1  UNL1       -0.0571
      2 C           0.4983   -0.5298   -1.2675 C.3     1  UNL1       -0.0018
      3 C           0.9258   -1.9740   -1.5464 C.3     1  UNL1       -0.0571
      4 C          -0.9872   -0.3536   -1.4538 C.ar    1  UNL1        0.0770
      5 C          -1.7133    0.4212   -2.4120 C.ar    1  UNL1        0.0662
      6 C          -3.0392    0.2046   -2.0699 C.ar    1  UNL1        0.0776
      7 C          -4.2973    0.6382   -2.5915 C.ar    1  UNL1       -0.0355
      8 C          -5.4410    0.2297   -2.0103 C.ar    1  UNL1       -0.0583
      9 C          -5.4291   -0.6401   -0.8483 C.ar    1  UNL1       -0.0435
     10 C          -4.2476   -1.0522   -0.3632 C.ar    1  UNL1        0.0298
     11 N          -3.0574   -0.6431   -0.9683 N.ar    1  UNL1       -0.2389
     12 N          -1.8038   -0.9944   -0.6068 N.ar    1  UNL1       -0.1704
     13 C          -1.2905    1.2968   -3.5028 C.2     1  UNL1        0.1695
     14 O          -1.9877    2.2646   -3.8254 O.2     1  UNL1       -0.2916
     15 C          -0.0099    1.0156   -4.2849 C.3     1  UNL1        0.0166
     16 C          -0.3401    0.8930   -5.7754 C.3     1  UNL1       -0.0556
     17 C           0.9904    2.1433   -4.0300 C.3     1  UNL1       -0.0556
     18 H           0.5801   -0.7444    0.9094 H       1  UNL1        0.0236
     19 H           0.6496    0.9316    0.3415 H       1  UNL1        0.0236
     20 H           2.0657   -0.1194    0.1783 H       1  UNL1        0.0236
     21 H           1.0266    0.1086   -1.9758 H       1  UNL1        0.0359
     22 H           0.5777   -2.6541   -0.7605 H       1  UNL1        0.0236
     23 H           0.5189   -2.3314   -2.4990 H       1  UNL1        0.0236
     24 H           2.0170   -2.0507   -1.5955 H       1  UNL1        0.0236
     25 H          -4.3251    1.2932   -3.4586 H       1  UNL1        0.0639
     26 H          -6.4035    0.5458   -2.4016 H       1  UNL1        0.0619
     27 H          -6.3702   -0.9385   -0.4006 H       1  UNL1        0.0633
     28 H          -4.1457   -1.7000    0.4963 H       1  UNL1        0.0830
     29 H           0.4281    0.0610   -3.9863 H       1  UNL1        0.0375
     30 H          -1.0545    1.6511   -6.1124 H       1  UNL1        0.0236
     31 H           0.5605    0.9763   -6.3925 H       1  UNL1        0.0236
     32 H          -0.7880   -0.0868   -5.9772 H       1  UNL1        0.0236
     33 H           1.4446    2.0385   -3.0393 H       1  UNL1        0.0236
     34 H           1.8012    2.1353   -4.7652 H       1  UNL1        0.0236
     35 H           0.5145    3.1296   -4.0581 H       1  UNL1        0.0236
@<TRIPOS>BOND
     1     1     2    1
     2     1    18    1
     3     1    19    1
     4     1    20    1
     5     2     3    1
     6     2     4    1
     7     2    21    1
     8     3    22    1
     9     3    23    1
    10     3    24    1
    11     4    12   ar
    12     4     5   ar
    13     5     6   ar
    14     5    13    1
    15     6    11   ar
    16     6     7   ar
    17     7     8   ar
    18     7    25    1
    19     8     9   ar
    20     8    26    1
    21     9    10   ar
    22     9    27    1
    23    10    11   ar
    24    10    28    1
    25    11    12   ar
    26    13    14    2
    27    13    15    1
    28    15    16    1
    29    15    17    1
    30    15    29    1
    31    16    30    1
    32    16    31    1
    33    16    32    1
    34    17    33    1
    35    17    34    1
    36    17    35    1
