@<TRIPOS>MOLECULE
ZINC03775644
 28 30 0 0 0
SMALL
GASTEIGER

@<TRIPOS>ATOM
      1 C          -7.3536   -4.1495   -1.5299 C.ar    1  UNL1       -0.0511
      2 C          -7.6156   -5.1481   -0.5967 C.ar    1  UNL1       -0.0404
      3 C          -6.8446   -5.2481    0.5632 C.ar    1  UNL1        0.0263
      4 C          -5.6257   -4.5597    0.6336 C.ar    1  UNL1       -0.0196
      5 C          -5.3169   -3.5905   -0.3238 C.ar    1  UNL1        0.0371
      6 C          -6.2755   -3.2916   -1.3126 C.ar    1  UNL1       -0.0037
      7 C          -6.2356   -1.9821   -1.9701 C.2     1  UNL1       -0.0472
      8 C          -5.1645   -1.1900   -1.7540 C.2     1  UNL1       -0.0169
      9 C          -5.1284    0.2300   -2.0710 C.2     1  UNL1       -0.0544
     10 C          -3.9200    0.7914   -2.1996 C.2     1  UNL1       -0.0409
     11 C          -2.7122   -0.0685   -2.2562 C.2     1  UNL1        0.0230
     12 C          -2.6947   -1.1265   -1.3965 C.2     1  UNL1       -0.0332
     13 C          -3.9854   -1.7319   -1.0698 C.3     1  UNL1        0.1071
     14 N          -4.1502   -2.7930   -0.2071 N.pl3   1  UNL1       -0.3282
     15 N          -2.3514   -0.2924   -3.5864 N.pl3   1  UNL1       -0.3581
     16 N          -7.2127   -6.1474    1.5755 N.pl3   1  UNL1       -0.3579
     17 H          -8.0258   -4.0015   -2.3700 H       1  UNL1        0.0625
     18 H          -8.4889   -5.7838   -0.7352 H       1  UNL1        0.0636
     19 H          -4.9650   -4.7148    1.4808 H       1  UNL1        0.0655
     20 H          -7.1152   -1.6280   -2.4880 H       1  UNL1        0.0628
     21 H          -6.0390    0.8094   -2.0290 H       1  UNL1        0.0622
     22 H          -3.7749    1.8616   -2.2831 H       1  UNL1        0.0636
     23 H          -1.9947   -1.0903   -0.5634 H       1  UNL1        0.0616
     24 H          -2.8194    0.3665   -4.2076 H       1  UNL1        0.1423
     25 H          -2.6784   -1.2243   -3.8586 H       1  UNL1        0.1423
     26 H          -8.2175   -6.3174    1.5859 H       1  UNL1        0.1423
     27 H          -6.8968   -5.8324    2.4890 H       1  UNL1        0.1423
     28 H          -3.3152   -3.2543    0.1289 H       1  UNL1        0.1473
@<TRIPOS>BOND
     1     1     6   ar
     2     1     2   ar
     3     2     3   ar
     4     3     4   ar
     5     4     5   ar
     6     5    14    1
     7     5     6   ar
     8     6     7    1
     9     7     8    2
    10     8    13    1
    11     8     9    1
    12     9    10    2
    13    10    11    1
    14    11    12    2
    15    12    13    1
    16    13    14    1
    17    15    24    1
    18    15    25    1
    19    16    26    1
    20    16    27    1
    21     1    17    1
    22     2    18    1
    23     3    16    1
    24     4    19    1
    25     7    20    1
    26     9    21    1
    27    10    22    1
    28    11    15    1
    29    12    23    1
    30    14    28    1
