@<TRIPOS>MOLECULE
ZINC00004778
 34 37 0 0 0
SMALL
GASTEIGER

@<TRIPOS>ATOM
      1 C           3.2829    1.9521   -0.9343 C.3     1  UNL1       -0.0378
      2 C           2.7258    0.6427   -0.4473 C.ar    1  UNL1       -0.0244
      3 C           3.5213   -0.4966   -0.6180 C.ar    1  UNL1       -0.0388
      4 C           3.0518   -1.7198   -0.1760 C.ar    1  UNL1        0.0301
      5 N           1.8661   -1.8860    0.4392 N.ar    1  UNL1       -0.2380
      6 C           1.0608   -0.7990    0.5688 C.ar    1  UNL1        0.1485
      7 C           1.4500    0.4850    0.1231 C.ar    1  UNL1        0.0774
      8 N           0.6346    1.6203    0.3081 N.am    1  UNL1       -0.2784
      9 C          -0.7301    1.7217    0.3354 C.2     1  UNL1        0.2517
     10 O          -1.2402    2.8281    0.5135 O.2     1  UNL1       -0.2697
     11 C          -1.6108    0.5852    0.0124 C.ar    1  UNL1        0.0772
     12 C          -2.7621    0.8270   -0.7416 C.ar    1  UNL1       -0.0449
     13 C          -3.6366   -0.2221   -1.0036 C.ar    1  UNL1       -0.0427
     14 C          -3.3466   -1.4580   -0.4597 C.ar    1  UNL1        0.0297
     15 N          -2.2595   -1.7051    0.3030 N.ar    1  UNL1       -0.2392
     16 C          -1.3744   -0.6892    0.5131 C.ar    1  UNL1        0.1390
     17 N          -0.1844   -0.9346    1.2338 N.pl3   1  UNL1       -0.2649
     18 C          -0.2698   -1.7449    2.4538 C.3     1  UNL1        0.0314
     19 C           0.6207   -1.4944    3.6500 C.3     1  UNL1       -0.0322
     20 C          -0.8162   -1.0780    3.6996 C.3     1  UNL1       -0.0322
     21 H           4.1983    2.1916   -0.3832 H       1  UNL1        0.0278
     22 H           3.5150    1.8835   -2.0020 H       1  UNL1        0.0278
     23 H           2.6016    2.7963   -0.8141 H       1  UNL1        0.0278
     24 H           4.4944   -0.4338   -1.0963 H       1  UNL1        0.0636
     25 H           3.6379   -2.6247   -0.3100 H       1  UNL1        0.0830
     26 H           1.0763    2.5269    0.3578 H       1  UNL1        0.1552
     27 H          -2.9735    1.8202   -1.1215 H       1  UNL1        0.0627
     28 H          -4.5244   -0.0716   -1.6088 H       1  UNL1        0.0633
     29 H          -3.9968   -2.3115   -0.6301 H       1  UNL1        0.0830
     30 H          -0.5528   -2.7780    2.2652 H       1  UNL1        0.0505
     31 H           0.9187   -2.3439    4.2500 H       1  UNL1        0.0284
     32 H           1.3735   -0.7187    3.5760 H       1  UNL1        0.0284
     33 H          -1.0304   -0.0137    3.6550 H       1  UNL1        0.0284
     34 H          -1.5001   -1.6405    4.3206 H       1  UNL1        0.0284
@<TRIPOS>BOND
     1     1     2    1
     2     1    21    1
     3     1    22    1
     4     1    23    1
     5     2     7   ar
     6     2     3   ar
     7     3     4   ar
     8     3    24    1
     9     4     5   ar
    10     4    25    1
    11     5     6   ar
    12     6    17    1
    13     6     7   ar
    14     7     8    1
    15     8     9   am
    16     8    26    1
    17     9    10    2
    18     9    11    1
    19    11    16   ar
    20    11    12   ar
    21    12    13   ar
    22    12    27    1
    23    13    14   ar
    24    13    28    1
    25    14    15   ar
    26    14    29    1
    27    15    16   ar
    28    16    17    1
    29    17    18    1
    30    18    20    1
    31    18    19    1
    32    18    30    1
    33    19    20    1
    34    19    31    1
    35    19    32    1
    36    20    33    1
    37    20    34    1
