@<TRIPOS>MOLECULE
ZINC01530741
 42 44 0 0 0
SMALL
GASTEIGER

@<TRIPOS>ATOM
      1 C           1.2835    5.4560    1.7585 C.3     1  UNL1       -0.0449
      2 N           0.7213    4.2468    1.0900 N.4     1  UNL1        0.2250
      3 C           1.1873    4.0489   -0.3262 C.3     1  UNL1       -0.0304
      4 C           0.5592    2.7947   -0.9522 C.3     1  UNL1        0.0065
      5 C          -0.9480    2.8265   -1.0050 C.2     1  UNL1       -0.0707
      6 C          -1.7449    3.7237   -1.6440 C.2     1  UNL1       -0.0140
      7 C          -1.1306    4.8126   -2.4369 C.ar    1  UNL1       -0.0144
      8 C          -0.3569    4.5191   -3.5666 C.ar    1  UNL1       -0.0538
      9 C           0.2001    5.5376   -4.3322 C.ar    1  UNL1       -0.0612
     10 C          -0.0236    6.8692   -3.9834 C.ar    1  UNL1       -0.0615
     11 C          -0.7902    7.1752   -2.8604 C.ar    1  UNL1       -0.0580
     12 C          -1.3425    6.1556   -2.0731 C.ar    1  UNL1       -0.0393
     13 C          -2.2112    6.4898   -0.8902 C.3     1  UNL1       -0.0231
     14 C          -3.6726    6.1564   -1.1765 C.3     1  UNL1       -0.0231
     15 C          -4.0861    4.6986   -1.2746 C.ar    1  UNL1       -0.0393
     16 C          -3.2244    3.5943   -1.4822 C.ar    1  UNL1       -0.0144
     17 C          -3.8010    2.3107   -1.6040 C.ar    1  UNL1       -0.0538
     18 C          -5.1749    2.1043   -1.4994 C.ar    1  UNL1       -0.0612
     19 C          -6.0168    3.1887   -1.3060 C.ar    1  UNL1       -0.0615
     20 C          -5.4766    4.4675   -1.2071 C.ar    1  UNL1       -0.0580
     21 H           2.3655    5.3406    1.8469 H       1  UNL1        0.0777
     22 H           0.8288    5.5073    2.7563 H       1  UNL1        0.0777
     23 H           1.0180    6.3373    1.1755 H       1  UNL1        0.0777
     24 H           0.9311    3.4185    1.6435 H       1  UNL1        0.2011
     25 H           0.9114    4.9478   -0.8750 H       1  UNL1        0.0817
     26 H           2.2768    3.9685   -0.3110 H       1  UNL1        0.0817
     27 H           0.9715    2.6678   -1.9619 H       1  UNL1        0.0359
     28 H           0.8717    1.9007   -0.4031 H       1  UNL1        0.0359
     29 H          -1.4276    2.0164   -0.4519 H       1  UNL1        0.0580
     30 H          -0.2029    3.4845   -3.8746 H       1  UNL1        0.0624
     31 H           0.7830    5.2998   -5.2191 H       1  UNL1        0.0618
     32 H           0.3769    7.6660   -4.6048 H       1  UNL1        0.0618
     33 H          -0.9818    8.2222   -2.6257 H       1  UNL1        0.0620
     34 H          -1.8494    5.9725    0.0077 H       1  UNL1        0.0316
     35 H          -2.1272    7.5609   -0.6690 H       1  UNL1        0.0316
     36 H          -4.2585    6.6080   -0.3640 H       1  UNL1        0.0316
     37 H          -3.9814    6.6540   -2.1060 H       1  UNL1        0.0316
     38 H          -3.1804    1.4397   -1.8109 H       1  UNL1        0.0624
     39 H          -5.5876    1.1042   -1.5937 H       1  UNL1        0.0618
     40 H          -7.0927    3.0436   -1.2529 H       1  UNL1        0.0618
     41 H          -6.1621    5.3077   -1.0853 H       1  UNL1        0.0620
     42 H          -0.3028    4.3332    1.0745 H       1  UNL1        0.2011
@<TRIPOS>UNITY_ATOM_ATTR
2 1
charge 1
@<TRIPOS>BOND
     1     1     2    1
     2     1    21    1
     3     1    22    1
     4     1    23    1
     5     2     3    1
     6     2    24    1
     7     2    42    1
     8     3     4    1
     9     3    25    1
    10     3    26    1
    11     4     5    1
    12     4    27    1
    13     4    28    1
    14     5     6    2
    15     5    29    1
    16     6    16    1
    17     6     7    1
    18     7    12   ar
    19     7     8   ar
    20     8     9   ar
    21     8    30    1
    22     9    10   ar
    23     9    31    1
    24    10    11   ar
    25    10    32    1
    26    11    12   ar
    27    11    33    1
    28    12    13    1
    29    13    14    1
    30    13    34    1
    31    13    35    1
    32    14    15    1
    33    14    36    1
    34    14    37    1
    35    15    20   ar
    36    15    16   ar
    37    16    17   ar
    38    17    18   ar
    39    17    38    1
    40    18    19   ar
    41    18    39    1
    42    19    20   ar
    43    19    40    1
    44    20    41    1
