@<TRIPOS>MOLECULE
ZINC03834198
 55 58 0 0 0
SMALL
GASTEIGER

@<TRIPOS>ATOM
      1 C           6.0189    2.9528    6.3046 C.3     1  UNL1       -0.0431
      2 N           5.7115    2.1299    5.0836 N.4     1  UNL1        0.2331
      3 C           4.7326    2.8325    4.1721 C.3     1  UNL1       -0.0318
      4 C           4.3783    1.9208    3.0124 C.3     1  UNL1       -0.0064
      5 C           5.6384    1.4917    2.2449 C.3     1  UNL1        0.0028
      6 C           6.6036    0.7875    3.2060 C.3     1  UNL1       -0.0064
      7 C           6.9700    1.7090    4.3592 C.3     1  UNL1       -0.0318
      8 C           5.3156    0.6149    1.0276 C.3     1  UNL1        0.0929
      9 O           4.1886    1.0962    0.3181 O.3     1  UNL1       -0.4880
     10 C           4.1823    2.1937   -0.4871 C.ar    1  UNL1        0.1640
     11 C           5.2695    2.9684   -0.8802 C.ar    1  UNL1        0.0098
     12 C           5.0970    4.0739   -1.7219 C.ar    1  UNL1        0.0797
     13 C           3.8548    4.2942   -2.3490 C.ar    1  UNL1        0.0441
     14 C           2.7470    3.5187   -1.9303 C.ar    1  UNL1       -0.0038
     15 C           2.9037    2.5623   -0.9252 C.ar    1  UNL1        0.1623
     16 O           1.8811    1.9092   -0.2884 O.3     1  UNL1       -0.4914
     17 C           0.6235    2.5657   -0.2270 C.3     1  UNL1        0.0790
     18 C           3.8503    5.3056   -3.3417 C.ar    1  UNL1        0.1340
     19 N           4.8836    6.1535   -3.4776 N.ar    1  UNL1       -0.2200
     20 C           5.9476    5.9459   -2.7052 C.ar    1  UNL1        0.1187
     21 N           6.1365    4.8982   -1.8821 N.ar    1  UNL1       -0.2352
     22 N           2.7773    5.4296   -4.2629 N.pl3   1  UNL1       -0.2966
     23 C           2.8521    6.0203   -5.5595 C.ar    1  UNL1        0.0681
     24 C           4.0166    5.9438   -6.3424 C.ar    1  UNL1       -0.0367
     25 C           4.0662    6.4997   -7.6269 C.ar    1  UNL1       -0.0458
     26 C           2.9388    7.1232   -8.1547 C.ar    1  UNL1        0.0207
     27 C           1.7595    7.1871   -7.4108 C.ar    1  UNL1       -0.0106
     28 C           1.7274    6.6283   -6.1354 C.ar    1  UNL1        0.1455
     29 F           0.5825    6.6900   -5.4328 F       1  UNL1       -0.2035
     30 BR          3.0154    7.8825   -9.8847 Br      1  UNL1       -0.0502
     31 H           6.5453    3.8594    5.9940 H       1  UNL1        0.0777
     32 H           5.0729    3.1969    6.7972 H       1  UNL1        0.0777
     33 H           6.6368    2.3463    6.9710 H       1  UNL1        0.0777
     34 H           3.8433    3.0693    4.7646 H       1  UNL1        0.0814
     35 H           5.2018    3.7618    3.8300 H       1  UNL1        0.0814
     36 H           3.6835    2.4576    2.3601 H       1  UNL1        0.0321
     37 H           3.8447    1.0329    3.3830 H       1  UNL1        0.0321
     38 H           6.1228    2.4017    1.8718 H       1  UNL1        0.0337
     39 H           7.5129    0.4799    2.6803 H       1  UNL1        0.0321
     40 H           6.1410   -0.1248    3.6040 H       1  UNL1        0.0321
     41 H           7.4665    2.6204    4.0089 H       1  UNL1        0.0814
     42 H           7.6118    1.2003    5.0855 H       1  UNL1        0.0814
     43 H           6.1789    0.4568    0.3727 H       1  UNL1        0.0699
     44 H           5.0218   -0.3810    1.3874 H       1  UNL1        0.0699
     45 H           6.2732    2.7553   -0.5290 H       1  UNL1        0.0677
     46 H           1.7727    3.6949   -2.3712 H       1  UNL1        0.0663
     47 H           0.1444    2.5544   -1.2048 H       1  UNL1        0.0660
     48 H          -0.0044    1.9938    0.4622 H       1  UNL1        0.0660
     49 H           0.6995    3.5862    0.1701 H       1  UNL1        0.0660
     50 H           6.7273    6.7013   -2.7426 H       1  UNL1        0.1048
     51 H           1.9029    5.6567   -3.7990 H       1  UNL1        0.1537
     52 H           4.9075    5.4504   -5.9617 H       1  UNL1        0.0637
     53 H           4.9889    6.4410   -8.2002 H       1  UNL1        0.0629
     54 H           0.8704    7.6577   -7.8212 H       1  UNL1        0.0658
     55 H           5.2486    1.2749    5.4206 H       1  UNL1        0.2030
@<TRIPOS>UNITY_ATOM_ATTR
2 1
charge 1
@<TRIPOS>BOND
     1     1     2    1
     2     1    31    1
     3     1    32    1
     4     1    33    1
     5     2     7    1
     6     2     3    1
     7     2    55    1
     8     3     4    1
     9     3    34    1
    10     3    35    1
    11     4     5    1
    12     4    36    1
    13     4    37    1
    14     5     6    1
    15     6     7    1
    16     6    39    1
    17     6    40    1
    18     7    41    1
    19     7    42    1
    20     8     9    1
    21     8    43    1
    22     8    44    1
    23     9    10    1
    24    10    15   ar
    25    10    11   ar
    26    11    12   ar
    27    11    45    1
    28    12    21   ar
    29    12    13   ar
    30    13    14   ar
    31    13    18   ar
    32    14    15   ar
    33    14    46    1
    34    15    16    1
    35    16    17    1
    36    17    47    1
    37    17    48    1
    38    17    49    1
    39    18    19   ar
    40    18    22    1
    41    19    20   ar
    42    20    21   ar
    43    20    50    1
    44    22    23    1
    45    22    51    1
    46    23    28   ar
    47    23    24   ar
    48    24    25   ar
    49    24    52    1
    50    25    26   ar
    51    25    53    1
    52    26    27   ar
    53    26    30    1
    54    27    28   ar
    55    27    54    1
    56    28    29    1
    57     5    38    1
    58     5     8    1
