@<TRIPOS>MOLECULE
ZINC00004760
 51 53 0 0 0
SMALL
GASTEIGER

@<TRIPOS>ATOM
      1 C          -4.3398    2.5401    3.3574 C.ar    1  UNL1       -0.0617
      2 C          -5.1451    1.6489    2.6546 C.ar    1  UNL1       -0.0614
      3 C          -4.6409    0.9838    1.5372 C.ar    1  UNL1       -0.0558
      4 C          -3.3216    1.1967    1.0830 C.ar    1  UNL1       -0.0157
      5 C          -2.5260    2.0945    1.8181 C.ar    1  UNL1       -0.0558
      6 C          -3.0276    2.7567    2.9432 C.ar    1  UNL1       -0.0614
      7 C          -2.8148    0.5434   -0.2067 C.3     1  UNL1        0.0985
      8 C          -1.3175    0.1091   -0.1384 C.3     1  UNL1        0.0208
      9 C          -0.9307   -0.8609    0.9913 C.3     1  UNL1       -0.0289
     10 N          -1.7422   -2.1292    0.9918 N.4     1  UNL1        0.2353
     11 C          -1.6019   -2.9486    2.2492 C.3     1  UNL1       -0.0317
     12 C          -0.6093   -4.0249    1.8677 C.3     1  UNL1       -0.0077
     13 C          -0.9736   -4.3588    0.4358 C.3     1  UNL1       -0.0077
     14 C          -1.4912   -3.0652   -0.1707 C.3     1  UNL1       -0.0317
     15 C          -3.0613    1.4513   -1.4887 C.3     1  UNL1       -0.0078
     16 C          -4.5595    1.7024   -1.7955 C.3     1  UNL1       -0.0473
     17 C          -4.7948    2.6387   -2.9800 C.3     1  UNL1       -0.0527
     18 C          -4.0574    3.9561   -2.8021 C.3     1  UNL1       -0.0530
     19 C          -2.5667    3.7038   -2.6390 C.3     1  UNL1       -0.0527
     20 C          -2.2864    2.7915   -1.4463 C.3     1  UNL1       -0.0473
     21 O          -3.5125   -0.7160   -0.3601 O.3     1  UNL1       -0.3835
     22 H          -4.7364    3.0812    4.2126 H       1  UNL1        0.0618
     23 H          -6.1765    1.4999    2.9629 H       1  UNL1        0.0618
     24 H          -5.3228    0.3244    1.0092 H       1  UNL1        0.0621
     25 H          -1.5129    2.3395    1.5095 H       1  UNL1        0.0621
     26 H          -2.4046    3.4711    3.4774 H       1  UNL1        0.0618
     27 H          -1.0513   -0.3630   -1.0923 H       1  UNL1        0.0348
     28 H          -0.6599    0.9822   -0.0486 H       1  UNL1        0.0348
     29 H           0.1229   -1.1494    0.9096 H       1  UNL1        0.0815
     30 H          -1.0719   -0.3869    1.9669 H       1  UNL1        0.0815
     31 H          -2.5908   -3.3642    2.4688 H       1  UNL1        0.0814
     32 H          -1.2674   -2.3211    3.0803 H       1  UNL1        0.0814
     33 H           0.4157   -3.6403    1.9193 H       1  UNL1        0.0319
     34 H          -0.6741   -4.8990    2.5230 H       1  UNL1        0.0319
     35 H          -0.1165   -4.7493   -0.1223 H       1  UNL1        0.0319
     36 H          -1.7561   -5.1261    0.4081 H       1  UNL1        0.0319
     37 H          -0.7748   -2.6096   -0.8575 H       1  UNL1        0.0814
     38 H          -2.4500   -3.2202   -0.6781 H       1  UNL1        0.0814
     39 H          -2.6799    0.8861   -2.3520 H       1  UNL1        0.0332
     40 H          -5.0662    0.7579   -2.0234 H       1  UNL1        0.0269
     41 H          -5.0582    2.1350   -0.9233 H       1  UNL1        0.0269
     42 H          -5.8692    2.8309   -3.0836 H       1  UNL1        0.0265
     43 H          -4.4657    2.1537   -3.9061 H       1  UNL1        0.0265
     44 H          -4.4449    4.4840   -1.9214 H       1  UNL1        0.0265
     45 H          -4.2352    4.6046   -3.6669 H       1  UNL1        0.0265
     46 H          -2.0477    4.6589   -2.4966 H       1  UNL1        0.0265
     47 H          -2.1639    3.2539   -3.5540 H       1  UNL1        0.0265
     48 H          -2.5496    3.3510   -0.5433 H       1  UNL1        0.0269
     49 H          -1.2078    2.6073   -1.4083 H       1  UNL1        0.0269
     50 H          -4.4033   -0.5209   -0.7028 H       1  UNL1        0.2106
     51 H          -2.7245   -1.8069    0.8960 H       1  UNL1        0.2033
@<TRIPOS>UNITY_ATOM_ATTR
10 1
charge 1
@<TRIPOS>BOND
     1     1     6   ar
     2     1     2   ar
     3     1    22    1
     4     2     3   ar
     5     2    23    1
     6     3     4   ar
     7     3    24    1
     8     4     5   ar
     9     5     6   ar
    10     5    25    1
    11     6    26    1
    12     7    15    1
    13     7    21    1
    14     8     9    1
    15     8    27    1
    16     8    28    1
    17     9    10    1
    18     9    29    1
    19     9    30    1
    20    10    14    1
    21    10    11    1
    22    10    51    1
    23    11    12    1
    24    11    31    1
    25    11    32    1
    26    12    13    1
    27    12    33    1
    28    12    34    1
    29    13    14    1
    30    13    35    1
    31    13    36    1
    32    14    37    1
    33    14    38    1
    34    15    20    1
    35    15    16    1
    36    15    39    1
    37    16    17    1
    38    16    40    1
    39    16    41    1
    40    17    18    1
    41    17    42    1
    42    17    43    1
    43    18    19    1
    44    18    44    1
    45    18    45    1
    46    19    20    1
    47    19    46    1
    48    19    47    1
    49    20    48    1
    50    20    49    1
    51    21    50    1
    52     7     8    1
    53     7     4    1
