@<TRIPOS>MOLECULE
ZINC03813003
 32 34 0 0 0
SMALL
GASTEIGER

@<TRIPOS>ATOM
      1 C           2.0378    0.3510    0.5883 C.ar    1  UNL1       -0.0611
      2 C           1.5357    1.3737   -0.2063 C.ar    1  UNL1       -0.0603
      3 C           0.4266    1.1366   -1.0149 C.ar    1  UNL1       -0.0427
      4 C          -0.2304   -0.1034   -0.9879 C.ar    1  UNL1        0.0501
      5 C           0.2417   -1.1346   -0.1515 C.ar    1  UNL1        0.0189
      6 C           1.4212   -0.9037    0.5853 C.ar    1  UNL1       -0.0512
      7 C          -0.5050   -2.4442    0.0350 C.2     1  UNL1        0.0765
      8 N          -1.1320   -2.9106   -0.9859 N.2     1  UNL1       -0.2733
      9 C          -2.0013   -4.0720   -0.8646 C.3     1  UNL1        0.1167
     10 C          -1.1843   -5.3303   -0.6832 C.2     1  UNL1        0.2386
     11 O          -1.2325   -6.2772   -1.4678 O.2     1  UNL1       -0.2734
     12 N          -0.4686   -5.4547    0.4773 N.am    1  UNL1       -0.2834
     13 C          -0.3491   -4.5215    1.5198 C.ar    1  UNL1        0.0428
     14 C          -0.4750   -3.1239    1.3818 C.ar    1  UNL1        0.0238
     15 C          -0.4227   -2.3160    2.5338 C.ar    1  UNL1       -0.0246
     16 C          -0.1278   -2.8810    3.7835 C.ar    1  UNL1        0.0759
     17 C           0.0462   -4.2595    3.9135 C.ar    1  UNL1       -0.0337
     18 C          -0.0720   -5.0713    2.7828 C.ar    1  UNL1       -0.0378
     19 N           0.0752   -2.0078    4.9438 N.pl3   1  UNL1       -0.1866
     20 O           0.0668   -0.7828    4.7508 O.2     1  UNL1       -0.1726
     21 O           0.2698   -2.5461    6.0422 O.co2   1  UNL1       -0.7770
     22 CL         -1.6481   -0.2073   -1.9756 Cl      1  UNL1       -0.0829
     23 H           2.9044    0.5324    1.2209 H       1  UNL1        0.0618
     24 H           2.0053    2.3547   -0.2014 H       1  UNL1        0.0618
     25 H           0.0558    1.9363   -1.6530 H       1  UNL1        0.0632
     26 H           1.8647   -1.6845    1.1980 H       1  UNL1        0.0625
     27 H          -2.7229   -3.9653   -0.0443 H       1  UNL1        0.0605
     28 H          -2.5881   -4.1683   -1.7827 H       1  UNL1        0.0605
     29 H          -0.1339   -6.4011    0.6159 H       1  UNL1        0.1549
     30 H          -0.5568   -1.2381    2.4510 H       1  UNL1        0.0646
     31 H           0.2741   -4.7166    4.8752 H       1  UNL1        0.0640
     32 H           0.0366   -6.1483    2.9067 H       1  UNL1        0.0637
@<TRIPOS>UNITY_ATOM_ATTR
21 1
charge -1
@<TRIPOS>BOND
     1     1     6   ar
     2     1     2   ar
     3     1    23    1
     4     2     3   ar
     5     2    24    1
     6     3     4   ar
     7     3    25    1
     8     4     5   ar
     9     4    22    1
    10     5     6   ar
    11     5     7    1
    12     6    26    1
    13     7    14    1
    14     7     8    2
    15     8     9    1
    16     9    10    1
    17     9    27    1
    18     9    28    1
    19    10    11    2
    20    10    12   am
    21    12    13    1
    22    12    29    1
    23    13    18   ar
    24    13    14   ar
    25    14    15   ar
    26    15    16   ar
    27    15    30    1
    28    16    17   ar
    29    16    19    1
    30    17    18   ar
    31    17    31    1
    32    18    32    1
    33    19    20    2
    34    19    21    1
