@<TRIPOS>MOLECULE
ZINC03871698
 39 41 0 0 0
SMALL
GASTEIGER

@<TRIPOS>ATOM
      1 C           2.4207   -1.2731    0.9447 C.ar    1  UNL1       -0.0617
      2 C           1.6797   -1.3008   -0.2346 C.ar    1  UNL1       -0.0615
      3 C           0.3597   -0.8512   -0.2395 C.ar    1  UNL1       -0.0578
      4 C          -0.2364   -0.3659    0.9342 C.ar    1  UNL1       -0.0375
      5 C           0.5167   -0.3495    2.1179 C.ar    1  UNL1       -0.0578
      6 C           1.8406   -0.7975    2.1202 C.ar    1  UNL1       -0.0615
      7 C          -1.6945    0.0359    0.9234 C.3     1  UNL1        0.0193
      8 S          -2.7343   -1.4395    1.1028 S.3     1  UNL1       -0.1436
      9 C          -4.3961   -0.6946    0.9110 C.3     1  UNL1        0.1033
     10 C          -5.3809   -1.5542    1.6915 C.2     1  UNL1        0.3682
     11 N          -5.1729   -1.6105    2.9765 N.2     1  UNL1        0.0953
     12 S          -6.2541   -2.3464    3.8908 S.O2    1  UNL1        0.1827
     13 O          -6.1284   -3.7984    3.8341 O.2     1  UNL1       -0.1250
     14 O          -6.3588   -1.6882    5.1855 O.2     1  UNL1       -0.1250
     15 C          -7.6821   -1.8866    2.9701 C.ar    1  UNL1        0.1849
     16 C          -8.6028   -0.9371    3.3571 C.ar    1  UNL1       -0.0009
     17 C          -9.6990   -0.7530    2.5180 C.ar    1  UNL1        0.1254
     18 C          -9.9334   -1.6818    1.5136 C.ar    1  UNL1        0.0713
     19 C          -8.8330   -2.3859    1.0158 C.ar    1  UNL1        0.0094
     20 C          -7.5981   -2.1870    1.6234 C.ar    1  UNL1        0.1965
     21 N          -6.3951   -2.1235    0.9804 N.pl3   1  UNL1       -0.0070
     22 CL        -11.5033   -2.0418    0.9083 Cl      1  UNL1       -0.0814
     23 S         -10.5320    0.7806    2.5843 S.O2    1  UNL1        0.0574
     24 O         -11.6399    0.8472    1.6609 O.2     1  UNL1       -0.1532
     25 O         -10.6865    1.1888    3.9588 O.2     1  UNL1       -0.1532
     26 N          -9.3901    1.8506    1.9005 N.3     1  UNL1       -0.2035
     27 H           3.4426   -1.6407    0.9513 H       1  UNL1        0.0618
     28 H           2.1180   -1.6930   -1.1474 H       1  UNL1        0.0618
     29 H          -0.2236   -0.9127   -1.1558 H       1  UNL1        0.0621
     30 H           0.0657   -0.0168    3.0507 H       1  UNL1        0.0621
     31 H           2.4118   -0.7960    3.0448 H       1  UNL1        0.0618
     32 H          -1.8909    0.7632    1.7207 H       1  UNL1        0.0425
     33 H          -1.9299    0.5234   -0.0287 H       1  UNL1        0.0425
     34 H          -4.4033    0.3027    1.3778 H       1  UNL1        0.0502
     35 H          -4.6529   -0.5808   -0.1437 H       1  UNL1        0.0502
     36 H          -8.3800   -0.2813    4.1926 H       1  UNL1        0.0659
     37 H          -8.9272   -3.0380    0.1538 H       1  UNL1        0.0675
     38 H          -8.9889    1.4531    1.0469 H       1  UNL1        0.1442
     39 H          -9.8460    2.7413    1.6955 H       1  UNL1        0.1442
@<TRIPOS>BOND
     1     1     6   ar
     2     1     2   ar
     3     1    27    1
     4     2     3   ar
     5     2    28    1
     6     3     4   ar
     7     3    29    1
     8     4     5   ar
     9     4     7    1
    10     5     6   ar
    11     5    30    1
    12     6    31    1
    13     7     8    1
    14     7    32    1
    15     7    33    1
    16     8     9    1
    17     9    10    1
    18     9    34    1
    19     9    35    1
    20    10    21    1
    21    10    11    2
    22    11    12    1
    23    12    13    2
    24    12    14    2
    25    12    15    1
    26    15    20   ar
    27    15    16   ar
    28    16    17   ar
    29    16    36    1
    30    17    18   ar
    31    17    23    1
    32    18    19   ar
    33    18    22    1
    34    19    20   ar
    35    19    37    1
    36    20    21    1
    37    23    24    2
    38    23    25    2
    39    23    26    1
    40    26    38    1
    41    26    39    1
