@<TRIPOS>MOLECULE
ZINC01530776
 38 39 0 0 0
SMALL
GASTEIGER

@<TRIPOS>ATOM
      1 C           3.2478    2.9908   -1.3732 C.3     1  UNL1       -0.0061
      2 C           2.3777    2.0101   -2.1333 C.2     1  UNL1        0.1303
      3 O           1.3517    2.3857   -2.6639 O.2     1  UNL1       -0.2977
      4 C           2.8456    0.5557   -2.1949 C.3     1  UNL1        0.0056
      5 C           1.8846   -0.3247   -3.0023 C.3     1  UNL1       -0.0448
      6 C           2.2883   -1.8160   -3.1249 C.3     1  UNL1       -0.0343
      7 C           2.3937   -2.5545   -1.7858 C.3     1  UNL1        0.0310
      8 N           2.7868   -3.9629   -1.8753 N.ar    1  UNL1       -0.2591
      9 C           4.1471   -4.2397   -2.0331 C.ar    1  UNL1        0.2824
     10 O           5.0107   -3.3756   -2.1627 O.2     1  UNL1       -0.2652
     11 C           4.4284   -5.6338   -2.0546 C.ar    1  UNL1        0.1512
     12 C           3.4914   -6.5866   -1.7623 C.ar    1  UNL1        0.1678
     13 N           3.9954   -7.8437   -1.8405 N.ar    1  UNL1       -0.2177
     14 C           5.2351   -7.6693   -2.2562 C.ar    1  UNL1        0.0986
     15 N           5.5511   -6.3396   -2.3690 N.ar    1  UNL1       -0.3277
     16 C           6.8107   -5.7945   -2.8071 C.3     1  UNL1        0.0135
     17 N           2.1853   -6.2401   -1.5357 N.ar    1  UNL1       -0.2796
     18 C           1.7945   -4.9588   -1.9357 C.ar    1  UNL1        0.3333
     19 O           0.6472   -4.7369   -2.3222 O.2     1  UNL1       -0.2462
     20 C           1.1628   -7.2141   -1.2336 C.3     1  UNL1        0.0181
     21 H           2.6654    3.8925   -1.1585 H       1  UNL1        0.0306
     22 H           4.1079    3.2787   -1.9813 H       1  UNL1        0.0306
     23 H           3.5694    2.5556   -0.4239 H       1  UNL1        0.0306
     24 H           3.8683    0.5168   -2.5880 H       1  UNL1        0.0341
     25 H           2.8645    0.1905   -1.1626 H       1  UNL1        0.0341
     26 H           0.8955   -0.2429   -2.5304 H       1  UNL1        0.0270
     27 H           1.7626    0.0873   -4.0158 H       1  UNL1        0.0270
     28 H           1.5618   -2.3232   -3.7766 H       1  UNL1        0.0283
     29 H           3.2408   -1.8937   -3.6622 H       1  UNL1        0.0283
     30 H           3.1356   -2.0472   -1.1569 H       1  UNL1        0.0494
     31 H           1.4396   -2.4996   -1.2495 H       1  UNL1        0.0494
     32 H           5.9285   -8.4621   -2.5023 H       1  UNL1        0.1029
     33 H           6.6403   -5.2021   -3.7096 H       1  UNL1        0.0456
     34 H           7.2149   -5.1718   -2.0053 H       1  UNL1        0.0456
     35 H           7.5031   -6.6111   -3.0271 H       1  UNL1        0.0456
     36 H           0.9279   -7.7877   -2.1320 H       1  UNL1        0.0458
     37 H           1.5005   -7.8697   -0.4238 H       1  UNL1        0.0458
     38 H           0.2539   -6.7047   -0.8915 H       1  UNL1        0.0458
@<TRIPOS>BOND
     1     1     2    1
     2     1    21    1
     3     1    22    1
     4     1    23    1
     5     2     3    2
     6     2     4    1
     7     4     5    1
     8     4    24    1
     9     4    25    1
    10     5     6    1
    11     5    26    1
    12     5    27    1
    13     6     7    1
    14     6    28    1
    15     6    29    1
    16     7     8    1
    17     7    30    1
    18     7    31    1
    19     8    18   ar
    20     8     9   ar
    21     9    10    2
    22     9    11   ar
    23    11    15   ar
    24    11    12   ar
    25    12    13   ar
    26    12    17   ar
    27    13    14   ar
    28    14    15   ar
    29    14    32    1
    30    15    16    1
    31    16    33    1
    32    16    34    1
    33    16    35    1
    34    17    18   ar
    35    17    20    1
    36    18    19    2
    37    20    36    1
    38    20    37    1
    39    20    38    1
