@<TRIPOS>MOLECULE
ZINC00897234
 28 29 0 0 0
SMALL
GASTEIGER

@<TRIPOS>ATOM
      1 C           1.6080    0.9204   -0.1524 C.ar    1  UNL1       -0.0186
      2 C           0.2117    0.8356   -0.1726 C.ar    1  UNL1        0.0565
      3 C          -0.3527   -0.4393   -0.2084 C.ar    1  UNL1        0.1280
      4 C           0.4247   -1.6019   -0.1468 C.ar    1  UNL1       -0.0057
      5 C           1.8174   -1.4883   -0.0768 C.ar    1  UNL1        0.1252
      6 C           2.4139   -0.2256   -0.0857 C.ar    1  UNL1        0.0691
      7 CL          4.1206    0.0407   -0.0245 Cl      1  UNL1       -0.0815
      8 S           2.7904   -2.9512    0.0716 S.O2    1  UNL1        0.0574
      9 O           3.6769   -2.8193    1.2005 O.2     1  UNL1       -0.1532
     10 O           1.9279   -4.1011   -0.0877 O.2     1  UNL1       -0.1532
     11 N           3.7331   -2.9144   -1.3172 N.3     1  UNL1       -0.2035
     12 S          -2.1027   -0.5958   -0.2636 S.O2    1  UNL1        0.0619
     13 O          -2.5192   -1.0280    1.0489 O.2     1  UNL1       -0.1529
     14 O          -2.4508   -1.3102   -1.4702 O.2     1  UNL1       -0.1529
     15 N          -2.6328    0.9694   -0.4744 N.3     1  UNL1       -0.1673
     16 C          -1.9057    1.9979    0.2486 C.3     1  UNL1        0.1215
     17 H          -2.3535    2.9517   -0.0592 H       1  UNL1        0.0709
     18 N          -0.5395    2.0090   -0.2771 N.pl3   1  UNL1       -0.3238
     19 C          -1.9810    1.9406    1.8100 C.3     1  UNL1        0.1405
     20 CL         -1.0034    3.2845    2.5130 Cl      1  UNL1       -0.1012
     21 CL         -3.6578    2.1094    2.3987 Cl      1  UNL1       -0.1012
     22 H           2.0876    1.8978   -0.1695 H       1  UNL1        0.0652
     23 H          -0.0593   -2.5796   -0.1446 H       1  UNL1        0.0658
     24 H           4.6787   -2.5985   -1.0955 H       1  UNL1        0.1442
     25 H           3.7022   -3.8245   -1.7790 H       1  UNL1        0.1442
     26 H          -2.7967    1.1773   -1.4576 H       1  UNL1        0.1502
     27 H          -0.0283    2.8349    0.0413 H       1  UNL1        0.1477
     28 H          -1.5633    1.0196    2.2222 H       1  UNL1        0.0667
@<TRIPOS>BOND
     1     1     6   ar
     2     1     2   ar
     3     1    22    1
     4     2    18    1
     5     2     3   ar
     6     3     4   ar
     7     3    12    1
     8     4     5   ar
     9     4    23    1
    10     5     6   ar
    11     5     8    1
    12     6     7    1
    13     8     9    2
    14     8    10    2
    15     8    11    1
    16    11    24    1
    17    11    25    1
    18    12    13    2
    19    12    14    2
    20    12    15    1
    21    15    16    1
    22    15    26    1
    23    16    18    1
    24    18    27    1
    25    19    20    1
    26    19    21    1
    27    19    28    1
    28    16    19    1
    29    16    17    1
