@<TRIPOS>MOLECULE
ZINC01530617
 55 56 0 0 0
SMALL
GASTEIGER

@<TRIPOS>ATOM
      1 C          -2.8305    1.0038   -2.4157 C.3     1  UNL1       -0.0218
      2 C          -1.3019    0.9232   -2.3255 C.3     1  UNL1       -0.0264
      3 C          -0.7305    2.3321   -2.4779 C.3     1  UNL1       -0.0218
      4 N          -0.8978    0.2707   -0.9837 N.4     1  UNL1        0.2388
      5 C          -1.4857   -1.1498   -0.7935 C.3     1  UNL1       -0.0298
      6 C          -1.0337   -2.1377   -1.8740 C.3     1  UNL1        0.0110
      7 C          -1.5887   -3.6089   -1.7414 C.3     1  UNL1        0.1181
      8 C          -3.1393   -3.5556   -1.8097 C.ar    1  UNL1       -0.0265
      9 C          -3.9669   -4.0657   -0.7957 C.ar    1  UNL1       -0.0572
     10 C          -5.3568   -4.1274   -0.9693 C.ar    1  UNL1       -0.0615
     11 C          -5.9461   -3.6600   -2.1395 C.ar    1  UNL1       -0.0617
     12 C          -5.1526   -3.1067   -3.1373 C.ar    1  UNL1       -0.0615
     13 C          -3.7663   -3.0524   -2.9706 C.ar    1  UNL1       -0.0572
     14 C          -0.9956   -4.4537   -2.9053 C.ar    1  UNL1        0.0607
     15 C          -1.6966   -5.5230   -3.4769 C.ar    1  UNL1       -0.0390
     16 C          -1.1011   -6.2725   -4.4888 C.ar    1  UNL1       -0.0586
     17 C           0.1872   -5.9631   -4.8972 C.ar    1  UNL1       -0.0436
     18 C           0.8286   -4.9083   -4.2772 C.ar    1  UNL1        0.0279
     19 N           0.2681   -4.1518   -3.3049 N.ar    1  UNL1       -0.2585
     20 C          -1.0100   -4.2007   -0.4194 C.2     1  UNL1        0.2271
     21 O          -0.4254   -3.5191    0.4244 O.2     1  UNL1       -0.2746
     22 N          -1.1977   -5.5220   -0.1458 N.am    1  UNL1       -0.3283
     23 C           0.5696    0.4713   -0.5371 C.3     1  UNL1       -0.0264
     24 C           0.8230   -0.0739    0.8710 C.3     1  UNL1       -0.0218
     25 C           1.6017   -0.0621   -1.5221 C.3     1  UNL1       -0.0218
     26 H          -3.2516    1.5547   -1.5678 H       1  UNL1        0.0284
     27 H          -3.2978    0.0168   -2.4517 H       1  UNL1        0.0284
     28 H          -3.1368    1.5170   -3.3344 H       1  UNL1        0.0284
     29 H          -0.9076    0.2951   -3.1281 H       1  UNL1        0.0846
     30 H          -0.9053    2.9470   -1.5893 H       1  UNL1        0.0284
     31 H           0.3449    2.3095   -2.6850 H       1  UNL1        0.0284
     32 H          -1.1937    2.8416   -3.3317 H       1  UNL1        0.0284
     33 H          -1.2425   -1.4433    0.2250 H       1  UNL1        0.0815
     34 H          -2.5717   -1.0292   -0.7916 H       1  UNL1        0.0815
     35 H          -1.2996   -1.7508   -2.8631 H       1  UNL1        0.0334
     36 H           0.0557   -2.1823   -1.8571 H       1  UNL1        0.0334
     37 H          -3.5675   -4.4637    0.1324 H       1  UNL1        0.0621
     38 H          -5.9819   -4.5683   -0.1929 H       1  UNL1        0.0618
     39 H          -7.0225   -3.7411   -2.2809 H       1  UNL1        0.0618
     40 H          -5.6094   -2.7494   -4.0578 H       1  UNL1        0.0618
     41 H          -3.1783   -2.6624   -3.8034 H       1  UNL1        0.0621
     42 H          -2.7013   -5.7876   -3.1586 H       1  UNL1        0.0636
     43 H          -1.6411   -7.0946   -4.9519 H       1  UNL1        0.0619
     44 H           0.6798   -6.5342   -5.6765 H       1  UNL1        0.0633
     45 H           1.8447   -4.6364   -4.5513 H       1  UNL1        0.0829
     46 H          -1.4222   -6.1958   -0.8718 H       1  UNL1        0.1450
     47 H          -0.7265   -5.8880    0.6735 H       1  UNL1        0.1450
     48 H           0.6923    1.5578   -0.4684 H       1  UNL1        0.0846
     49 H           0.7159   -1.1598    0.9269 H       1  UNL1        0.0284
     50 H           1.8512    0.1471    1.1809 H       1  UNL1        0.0284
     51 H           0.1526    0.3853    1.6039 H       1  UNL1        0.0284
     52 H           1.3802    0.2028   -2.5578 H       1  UNL1        0.0284
     53 H           2.5822    0.3682   -1.2830 H       1  UNL1        0.0284
     54 H           1.7284   -1.1440   -1.4502 H       1  UNL1        0.0284
     55 H          -1.4093    0.8188   -0.2792 H       1  UNL1        0.2038
@<TRIPOS>UNITY_ATOM_ATTR
4 1
charge 1
@<TRIPOS>BOND
     1     1     2    1
     2     1    26    1
     3     1    27    1
     4     1    28    1
     5     2     3    1
     6     2     4    1
     7     2    29    1
     8     3    30    1
     9     3    31    1
    10     3    32    1
    11     4     5    1
    12     4    23    1
    13     4    55    1
    14     5     6    1
    15     5    33    1
    16     5    34    1
    17     6     7    1
    18     6    35    1
    19     6    36    1
    20     7     8    1
    21     7    14    1
    22     7    20    1
    23     8    13   ar
    24     8     9   ar
    25     9    10   ar
    26     9    37    1
    27    10    11   ar
    28    10    38    1
    29    11    12   ar
    30    11    39    1
    31    12    13   ar
    32    12    40    1
    33    13    41    1
    34    14    19   ar
    35    14    15   ar
    36    15    16   ar
    37    15    42    1
    38    16    17   ar
    39    16    43    1
    40    17    18   ar
    41    17    44    1
    42    18    19   ar
    43    18    45    1
    44    20    21    2
    45    20    22   am
    46    22    46    1
    47    22    47    1
    48    23    24    1
    49    23    25    1
    50    23    48    1
    51    24    49    1
    52    24    50    1
    53    24    51    1
    54    25    52    1
    55    25    53    1
    56    25    54    1
