@<TRIPOS>MOLECULE
ZINC03861768
 30 31 0 0 0
SMALL
GASTEIGER

@<TRIPOS>ATOM
      1 C           0.2361   -1.1162    0.4987 C.2     1  UNL1        0.1332
      2 N           1.1822   -0.2113    0.4569 N.2     1  UNL1       -0.2402
      3 C           0.9307    1.0180   -0.1558 C.2     1  UNL1        0.3752
      4 N          -0.1974    1.3160   -0.6738 N.am    1  UNL1        0.0130
      5 C          -1.1933    0.3907   -0.6253 C.2     1  UNL1        0.4091
      6 O          -2.3178    0.6054   -1.0424 O.2     1  UNL1       -0.2295
      7 N          -0.9337   -0.8705   -0.0269 N.am    1  UNL1       -0.1896
      8 C1*        -2.0125   -1.8643   -0.0615 C.3     1  UNL1        0.1649
      9 H1*        -2.9940   -1.3793   -0.0256 H       1  UNL1        0.0842
     10 C2*        -1.8535   -2.7910   -1.2715 C.3     1  UNL1        0.1267
     11 H2*        -0.7961   -3.0203   -1.4338 H       1  UNL1        0.0663
     12 C3*        -2.5831   -4.0336   -0.7877 C.3     1  UNL1        0.1133
     13 H3*        -2.2831   -4.9372   -1.3267 H       1  UNL1        0.0647
     14 C4*        -2.2619   -4.0556    0.7117 C.3     1  UNL1        0.1124
     15 H4*        -3.1326   -4.3523    1.3063 H       1  UNL1        0.0646
     16 O4*        -1.9110   -2.6997    1.1026 O.3     1  UNL1       -0.3473
     17 C5*        -1.0751   -4.9646    1.0422 C.3     1  UNL1        0.0730
     18 O5*         0.0886   -4.5196    0.3386 O.3     1  UNL1       -0.3924
     19 O3*        -3.9839   -3.8538   -1.0074 O.3     1  UNL1       -0.3864
     20 O2*        -2.3394   -2.2565   -2.4938 O.3     1  UNL1       -0.3849
     21 N           1.9974    1.8489   -0.1636 N.pl3   1  UNL1       -0.2511
     22 H           0.4546   -2.0724    0.9602 H       1  UNL1        0.1169
     23 H5*1       -0.8511   -4.9180    2.1129 H       1  UNL1        0.0584
     24 H5*2       -1.2841   -6.0072    0.7772 H       1  UNL1        0.0584
     25 H5*         0.2219   -5.1249   -0.4159 H       1  UNL1        0.2095
     26 H3*        -4.4483   -4.6728   -0.7447 H       1  UNL1        0.2100
     27 H2*        -3.0749   -2.8249   -2.7998 H       1  UNL1        0.2101
     28 H           1.7766    2.8016   -0.4490 H       1  UNL1        0.2412
     29 H           2.6709    1.8210    0.5910 H       1  UNL1        0.2412
     30 H           2.0845   -0.4389    0.8508 H       1  UNL1        0.2651
@<TRIPOS>BOND
     1     1     7    1
     2     1     2    2
     3     1    22    1
     4     2     3    1
     5     2    30    1
     6     3     4    2
     7     3    21    1
     8     4     5    1
     9     5     6    2
    10     5     7   am
    11     7     8    1
    12     8     9    1
    13     8    16    1
    14     8    10    1
    15    10    11    1
    16    10    12    1
    17    10    20    1
    18    12    13    1
    19    12    14    1
    20    12    19    1
    21    14    15    1
    22    14    16    1
    23    14    17    1
    24    17    18    1
    25    17    23    1
    26    17    24    1
    27    18    25    1
    28    19    26    1
    29    20    27    1
    30    21    28    1
    31    21    29    1
