@<TRIPOS>MOLECULE
ZINC00000596
 49 51 0 0 0
SMALL
GASTEIGER

@<TRIPOS>ATOM
      1 C           1.4287    0.4352   -0.0135 C.3     1  UNL1       -0.0565
      2 C           0.4943    1.4007    0.7347 C.3     1  UNL1        0.0091
      3 H          -0.4791    0.9525    0.4781 H       1  UNL1        0.0361
      4 C           0.6444    1.3668    2.2595 C.3     1  UNL1       -0.0131
      5 H           0.5189    0.3434    2.6395 H       1  UNL1        0.0857
      6 C           2.0534    1.8816    2.6121 C.3     1  UNL1        0.0161
      7 C           2.1918    3.3247    2.2243 C.ar    1  UNL1       -0.0381
      8 C           2.9779    4.1652    3.0304 C.ar    1  UNL1       -0.0547
      9 C           2.7899    5.5480    2.9877 C.ar    1  UNL1       -0.0199
     10 C           1.8611    6.0668    2.1086 C.ar    1  UNL1        0.1172
     11 C           1.2220    5.2498    1.1717 C.ar    1  UNL1       -0.0162
     12 C           1.3678    3.8483    1.2113 C.ar    1  UNL1       -0.0340
     13 C           0.4770    2.9144    0.3470 C.3     1  UNL1        0.0058
     14 C          -1.0127    3.2938    0.5909 C.3     1  UNL1       -0.0027
     15 C          -1.6172    2.6084    1.8350 C.3     1  UNL1       -0.0305
     16 C          -0.3904    3.2967    3.8625 C.3     1  UNL1       -0.0125
     17 C           0.2739    2.9913    5.1592 C.2     1  UNL1       -0.0407
     18 C           0.3480    3.9004    6.1553 C.2     1  UNL1       -0.0747
     19 C           0.8592    3.5386    7.5216 C.3     1  UNL1       -0.0439
     20 C          -0.1557    5.3107    6.0205 C.3     1  UNL1       -0.0439
     21 C           0.8990    3.1197   -1.1219 C.3     1  UNL1       -0.0549
     22 O           1.4720    7.3709    2.1861 O.3     1  UNL1       -0.5068
     23 H           1.1104    0.3468   -1.0570 H       1  UNL1        0.0235
     24 H           1.3406   -0.5687    0.4238 H       1  UNL1        0.0235
     25 H           2.4747    0.7372    0.0041 H       1  UNL1        0.0235
     26 H           2.2600    1.7370    3.6754 H       1  UNL1        0.0368
     27 H           2.8251    1.3126    2.0808 H       1  UNL1        0.0368
     28 H           3.6577    3.7507    3.7734 H       1  UNL1        0.0622
     29 H           3.3258    6.1790    3.6940 H       1  UNL1        0.0654
     30 H           0.5260    5.7304    0.4833 H       1  UNL1        0.0657
     31 H          -1.6141    2.9669   -0.2716 H       1  UNL1        0.0325
     32 H          -1.1819    4.3716    0.6478 H       1  UNL1        0.0325
     33 H          -2.1609    1.6975    1.5582 H       1  UNL1        0.0815
     34 H          -2.3518    3.2634    2.3171 H       1  UNL1        0.0815
     35 H           0.0395    4.1510    3.3502 H       1  UNL1        0.0861
     36 H          -1.4074    3.5967    4.1360 H       1  UNL1        0.0861
     37 H           0.6541    1.9822    5.3305 H       1  UNL1        0.0624
     38 H           1.7201    4.1603    7.7777 H       1  UNL1        0.0274
     39 H           0.0731    3.7047    8.2663 H       1  UNL1        0.0274
     40 H           1.1626    2.4885    7.5866 H       1  UNL1        0.0274
     41 H           0.0646    5.7305    5.0315 H       1  UNL1        0.0274
     42 H          -1.2404    5.3511    6.1818 H       1  UNL1        0.0274
     43 H           0.3191    5.9732    6.7487 H       1  UNL1        0.0274
     44 H           1.9348    2.7867   -1.2738 H       1  UNL1        0.0238
     45 H           0.2622    2.5555   -1.8098 H       1  UNL1        0.0238
     46 H           0.8670    4.1712   -1.4248 H       1  UNL1        0.0238
     47 H           1.8525    7.7719    2.9877 H       1  UNL1        0.2921
     48 N          -0.5794    2.1661    2.8786 N.4     1  UNL1        0.2407
     49 H          -1.0674    1.4653    3.4475 H       1  UNL1        0.2040
@<TRIPOS>UNITY_ATOM_ATTR
48 1
charge 1
@<TRIPOS>BOND
     1     1     2    1
     2     1    23    1
     3     1    24    1
     4     1    25    1
     5     2     3    1
     6     2    13    1
     7     2     4    1
     8     4     5    1
     9     4     6    1
    10     4    48    1
    11     6     7    1
    12     6    26    1
    13     6    27    1
    14     7    12   ar
    15     7     8   ar
    16     8     9   ar
    17     8    28    1
    18     9    10   ar
    19     9    29    1
    20    10    11   ar
    21    10    22    1
    22    11    12   ar
    23    11    30    1
    24    12    13    1
    25    13    14    1
    26    13    21    1
    27    14    15    1
    28    14    31    1
    29    14    32    1
    30    15    33    1
    31    15    34    1
    32    15    48    1
    33    16    17    1
    34    16    35    1
    35    16    36    1
    36    16    48    1
    37    17    18    2
    38    17    37    1
    39    18    19    1
    40    18    20    1
    41    19    38    1
    42    19    39    1
    43    19    40    1
    44    20    41    1
    45    20    42    1
    46    20    43    1
    47    21    44    1
    48    21    45    1
    49    21    46    1
    50    22    47    1
    51    48    49    1
