@<TRIPOS>MOLECULE
ZINC01530762
 48 48 0 0 0
SMALL
GASTEIGER

@<TRIPOS>ATOM
      1 C           3.1994    1.0718   -2.4881 C.3     1  UNL1       -0.0622
      2 C           1.7049    1.0531   -2.7760 C.3     1  UNL1       -0.0215
      3 C           0.9930   -0.0838   -2.0501 C.3     1  UNL1        0.0894
      4 O           1.5258   -1.3450   -2.4561 O.3     1  UNL1       -0.4901
      5 C           1.3558   -2.3551   -1.5318 C.ar    1  UNL1        0.1411
      6 C           0.2913   -2.4069   -0.6298 C.ar    1  UNL1       -0.0173
      7 C           0.2440   -3.4017    0.3543 C.ar    1  UNL1       -0.0442
      8 C           1.2347   -4.3864    0.3772 C.ar    1  UNL1        0.0610
      9 C           2.2550   -4.3838   -0.5799 C.ar    1  UNL1       -0.0235
     10 C           2.3304   -3.3695   -1.5404 C.ar    1  UNL1        0.0676
     11 N           3.5082   -3.2436   -2.2962 N.pl3   1  UNL1       -0.3551
     12 C           1.2946   -5.3199    1.5204 C.2     1  UNL1        0.3394
     13 O           0.8667   -5.0866    2.6361 O.2     1  UNL1       -0.2450
     14 O           1.9808   -6.4535    1.1880 O.3     1  UNL1       -0.4558
     15 C           2.7895   -6.9978    2.2499 C.3     1  UNL1        0.1323
     16 C           1.9919   -7.7534    3.3168 C.3     1  UNL1        0.0032
     17 N           1.1877   -8.9165    2.7451 N.4     1  UNL1        0.2372
     18 C           2.0113  -10.0069    2.0753 C.3     1  UNL1       -0.0347
     19 C           3.0208  -10.6523    3.0099 C.3     1  UNL1       -0.0245
     20 C           0.1985   -9.5005    3.7436 C.3     1  UNL1       -0.0347
     21 C          -0.8696   -8.4938    4.1447 C.3     1  UNL1       -0.0245
     22 H           3.4258    0.7003   -1.4833 H       1  UNL1        0.0231
     23 H           3.5861    2.0929   -2.5654 H       1  UNL1        0.0231
     24 H           3.7395    0.4524   -3.2110 H       1  UNL1        0.0231
     25 H           1.2608    2.0010   -2.4498 H       1  UNL1        0.0295
     26 H           1.5507    0.9711   -3.8578 H       1  UNL1        0.0295
     27 H           1.1247    0.0730   -0.9712 H       1  UNL1        0.0696
     28 H          -0.0762   -0.0509   -2.2906 H       1  UNL1        0.0696
     29 H          -0.4957   -1.6566   -0.6404 H       1  UNL1        0.0655
     30 H          -0.5310   -3.3662    1.1096 H       1  UNL1        0.0627
     31 H           3.0576   -5.1123   -0.5349 H       1  UNL1        0.0645
     32 H           3.9177   -4.1171   -2.6064 H       1  UNL1        0.1424
     33 H           3.4074   -2.5616   -3.0475 H       1  UNL1        0.1424
     34 H           3.5304   -7.6474    1.7778 H       1  UNL1        0.0752
     35 H           3.3549   -6.1809    2.7159 H       1  UNL1        0.0752
     36 H           2.6457   -8.1461    4.0995 H       1  UNL1        0.0848
     37 H           1.2772   -7.0800    3.7852 H       1  UNL1        0.0848
     38 H           1.3057  -10.7551    1.6970 H       1  UNL1        0.0812
     39 H           2.5055   -9.5573    1.2097 H       1  UNL1        0.0812
     40 H           2.5375  -11.1447    3.8589 H       1  UNL1        0.0281
     41 H           3.5869  -11.4184    2.4687 H       1  UNL1        0.0281
     42 H           3.7479   -9.9318    3.3950 H       1  UNL1        0.0281
     43 H          -0.2803  -10.3548    3.2549 H       1  UNL1        0.0812
     44 H           0.7624   -9.8468    4.6147 H       1  UNL1        0.0812
     45 H          -1.3571   -8.0552    3.2672 H       1  UNL1        0.0281
     46 H          -1.6371   -8.9934    4.7446 H       1  UNL1        0.0281
     47 H          -0.4650   -7.6881    4.7598 H       1  UNL1        0.0281
     48 H           0.6196   -8.5018    1.9910 H       1  UNL1        0.2034
@<TRIPOS>UNITY_ATOM_ATTR
17 1
charge 1
@<TRIPOS>BOND
     1     1     2    1
     2     1    22    1
     3     1    23    1
     4     1    24    1
     5     2     3    1
     6     2    25    1
     7     2    26    1
     8     3     4    1
     9     3    27    1
    10     3    28    1
    11     4     5    1
    12     5    10   ar
    13     5     6   ar
    14     6     7   ar
    15     6    29    1
    16     7     8   ar
    17     7    30    1
    18     8     9   ar
    19     8    12    1
    20     9    10   ar
    21     9    31    1
    22    10    11    1
    23    11    32    1
    24    11    33    1
    25    12    13    2
    26    12    14    1
    27    14    15    1
    28    15    16    1
    29    15    34    1
    30    15    35    1
    31    16    17    1
    32    16    36    1
    33    16    37    1
    34    17    18    1
    35    17    20    1
    36    17    48    1
    37    18    19    1
    38    18    38    1
    39    18    39    1
    40    19    40    1
    41    19    41    1
    42    19    42    1
    43    20    21    1
    44    20    43    1
    45    20    44    1
    46    21    45    1
    47    21    46    1
    48    21    47    1
