@<TRIPOS>MOLECULE
ZINC00523925
 42 44 0 0 0
SMALL
GASTEIGER

@<TRIPOS>ATOM
      1 C          -1.8418   -1.5505   -4.6216 C.3     1  UNL1       -0.0397
      2 C          -2.4418   -1.1888   -3.2958 C.ar    1  UNL1       -0.0503
      3 C          -1.8202   -0.2224   -2.4975 C.ar    1  UNL1       -0.0570
      4 C          -2.3691    0.1356   -1.2707 C.ar    1  UNL1       -0.0346
      5 C          -3.5497   -0.4816   -0.8358 C.ar    1  UNL1        0.1125
      6 C          -4.1867   -1.4417   -1.6202 C.ar    1  UNL1       -0.0346
      7 C          -3.6293   -1.7968   -2.8509 C.ar    1  UNL1       -0.0570
      8 S          -4.2139   -0.0042    0.7503 S.O2    1  UNL1        0.0993
      9 O          -5.4235   -0.7740    1.0010 O.2     1  UNL1       -0.1463
     10 O          -3.0951   -0.1888    1.6650 O.2     1  UNL1       -0.1463
     11 N          -4.4689    1.5912    0.5938 N.2     1  UNL1       -0.1282
     12 C          -5.3939    2.0852   -0.1695 C.2     1  UNL1        0.0824
     13 O          -6.2924    1.5853   -0.8542 O.co2   1  UNL1       -0.8476
     14 N          -5.5424    3.4338   -0.3828 N.pl3   1  UNL1       -0.2727
     15 N          -4.6301    4.3480    0.2007 N.3     1  UNL1       -0.2283
     16 C          -5.1384    5.7431    0.0649 C.3     1  UNL1        0.0198
     17 C          -4.1284    6.4119   -0.8385 C.3     1  UNL1       -0.0226
     18 H          -4.4044    6.2132   -1.8868 H       1  UNL1        0.0317
     19 C          -3.6928    7.8530   -0.7206 C.3     1  UNL1       -0.0487
     20 C          -2.2564    7.8157   -1.3000 C.3     1  UNL1       -0.0525
     21 C          -1.8471    6.3241   -1.3793 C.3     1  UNL1       -0.0487
     22 C          -2.8598    5.6752   -0.4676 C.3     1  UNL1       -0.0226
     23 H          -2.5665    5.8785    0.5749 H       1  UNL1        0.0317
     24 C          -3.3488    4.2568   -0.5719 C.3     1  UNL1        0.0198
     25 H          -1.7733   -0.6632   -5.2586 H       1  UNL1        0.0278
     26 H          -0.8405   -1.9685   -4.4783 H       1  UNL1        0.0278
     27 H          -2.4467   -2.2961   -5.1481 H       1  UNL1        0.0278
     28 H          -0.9121    0.2703   -2.8300 H       1  UNL1        0.0621
     29 H          -1.9045    0.8930   -0.6509 H       1  UNL1        0.0637
     30 H          -5.1235   -1.8916   -1.2869 H       1  UNL1        0.0637
     31 H          -4.1361   -2.5339   -3.4636 H       1  UNL1        0.0621
     32 H          -6.5339    3.6394   -0.4176 H       1  UNL1        0.1669
     33 H          -5.1450    6.2057    1.0575 H       1  UNL1        0.0446
     34 H          -6.1521    5.8154   -0.3444 H       1  UNL1        0.0446
     35 H          -3.6716    8.1813    0.3247 H       1  UNL1        0.0268
     36 H          -4.3413    8.5348   -1.2790 H       1  UNL1        0.0268
     37 H          -2.2158    8.2753   -2.2931 H       1  UNL1        0.0265
     38 H          -1.5765    8.3744   -0.6471 H       1  UNL1        0.0265
     39 H          -1.9317    5.9596   -2.4091 H       1  UNL1        0.0268
     40 H          -0.8175    6.1659   -1.0449 H       1  UNL1        0.0268
     41 H          -2.6515    3.5419   -0.1258 H       1  UNL1        0.0446
     42 H          -3.5145    3.9797   -1.6238 H       1  UNL1        0.0446
@<TRIPOS>UNITY_ATOM_ATTR
13 1
charge -1
@<TRIPOS>BOND
     1     1     2    1
     2     1    25    1
     3     1    26    1
     4     1    27    1
     5     2     7   ar
     6     2     3   ar
     7     3     4   ar
     8     3    28    1
     9     4     5   ar
    10     4    29    1
    11     5     6   ar
    12     5     8    1
    13     6     7   ar
    14     6    30    1
    15     7    31    1
    16     8     9    2
    17     8    10    2
    18     8    11    1
    19    11    12    2
    20    12    13    1
    21    12    14    1
    22    14    15    1
    23    14    32    1
    24    15    24    1
    25    15    16    1
    26    16    17    1
    27    16    33    1
    28    16    34    1
    29    17    18    1
    30    17    22    1
    31    17    19    1
    32    19    20    1
    33    19    35    1
    34    19    36    1
    35    20    21    1
    36    20    37    1
    37    20    38    1
    38    21    22    1
    39    21    39    1
    40    21    40    1
    41    22    23    1
    42    22    24    1
    43    24    41    1
    44    24    42    1
