@<TRIPOS>MOLECULE
ZINC01532530
 22 21 0 0 0
SMALL
GASTEIGER

@<TRIPOS>ATOM
      1 C           0.9244   -0.0400   -0.0959 C.3     1  UNL1       -0.0070
      2 C           0.5223    0.5873   -1.4456 C.3     1  UNL1        0.0057
      3 CA          1.0407   -0.2047   -2.6630 C.3     1  UNL1        0.0787
      4 HA          2.1313   -0.2686   -2.6993 H       1  UNL1        0.0970
      5 C           0.3327   -1.5869   -2.5901 C.2     1  UNL1        0.4026
      6 O          -0.7914   -1.5223   -3.1779 O.co2   1  UNL1       -0.2400
      7 OXT         0.9235   -2.4866   -1.9613 O.co2   1  UNL1       -0.2400
      8 N           0.5882    0.5122   -3.9221 N.4     1  UNL1        0.2289
      9 C           0.3976    0.7014    1.1295 C.3     1  UNL1       -0.0352
     10 N          -1.0817    0.6326    1.1845 N.4     1  UNL1        0.2185
     11 H           2.0189   -0.0783   -0.0380 H       1  UNL1        0.0319
     12 H           0.5690   -1.0720   -0.0242 H       1  UNL1        0.0319
     13 H          -0.5705    0.6592   -1.4995 H       1  UNL1        0.0327
     14 H           0.9052    1.6143   -1.4874 H       1  UNL1        0.0327
     15 H1         -0.4249    0.2733   -3.9865 H       1  UNL1        0.2002
     16 H2          0.7575    1.5149   -3.9845 H       1  UNL1        0.2002
     17 H           0.7628    0.2359    2.0469 H       1  UNL1        0.0813
     18 H           0.6757    1.7604    1.1208 H       1  UNL1        0.0813
     19 H          -1.4094   -0.3490    1.1825 H       1  UNL1        0.1994
     20 H          -1.4399    1.0624    2.0474 H       1  UNL1        0.1994
     21 H          -1.5416    1.1029    0.3981 H       1  UNL1        0.1994
     22 H3          0.9778    0.0211   -4.7358 H       1  UNL1        0.2002
@<TRIPOS>UNITY_ATOM_ATTR
8 1
charge 1
10 1
charge 1
@<TRIPOS>BOND
     1     1     2    1
     2     1     9    1
     3     1    11    1
     4     1    12    1
     5     2     3    1
     6     2    13    1
     7     2    14    1
     8     3     4    1
     9     3     5    1
    10     3     8    1
    11     5     6   ar
    12     5     7   ar
    13     8    15    1
    14     8    16    1
    15     8    22    1
    16     9    10    1
    17     9    17    1
    18     9    18    1
    19    10    19    1
    20    10    20    1
    21    10    21    1
