@<TRIPOS>MOLECULE
ZINC00607790
 54 56 0 0 0
SMALL
GASTEIGER

@<TRIPOS>ATOM
      1 C           2.1419   -2.8295   -4.9680 C.3     1  UNL1        0.0122
      2 C           0.9535   -2.5155   -4.0626 C.2     1  UNL1        0.2104
      3 O          -0.0138   -3.2615   -4.0167 O.2     1  UNL1       -0.2761
      4 N           0.9371   -1.3599   -3.3385 N.am    1  UNL1       -0.3087
      5 C           1.9964   -0.4266   -3.0407 C.3     1  UNL1        0.0493
      6 H           2.6377   -0.4283   -3.9369 H       1  UNL1        0.0548
      7 C           2.9127   -0.9077   -1.9071 C.3     1  UNL1       -0.0263
      8 C           2.4526   -0.2438   -0.6253 C.3     1  UNL1       -0.0249
      9 C           1.0331   -0.5784   -0.2430 C.ar    1  UNL1       -0.0324
     10 C           0.6767   -1.8097    0.3306 C.ar    1  UNL1       -0.0123
     11 C          -0.6136   -2.0640    0.8188 C.ar    1  UNL1        0.1655
     12 C          -1.4991   -0.9756    0.9415 C.ar    1  UNL1        0.2041
     13 C          -1.1659    0.2608    0.2867 C.ar    1  UNL1        0.1731
     14 C           0.0361    0.3886   -0.4964 C.ar    1  UNL1        0.0312
     15 C           0.2847    1.2917   -1.7593 C.ar    1  UNL1       -0.0088
     16 C           1.3531    0.9796   -2.8707 C.ar    1  UNL1       -0.0157
     17 C           1.8645    1.8456   -3.7865 C.ar    1  UNL1       -0.0057
     18 C           1.2483    3.0367   -4.4160 C.ar    1  UNL1        0.2206
     19 O           1.4774    3.2663   -5.6075 O.2     1  UNL1       -0.2840
     20 C           0.3207    3.8664   -3.6343 C.ar    1  UNL1        0.1665
     21 C          -0.6858    3.0791   -3.1404 C.ar    1  UNL1       -0.0155
     22 C          -0.4792    2.4060   -1.8727 C.ar    1  UNL1       -0.0500
     23 O           0.8567    4.9264   -2.9521 O.3     1  UNL1       -0.4913
     24 C           0.3052    6.1073   -3.5515 C.3     1  UNL1        0.0790
     25 O          -2.1429    1.2412    0.3057 O.3     1  UNL1       -0.4907
     26 C          -1.8907    2.3177    1.2270 C.3     1  UNL1        0.0790
     27 O          -2.7449   -1.1876    1.4694 O.3     1  UNL1       -0.4885
     28 C          -2.9942   -0.5186    2.7106 C.3     1  UNL1        0.0791
     29 O          -0.8140   -3.3871    1.0740 O.3     1  UNL1       -0.4913
     30 C          -1.9068   -3.8422    1.8546 C.3     1  UNL1        0.0790
     31 H           2.4135   -3.8877   -4.8306 H       1  UNL1        0.0322
     32 H           3.0365   -2.2393   -4.7833 H       1  UNL1        0.0322
     33 H           1.8334   -2.6761   -6.0091 H       1  UNL1        0.0322
     34 H           0.0888   -1.2941   -2.7870 H       1  UNL1        0.1493
     35 H           2.9727   -1.9984   -1.8587 H       1  UNL1        0.0289
     36 H           3.9388   -0.5574   -2.1014 H       1  UNL1        0.0289
     37 H           3.1602   -0.3036    0.2078 H       1  UNL1        0.0314
     38 H           2.4929    0.8347   -0.8181 H       1  UNL1        0.0314
     39 H           1.3938   -2.6364    0.3372 H       1  UNL1        0.0658
     40 H           2.7610    1.5799   -4.3518 H       1  UNL1        0.0660
     41 H          -1.1204    2.3675   -3.8156 H       1  UNL1        0.0655
     42 H          -1.1339    2.7661   -1.1021 H       1  UNL1        0.0625
     43 H           0.6627    6.2377   -4.5792 H       1  UNL1        0.0660
     44 H          -0.7917    6.0771   -3.5390 H       1  UNL1        0.0660
     45 H           0.6259    6.9686   -2.9619 H       1  UNL1        0.0660
     46 H          -0.8407    2.4287    1.5181 H       1  UNL1        0.0660
     47 H          -2.2129    3.2493    0.7458 H       1  UNL1        0.0660
     48 H          -2.5145    2.2147    2.1212 H       1  UNL1        0.0660
     49 H          -2.1503    0.0639    3.0931 H       1  UNL1        0.0660
     50 H          -3.8667    0.1359    2.5902 H       1  UNL1        0.0660
     51 H          -3.2613   -1.2661    3.4701 H       1  UNL1        0.0660
     52 H          -1.8560   -3.4186    2.8593 H       1  UNL1        0.0660
     53 H          -2.8797   -3.6714    1.3838 H       1  UNL1        0.0660
     54 H          -1.7972   -4.9309    1.9583 H       1  UNL1        0.0660
@<TRIPOS>BOND
     1     1     2    1
     2     1    31    1
     3     1    32    1
     4     1    33    1
     5     2     3    2
     6     2     4   am
     7     4    34    1
     8     5    16    1
     9     5     7    1
    10     7     8    1
    11     7    35    1
    12     7    36    1
    13     8     9    1
    14     8    37    1
    15     8    38    1
    16     9    14   ar
    17     9    10   ar
    18    10    11   ar
    19    10    39    1
    20    11    12   ar
    21    11    29    1
    22    12    13   ar
    23    12    27    1
    24    13    14   ar
    25    13    25    1
    26    14    15    1
    27    15    22   ar
    28    15    16   ar
    29    16    17   ar
    30    17    18   ar
    31    17    40    1
    32    18    19    2
    33    18    20   ar
    34    20    21   ar
    35    20    23    1
    36    21    22   ar
    37    21    41    1
    38    22    42    1
    39    23    24    1
    40    24    43    1
    41    24    44    1
    42    24    45    1
    43    25    26    1
    44    26    46    1
    45    26    47    1
    46    26    48    1
    47    27    28    1
    48    28    49    1
    49    28    50    1
    50    28    51    1
    51    29    30    1
    52    30    52    1
    53    30    53    1
    54    30    54    1
    55     5     6    1
    56     5     4    1
