@<TRIPOS>MOLECULE
ZINC03830453
 44 46 0 0 0
SMALL
GASTEIGER

@<TRIPOS>ATOM
      1 C           3.2467    1.4978   -0.9347 C.3     1  UNL1        0.0369
      2 O           2.3498    1.8297   -1.9954 O.3     1  UNL1       -0.3786
      3 C           0.9708    1.6583   -1.6051 C.3     1  UNL1        0.0714
      4 C           0.5686    2.6993   -0.5705 C.2     1  UNL1       -0.0059
      5 CA          0.0305    2.4006    0.6386 C.2     1  UNL1        0.1285
      6 N          -0.1739    3.3902    1.5794 N.am    1  UNL1       -0.2488
      7 C          -0.3072    4.8005    1.2799 C.3     1  UNL1        0.1042
      8 H          -1.3031    5.0774    0.9194 H       1  UNL1        0.0644
      9 CA         -0.0978    5.0189    2.8266 C.3     1  UNL1        0.1286
     10 HA         -1.0373    4.9654    3.3961 H       1  UNL1        0.0622
     11 C           0.5696    3.6033    2.7200 C.2     1  UNL1        0.2440
     12 O           1.4290    2.9636    3.2791 O.2     1  UNL1       -0.2731
     13 N           0.6440    6.2468    3.2359 N.am    1  UNL1       -0.2963
     14 C           1.2095    6.4109    4.4914 C.2     1  UNL1        0.2684
     15 O           1.3986    5.4826    5.2622 O.2     1  UNL1       -0.2683
     16 C           1.5436    7.8797    4.8923 C.2     1  UNL1        0.1897
     17 N           1.7428    8.3032    6.1145 N.2     1  UNL1       -0.0779
     18 O           1.6662    7.3088    7.0895 O.2     1  UNL1       -0.3964
     19 C           1.8777    7.9193    8.3580 C.3     1  UNL1        0.1072
     20 C           1.5801    8.9672    3.8971 C.ar    1  UNL1        0.1067
     21 C           1.8636   10.2932    4.2087 C.ar    1  UNL1        0.0067
     22 S           1.7538   11.2719    2.8138 S.2     1  UNL1       -0.0604
     23 C           1.3366    9.8894    1.8916 C.ar    1  UNL1        0.1562
     24 N           1.2841    8.7599    2.5529 N.ar    1  UNL1       -0.2233
     25 N           1.0892    9.9776    0.5772 N.pl3   1  UNL1       -0.3375
     26 S           1.0641    5.3671    0.2151 S.3     1  UNL1       -0.1311
     27 C           0.7997    4.1110   -1.0614 C.3     1  UNL1        0.0210
     28 C          -0.5663    0.9646    1.0731 C.2     1  UNL1        0.4007
     29 O          -1.3275    1.0118    2.0880 O.co2   1  UNL1       -0.2392
     30 H           4.2111    1.2291   -1.3756 H       1  UNL1        0.0524
     31 H           2.8922    0.6522   -0.3367 H       1  UNL1        0.0524
     32 H           3.3991    2.3732   -0.2963 H       1  UNL1        0.0524
     33 H           0.3672    1.8003   -2.5086 H       1  UNL1        0.0607
     34 H           0.8612    0.6131   -1.3326 H       1  UNL1        0.0607
     35 H           0.5990    7.0727    2.6386 H       1  UNL1        0.1499
     36 H           2.6740    8.6709    8.3060 H       1  UNL1        0.0687
     37 H           0.9510    8.3914    8.6985 H       1  UNL1        0.0687
     38 H           2.1727    7.1507    9.0761 H       1  UNL1        0.0687
     39 H           2.1049   10.7137    5.1746 H       1  UNL1        0.0716
     40 H           1.4266   10.7958    0.0857 H       1  UNL1        0.1442
     41 H           1.1779    9.1127    0.0527 H       1  UNL1        0.1442
     42 H          -0.0642    4.4089   -1.6678 H       1  UNL1        0.0424
     43 H           1.6734    4.1621   -1.7202 H       1  UNL1        0.0424
     44 OXT        -0.3520   -0.0043    0.2961 O.co2   1  UNL1       -0.2392
@<TRIPOS>BOND
     1     1     2    1
     2     1    30    1
     3     1    31    1
     4     1    32    1
     5     2     3    1
     6     3     4    1
     7     3    33    1
     8     3    34    1
     9     4    27    1
    10     4     5    2
    11     5     6    1
    12     5    28    1
    13     6    11   am
    14     6     7    1
    15     7     8    1
    16     7     9    1
    17     7    26    1
    18     9    11    1
    19    11    12    2
    20    13    14   am
    21    13    35    1
    22    14    15    2
    23    14    16    1
    24    16    17    2
    25    16    20    1
    26    17    18    1
    27    18    19    1
    28    19    36    1
    29    19    37    1
    30    19    38    1
    31    20    24   ar
    32    20    21   ar
    33    21    22   ar
    34    21    39    1
    35    22    23   ar
    36    23    24   ar
    37    23    25    1
    38    25    40    1
    39    25    41    1
    40    26    27    1
    41    27    42    1
    42    27    43    1
    43    28    29   ar
    44    28    44   ar
    45     9    13    1
    46     9    10    1
