@<TRIPOS>MOLECULE
ZINC00001916
 23 23 0 0 0
SMALL
GASTEIGER

@<TRIPOS>ATOM
      1 C           1.4581   -0.2206   -0.3029 C.ar    1  UNL1       -0.0617
      2 C           0.5821   -1.1798    0.2013 C.ar    1  UNL1       -0.0615
      3 C          -0.7906   -0.9291    0.2271 C.ar    1  UNL1       -0.0581
      4 C          -1.2992    0.2869   -0.2530 C.ar    1  UNL1       -0.0386
      5 C          -0.4077    1.2502   -0.7465 C.ar    1  UNL1       -0.0581
      6 C           0.9640    0.9938   -0.7748 C.ar    1  UNL1       -0.0615
      7 C          -2.7838    0.5612   -0.2224 C.3     1  UNL1        0.0495
      8 C          -3.3497    1.2076    1.0352 C.2     1  UNL1        0.2247
      9 O          -4.5371    1.5402    1.0739 O.2     1  UNL1       -0.2750
     10 N          -2.4879    1.3534    2.1055 N.am    1  UNL1       -0.2401
     11 C          -2.7072    1.9947    3.2913 C.2     1  UNL1        0.3033
     12 O          -1.8017    2.1637    4.1001 O.2     1  UNL1       -0.2527
     13 N          -3.9561    2.4446    3.5266 N.am    1  UNL1       -0.3130
     14 H           2.5264   -0.4212   -0.3318 H       1  UNL1        0.0618
     15 H           0.9696   -2.1271    0.5686 H       1  UNL1        0.0618
     16 H          -1.4587   -1.6942    0.6183 H       1  UNL1        0.0620
     17 H          -0.7734    2.2034   -1.1239 H       1  UNL1        0.0620
     18 H           1.6491    1.7399   -1.1709 H       1  UNL1        0.0618
     19 H          -3.0384    1.2148   -1.0666 H       1  UNL1        0.0407
     20 H          -3.3256   -0.3791   -0.3824 H       1  UNL1        0.0407
     21 H          -1.5230    1.0694    2.0043 H       1  UNL1        0.1591
     22 H          -4.6877    2.3227    2.8320 H       1  UNL1        0.1465
     23 H          -4.1511    2.9474    4.3797 H       1  UNL1        0.1465
@<TRIPOS>BOND
     1     1     6   ar
     2     1     2   ar
     3     1    14    1
     4     2     3   ar
     5     2    15    1
     6     3     4   ar
     7     3    16    1
     8     4     5   ar
     9     4     7    1
    10     5     6   ar
    11     5    17    1
    12     6    18    1
    13     7     8    1
    14     7    19    1
    15     7    20    1
    16     8     9    2
    17     8    10   am
    18    10    11   am
    19    10    21    1
    20    11    12    2
    21    11    13   am
    22    13    22    1
    23    13    23    1
