@<TRIPOS>MOLECULE
ZINC03792789
 49 49 0 0 0
SMALL
GASTEIGER

@<TRIPOS>ATOM
      1 C          -0.7290   -0.5607    2.4923 C.3     1  UNL1       -0.0432
      2 C          -0.2707   -0.2077    1.0969 C.2     1  UNL1       -0.0689
      3 C           0.1353   -1.0695    0.1366 C.2     1  UNL1       -0.0427
      4 C           0.7069   -0.5527   -1.2298 C.3     1  UNL1       -0.0099
      5 C           0.9545    0.9887   -1.2030 C.3     1  UNL1       -0.0436
      6 C          -0.1792    1.7482   -0.5490 C.3     1  UNL1       -0.0486
      7 C          -0.3250    1.3027    0.8809 C.3     1  UNL1       -0.0314
      8 C           2.1022   -1.1340   -1.5889 C.3     1  UNL1       -0.0558
      9 C          -0.3067   -0.8407   -2.3661 C.3     1  UNL1       -0.0558
     10 C           0.1067   -2.5252    0.3549 C.2     1  UNL1       -0.0579
     11 C          -0.9640   -3.3005    0.6330 C.2     1  UNL1       -0.0586
     12 C          -0.9239   -4.7501    0.8424 C.2     1  UNL1       -0.0504
     13 C          -2.0827   -5.3908    1.1007 C.2     1  UNL1       -0.0588
     14 C          -2.2228   -6.8079    1.3307 C.2     1  UNL1       -0.0613
     15 C          -3.3388   -7.4905    1.0385 C.2     1  UNL1       -0.0586
     16 C          -3.5266   -8.9135    1.2730 C.2     1  UNL1       -0.0436
     17 C          -4.6617   -9.5658    0.9537 C.2     1  UNL1        0.0296
     18 C          -5.9769   -9.1117    0.2957 C.2     1  UNL1        0.3798
     19 O          -6.6449  -10.0733   -0.1874 O.co2   1  UNL1       -0.2412
     20 O          -6.2587   -7.8844    0.3300 O.co2   1  UNL1       -0.2412
     21 C          -2.3896   -9.6769    1.9147 C.3     1  UNL1       -0.0395
     22 C           0.4120   -5.4456    0.7189 C.3     1  UNL1       -0.0397
     23 H          -0.0648   -0.0748    3.2265 H       1  UNL1        0.0275
     24 H          -1.7412   -0.1899    2.6623 H       1  UNL1        0.0275
     25 H          -0.7269   -1.6251    2.7390 H       1  UNL1        0.0275
     26 H           1.8782    1.2111   -0.6500 H       1  UNL1        0.0274
     27 H           1.1118    1.3722   -2.2204 H       1  UNL1        0.0274
     28 H           0.0254    2.8249   -0.5774 H       1  UNL1        0.0269
     29 H          -1.1185    1.5945   -1.0910 H       1  UNL1        0.0269
     30 H          -1.2708    1.6868    1.2742 H       1  UNL1        0.0310
     31 H           0.4761    1.7508    1.4950 H       1  UNL1        0.0310
     32 H           2.1107   -2.2136   -1.7536 H       1  UNL1        0.0238
     33 H           2.4873   -0.6738   -2.5099 H       1  UNL1        0.0238
     34 H           2.8255   -0.9158   -0.7929 H       1  UNL1        0.0238
     35 H           0.0522   -0.4498   -3.3269 H       1  UNL1        0.0238
     36 H          -0.4994   -1.9086   -2.5062 H       1  UNL1        0.0238
     37 H          -1.2762   -0.3682   -2.1662 H       1  UNL1        0.0238
     38 H           1.0722   -3.0169    0.2995 H       1  UNL1        0.0621
     39 H          -1.9549   -2.8601    0.7254 H       1  UNL1        0.0620
     40 H          -3.0169   -4.8293    1.1508 H       1  UNL1        0.0620
     41 H          -1.3822   -7.3244    1.7729 H       1  UNL1        0.0618
     42 H          -4.1709   -6.9553    0.5823 H       1  UNL1        0.0620
     43 H          -4.7087  -10.6336    1.1685 H       1  UNL1        0.0693
     44 H          -1.4883   -9.6342    1.2903 H       1  UNL1        0.0278
     45 H          -2.1516   -9.2576    2.8998 H       1  UNL1        0.0278
     46 H          -2.6234  -10.7347    2.0665 H       1  UNL1        0.0278
     47 H           0.8159   -5.3233   -0.2932 H       1  UNL1        0.0278
     48 H           1.1188   -5.0249    1.4411 H       1  UNL1        0.0278
     49 H           0.3812   -6.5209    0.9091 H       1  UNL1        0.0278
@<TRIPOS>BOND
     1     1     2    1
     2     1    23    1
     3     1    24    1
     4     1    25    1
     5     2     7    1
     6     2     3    2
     7     3     4    1
     8     3    10    1
     9     4     5    1
    10     4     8    1
    11     4     9    1
    12     5     6    1
    13     5    26    1
    14     5    27    1
    15     6     7    1
    16     6    28    1
    17     6    29    1
    18     7    30    1
    19     7    31    1
    20     8    32    1
    21     8    33    1
    22     8    34    1
    23     9    35    1
    24     9    36    1
    25     9    37    1
    26    10    11    2
    27    10    38    1
    28    11    12    1
    29    11    39    1
    30    12    13    2
    31    12    22    1
    32    13    14    1
    33    13    40    1
    34    14    15    2
    35    14    41    1
    36    15    16    1
    37    15    42    1
    38    16    17    2
    39    16    21    1
    40    17    18    1
    41    17    43    1
    42    18    19   ar
    43    18    20   ar
    44    21    44    1
    45    21    45    1
    46    21    46    1
    47    22    47    1
    48    22    48    1
    49    22    49    1
