@<TRIPOS>MOLECULE
ZINC01542113
 61 65 0 0 0
SMALL
GASTEIGER

@<TRIPOS>ATOM
      1 C          -8.6421   -6.6134   -5.9893 C.ar    1  UNL1       -0.0424
      2 C          -9.6916   -6.8908   -5.1067 C.ar    1  UNL1       -0.0366
      3 C          -9.5655   -6.4414   -3.7834 C.ar    1  UNL1        0.0468
      4 C          -8.4513   -5.7391   -3.3259 C.ar    1  UNL1        0.0040
      5 C          -7.4221   -5.4498   -4.2387 C.ar    1  UNL1       -0.0349
      6 C          -7.5234   -5.9030   -5.5648 C.ar    1  UNL1        0.0525
      7 C          -6.4364   -5.6444   -6.4523 C.1     1  UNL1        0.0992
      8 N          -5.5028   -5.4035   -7.1049 N.1     1  UNL1       -0.1909
      9 C          -8.6109   -5.5329   -1.9172 C.ar    1  UNL1       -0.0223
     10 C          -9.8534   -6.0403   -1.5874 C.ar    1  UNL1        0.0059
     11 N         -10.4084   -6.6023   -2.7092 N.ar    1  UNL1       -0.3604
     12 H         -11.2807   -7.1145   -2.7369 H       1  UNL1        0.1653
     13 C          -7.5721   -5.0205   -0.9664 C.3     1  UNL1       -0.0255
     14 C          -7.4162   -3.4989   -0.9200 C.3     1  UNL1       -0.0442
     15 C          -6.2940   -3.0414    0.0275 C.3     1  UNL1       -0.0122
     16 C          -4.8722   -3.5267   -0.2791 C.3     1  UNL1       -0.0318
     17 C          -4.1112   -1.4679   -1.5480 C.3     1  UNL1       -0.0158
     18 C          -3.2280   -0.9581   -2.7013 C.3     1  UNL1        0.0525
     19 N          -1.9244   -1.6298   -2.6145 N.pl3   1  UNL1       -0.3197
     20 C          -2.0151   -3.0677   -2.8967 C.3     1  UNL1        0.0525
     21 C          -2.9640   -3.7539   -1.8786 C.3     1  UNL1       -0.0158
     22 C          -0.7449   -0.9008   -2.7273 C.ar    1  UNL1        0.0308
     23 C           0.3851   -1.3887   -3.4097 C.ar    1  UNL1       -0.0371
     24 C           1.5923   -0.6705   -3.5227 C.ar    1  UNL1       -0.0170
     25 C           1.6377    0.5782   -2.9181 C.ar    1  UNL1        0.1360
     26 C           0.5838    1.1126   -2.1962 C.ar    1  UNL1        0.0227
     27 C          -0.6128    0.3639   -2.1015 C.ar    1  UNL1       -0.0299
     28 C           1.0528    2.3621   -1.7092 C.ar    1  UNL1       -0.0034
     29 C           2.3256    2.5454   -2.2189 C.ar    1  UNL1        0.1903
     30 O           2.6904    1.4429   -2.9484 O.2     1  UNL1       -0.4502
     31 C           3.2362    3.6643   -2.0892 C.2     1  UNL1        0.2769
     32 O           3.0368    4.6337   -1.3638 O.2     1  UNL1       -0.2671
     33 N           4.3613    3.6110   -2.8654 N.am    1  UNL1       -0.3228
     34 H          -8.7090   -6.9750   -7.0152 H       1  UNL1        0.0631
     35 H         -10.5584   -7.4599   -5.4350 H       1  UNL1        0.0639
     36 H          -6.5440   -4.9042   -3.9130 H       1  UNL1        0.0637
     37 H         -10.3698   -6.1136   -0.6387 H       1  UNL1        0.0810
     38 H          -7.7928   -5.3945    0.0412 H       1  UNL1        0.0314
     39 H          -6.6199   -5.4761   -1.2596 H       1  UNL1        0.0314
     40 H          -7.2494   -3.0868   -1.9207 H       1  UNL1        0.0270
     41 H          -8.3578   -3.0611   -0.5604 H       1  UNL1        0.0270
     42 H          -6.3091   -1.9477    0.0951 H       1  UNL1        0.0317
     43 H          -6.5441   -3.3957    1.0375 H       1  UNL1        0.0317
     44 H          -4.1937   -3.2058    0.5214 H       1  UNL1        0.0814
     45 H          -4.8320   -4.6191   -0.3279 H       1  UNL1        0.0814
     46 H          -3.6608   -1.2172   -0.5820 H       1  UNL1        0.0830
     47 H          -5.1132   -1.0361   -1.6220 H       1  UNL1        0.0830
     48 H          -3.1667    0.1333   -2.6636 H       1  UNL1        0.0516
     49 H          -3.6989   -1.2050   -3.6628 H       1  UNL1        0.0516
     50 H          -2.3784   -3.2241   -3.9198 H       1  UNL1        0.0516
     51 H          -1.0460   -3.5716   -2.8114 H       1  UNL1        0.0516
     52 H          -3.2580   -4.7445   -2.2443 H       1  UNL1        0.0830
     53 H          -2.4460   -3.8645   -0.9199 H       1  UNL1        0.0830
     54 H           0.3579   -2.3514   -3.9135 H       1  UNL1        0.0637
     55 H           2.4459   -1.0646   -4.0625 H       1  UNL1        0.0655
     56 H          -1.4192    0.7847   -1.5108 H       1  UNL1        0.0643
     57 H           0.5293    3.0757   -1.0864 H       1  UNL1        0.0663
     58 H           4.5075    2.8675   -3.5316 H       1  UNL1        0.1453
     59 H           4.9904    4.3997   -2.8458 H       1  UNL1        0.1453
     60 N          -4.2869   -2.9972   -1.5812 N.4     1  UNL1        0.2374
     61 H          -4.9274   -3.2106   -2.3542 H       1  UNL1        0.2034
@<TRIPOS>UNITY_ATOM_ATTR
60 1
charge 1
@<TRIPOS>BOND
     1     1     6   ar
     2     1     2   ar
     3     1    34    1
     4     2     3   ar
     5     2    35    1
     6     3    11   ar
     7     3     4   ar
     8     4     5   ar
     9     4     9   ar
    10     5     6   ar
    11     5    36    1
    12     6     7    1
    13     7     8    3
    14     9    10   ar
    15     9    13    1
    16    10    11   ar
    17    10    37    1
    18    11    12    1
    19    13    14    1
    20    13    38    1
    21    13    39    1
    22    14    15    1
    23    14    40    1
    24    14    41    1
    25    15    16    1
    26    15    42    1
    27    15    43    1
    28    16    44    1
    29    16    45    1
    30    16    60    1
    31    17    18    1
    32    17    46    1
    33    17    47    1
    34    17    60    1
    35    18    19    1
    36    18    48    1
    37    18    49    1
    38    19    20    1
    39    19    22    1
    40    20    21    1
    41    20    50    1
    42    20    51    1
    43    21    52    1
    44    21    53    1
    45    21    60    1
    46    22    27   ar
    47    22    23   ar
    48    23    24   ar
    49    23    54    1
    50    24    25   ar
    51    24    55    1
    52    25    30   ar
    53    25    26   ar
    54    26    27   ar
    55    26    28   ar
    56    27    56    1
    57    28    29   ar
    58    28    57    1
    59    29    30   ar
    60    29    31    1
    61    31    32    2
    62    31    33   am
    63    33    58    1
    64    33    59    1
    65    60    61    1
