@<TRIPOS>MOLECULE
ZINC03830943
 60 60 0 0 0
SMALL
GASTEIGER

@<TRIPOS>ATOM
      1 C           3.1359   -3.1093    0.6264 C.3     1  UNL1        0.0127
      2 C           2.4730   -2.2712   -0.4394 C.2     1  UNL1        0.2168
      3 O           3.1011   -1.3344   -0.9302 O.2     1  UNL1       -0.2756
      4 N           1.1257   -2.5353   -0.7622 N.am    1  UNL1       -0.2671
      5 C           0.5289   -1.6696   -1.8070 C.3     1  UNL1        0.0480
      6 C          -0.1473   -0.3766   -1.3183 C.3     1  UNL1        0.0943
      7 H          -1.0311   -0.6229   -0.7299 H       1  UNL1        0.0632
      8 C           0.7462    0.5677   -0.5051 C.3     1  UNL1        0.0716
      9 O          -0.0222    1.7100   -0.1007 O.3     1  UNL1       -0.3924
     10 O          -0.6643    0.3237   -2.4619 O.3     1  UNL1       -0.3880
     11 C           0.5376   -3.8333   -0.5576 C.ar    1  UNL1        0.0641
     12 C           1.1241   -4.9965   -1.1267 C.ar    1  UNL1        0.0489
     13 C           0.7113   -6.2869   -0.7353 C.ar    1  UNL1        0.0654
     14 C          -0.5483   -6.4169   -0.1100 C.ar    1  UNL1        0.0397
     15 C          -1.2216   -5.2792    0.3857 C.ar    1  UNL1        0.0654
     16 C          -0.5939   -4.0114    0.2729 C.ar    1  UNL1        0.0489
     17 I          -1.2040   -2.4462    1.6025 I       1  UNL1       -0.0411
     18 C          -2.6157   -5.3598    0.9186 C.2     1  UNL1        0.2462
     19 O          -3.4760   -4.6457    0.4212 O.2     1  UNL1       -0.2701
     20 N          -2.8483   -6.2519    1.9391 N.am    1  UNL1       -0.3088
     21 C          -4.1169   -6.3582    2.6567 C.3     1  UNL1        0.0401
     22 C          -5.4141   -6.5173    1.8452 C.3     1  UNL1        0.0936
     23 H          -5.6044   -5.6391    1.2211 H       1  UNL1        0.0632
     24 C          -5.4810   -7.7860    0.9911 C.3     1  UNL1        0.0716
     25 O          -6.7945   -7.8681    0.4175 O.3     1  UNL1       -0.3924
     26 O          -6.5127   -6.5871    2.7797 O.3     1  UNL1       -0.3880
     27 I          -1.5290   -8.3270   -0.2741 I       1  UNL1       -0.0422
     28 C           1.7081   -7.4085   -0.5589 C.2     1  UNL1        0.2462
     29 O           1.6092   -8.1670    0.4030 O.2     1  UNL1       -0.2701
     30 N           2.7645   -7.5152   -1.4343 N.am    1  UNL1       -0.3088
     31 C           3.8481   -8.4735   -1.2649 C.3     1  UNL1        0.0401
     32 C           3.4792   -9.9434   -1.5277 C.3     1  UNL1        0.0936
     33 H           2.8178  -10.3243   -0.7423 H       1  UNL1        0.0632
     34 C           2.8113  -10.1302   -2.8968 C.3     1  UNL1        0.0716
     35 O           2.5419  -11.5084   -3.1650 O.3     1  UNL1       -0.3924
     36 O           4.6802  -10.7337   -1.4684 O.3     1  UNL1       -0.3880
     37 I           2.1971   -4.7806   -2.9933 I       1  UNL1       -0.0411
     38 H           4.1720   -3.3120    0.3271 H       1  UNL1        0.0323
     39 H           2.6558   -4.0658    0.8160 H       1  UNL1        0.0323
     40 H           3.1340   -2.5351    1.5563 H       1  UNL1        0.0323
     41 H           1.3017   -1.3997   -2.5398 H       1  UNL1        0.0495
     42 H          -0.2063   -2.2511   -2.3787 H       1  UNL1        0.0495
     43 H           1.1367    0.0905    0.3991 H       1  UNL1        0.0583
     44 H           1.5847    0.9434   -1.1000 H       1  UNL1        0.0583
     45 H          -0.7698    1.3912    0.4337 H       1  UNL1        0.2095
     46 H          -1.0957    1.1285   -2.1155 H       1  UNL1        0.2099
     47 H          -2.0526   -6.7085    2.3692 H       1  UNL1        0.1491
     48 H          -4.0134   -7.2116    3.3383 H       1  UNL1        0.0488
     49 H          -4.2017   -5.4712    3.2959 H       1  UNL1        0.0488
     50 H          -4.7553   -7.7673    0.1768 H       1  UNL1        0.0583
     51 H          -5.3244   -8.6827    1.5996 H       1  UNL1        0.0583
     52 H          -7.1696   -8.7286    0.6744 H       1  UNL1        0.2095
     53 H          -7.2990   -6.7282    2.2148 H       1  UNL1        0.2099
     54 H           2.9024   -6.7941   -2.1283 H       1  UNL1        0.1491
     55 H           4.6496   -8.1701   -1.9514 H       1  UNL1        0.0488
     56 H           4.2600   -8.3707   -0.2522 H       1  UNL1        0.0488
     57 H           1.8698   -9.5764   -2.9606 H       1  UNL1        0.0583
     58 H           3.4750   -9.7865   -3.6960 H       1  UNL1        0.0583
     59 H           2.7443  -12.0357   -2.3721 H       1  UNL1        0.2095
     60 H           4.7122  -11.3140   -2.2509 H       1  UNL1        0.2099
@<TRIPOS>BOND
     1     1     2    1
     2     1    38    1
     3     1    39    1
     4     1    40    1
     5     2     3    2
     6     2     4   am
     7     4     5    1
     8     4    11    1
     9     5     6    1
    10     5    41    1
    11     5    42    1
    12     6     7    1
    13     6     8    1
    14     6    10    1
    15     8     9    1
    16     8    43    1
    17     8    44    1
    18     9    45    1
    19    10    46    1
    20    11    16   ar
    21    11    12   ar
    22    12    13   ar
    23    12    37    1
    24    13    14   ar
    25    13    28    1
    26    14    15   ar
    27    14    27    1
    28    15    16   ar
    29    15    18    1
    30    16    17    1
    31    18    19    2
    32    18    20   am
    33    20    21    1
    34    20    47    1
    35    21    22    1
    36    21    48    1
    37    21    49    1
    38    22    23    1
    39    22    24    1
    40    22    26    1
    41    24    25    1
    42    24    50    1
    43    24    51    1
    44    25    52    1
    45    26    53    1
    46    28    29    2
    47    28    30   am
    48    30    31    1
    49    30    54    1
    50    31    32    1
    51    31    55    1
    52    31    56    1
    53    32    33    1
    54    32    34    1
    55    32    36    1
    56    34    35    1
    57    34    57    1
    58    34    58    1
    59    35    59    1
    60    36    60    1
