@<TRIPOS>MOLECULE
ZINC00002281
 36 36 0 0 0
SMALL
GASTEIGER

@<TRIPOS>ATOM
      1 C           5.1681   -1.4274    1.6093 C.3     1  UNL1       -0.0193
      2 C           4.2977   -0.5939    0.6660 C.3     1  UNL1       -0.0203
      3 C           4.7393    0.8768    0.6702 C.3     1  UNL1       -0.0193
      4 C           4.3817   -1.1525   -0.7575 C.3     1  UNL1       -0.0193
      5 N           2.8449   -0.6905    1.0886 N.4     1  UNL1        0.2328
      6 C           2.4688   -0.0819    2.4158 C.3     1  UNL1       -0.0023
      7 C           0.9652   -0.2732    2.7130 C.3     1  UNL1        0.1199
      8 H           0.3728    0.2645    1.9626 H       1  UNL1        0.0698
      9 C           0.5686    0.2302    4.0929 C.ar    1  UNL1       -0.0072
     10 C          -0.5795   -0.2660    4.7413 C.ar    1  UNL1       -0.0141
     11 C          -0.9119    0.1835    6.0183 C.ar    1  UNL1        0.1207
     12 C          -0.1474    1.1445    6.6639 C.ar    1  UNL1        0.0213
     13 C           0.9516    1.6782    6.0161 C.ar    1  UNL1        0.1207
     14 C           1.3027    1.2480    4.7396 C.ar    1  UNL1       -0.0141
     15 O           1.6742    2.6320    6.6682 O.3     1  UNL1       -0.5066
     16 O          -1.9919   -0.3048    6.6908 O.3     1  UNL1       -0.5066
     17 O           0.7229   -1.6759    2.5233 O.3     1  UNL1       -0.3819
     18 H           6.2180   -1.3910    1.2956 H       1  UNL1        0.0287
     19 H           4.8598   -2.4785    1.6147 H       1  UNL1        0.0287
     20 H           5.1350   -1.0590    2.6395 H       1  UNL1        0.0287
     21 H           5.7670    0.9747    0.3023 H       1  UNL1        0.0287
     22 H           4.0953    1.4902    0.0303 H       1  UNL1        0.0287
     23 H           4.7292    1.3094    1.6762 H       1  UNL1        0.0287
     24 H           4.0439   -2.1935   -0.7988 H       1  UNL1        0.0287
     25 H           3.7649   -0.5709   -1.4518 H       1  UNL1        0.0287
     26 H           5.4135   -1.1208   -1.1272 H       1  UNL1        0.0287
     27 H           2.2467   -0.2748    0.3620 H       1  UNL1        0.2020
     28 H           3.0626   -0.6056    3.1740 H       1  UNL1        0.0843
     29 H           2.7333    0.9742    2.3758 H       1  UNL1        0.0843
     30 H          -1.2183   -0.9980    4.2532 H       1  UNL1        0.0658
     31 H          -0.4148    1.4858    7.6604 H       1  UNL1        0.0691
     32 H           2.1505    1.7322    4.2678 H       1  UNL1        0.0658
     33 H           2.4433    2.9067    6.1399 H       1  UNL1        0.2921
     34 H          -2.4575   -0.9638    6.1515 H       1  UNL1        0.2921
     35 H           0.5068   -2.0783    3.3864 H       1  UNL1        0.2105
     36 H           2.5359   -1.6775    1.1328 H       1  UNL1        0.2020
@<TRIPOS>UNITY_ATOM_ATTR
5 1
charge 1
@<TRIPOS>BOND
     1     1     2    1
     2     1    18    1
     3     1    19    1
     4     1    20    1
     5     2     3    1
     6     2     4    1
     7     2     5    1
     8     3    21    1
     9     3    22    1
    10     3    23    1
    11     4    24    1
    12     4    25    1
    13     4    26    1
    14     5     6    1
    15     5    27    1
    16     5    36    1
    17     6    28    1
    18     6    29    1
    19     7     9    1
    20     7    17    1
    21     9    14   ar
    22     9    10   ar
    23    10    11   ar
    24    10    30    1
    25    11    12   ar
    26    11    16    1
    27    12    13   ar
    28    12    31    1
    29    13    14   ar
    30    13    15    1
    31    14    32    1
    32    15    33    1
    33    16    34    1
    34    17    35    1
    35     7     8    1
    36     7     6    1
