@<TRIPOS>MOLECULE
ZINC03831531
 50 52 0 0 0
SMALL
GASTEIGER

@<TRIPOS>ATOM
      1 C           0.0793   -0.4066    2.3613 C.3     1  UNL1       -0.0386
      2 C           0.0569   -0.1796    0.8847 C.ar    1  UNL1       -0.0357
      3 C          -0.2598    1.1229    0.3614 C.ar    1  UNL1       -0.0512
      4 C          -0.2187    1.1697   -1.0111 C.ar    1  UNL1       -0.0235
      5 S           0.1978   -0.3412   -1.6817 S.2     1  UNL1       -0.0964
      6 C           0.2973   -1.1128   -0.1291 C.ar    1  UNL1        0.0230
      7 C           0.5943   -2.5307   -0.0679 C.2     1  UNL1       -0.0008
      8 C          -0.4432   -3.4027   -0.1521 C.2     1  UNL1       -0.0697
      9 C          -0.3646   -4.9213   -0.0213 C.3     1  UNL1        0.0066
     10 C          -1.7322   -5.6180   -0.1599 C.3     1  UNL1       -0.0283
     11 N          -1.6704   -7.1358   -0.0044 N.4     1  UNL1        0.2360
     12 C          -3.0690   -7.7288   -0.0370 C.3     1  UNL1       -0.0318
     13 C          -3.0423   -9.2435    0.1084 C.3     1  UNL1       -0.0116
     14 C          -2.1462   -9.8782   -0.9426 C.3     1  UNL1       -0.0302
     15 C          -0.7493   -9.2975   -0.8142 C.3     1  UNL1        0.1005
     16 H          -0.3372   -9.5222    0.1794 H       1  UNL1        0.0468
     17 C          -0.7557   -7.8001   -1.0418 C.3     1  UNL1       -0.0186
     18 C           0.1791   -9.9221   -1.8492 C.2     1  UNL1        0.3641
     19 O           0.3071  -11.1714   -1.7466 O.co2   1  UNL1       -0.2458
     20 O           0.7039   -9.1139   -2.6599 O.co2   1  UNL1       -0.2458
     21 C           1.9219   -3.0682    0.0807 C.ar    1  UNL1        0.0230
     22 C           2.8037   -3.5635   -0.8865 C.ar    1  UNL1       -0.0357
     23 C           4.0091   -4.0722   -0.2913 C.ar    1  UNL1       -0.0512
     24 C           4.0105   -3.9745    1.0780 C.ar    1  UNL1       -0.0235
     25 S           2.5882   -3.2486    1.6612 S.2     1  UNL1       -0.0964
     26 C           2.5722   -3.6158   -2.3649 C.3     1  UNL1       -0.0386
     27 H           0.6366    0.3995    2.8540 H       1  UNL1        0.0278
     28 H          -0.9434   -0.3933    2.7518 H       1  UNL1        0.0278
     29 H           0.5432   -1.3513    2.6426 H       1  UNL1        0.0278
     30 H          -0.4995    1.9815    0.9721 H       1  UNL1        0.0626
     31 H          -0.4088    2.0304   -1.6412 H       1  UNL1        0.0693
     32 H          -1.4369   -2.9904   -0.3232 H       1  UNL1        0.0580
     33 H           0.3215   -5.3002   -0.7835 H       1  UNL1        0.0359
     34 H           0.0423   -5.1737    0.9652 H       1  UNL1        0.0359
     35 H          -2.4041   -5.2636    0.6319 H       1  UNL1        0.0817
     36 H          -2.1931   -5.4114   -1.1317 H       1  UNL1        0.0817
     37 H          -3.5298   -7.4321   -0.9860 H       1  UNL1        0.0814
     38 H          -3.6290   -7.2836    0.7921 H       1  UNL1        0.0814
     39 H          -4.0578   -9.6433    0.0110 H       1  UNL1        0.0317
     40 H          -2.6855   -9.5191    1.1076 H       1  UNL1        0.0317
     41 H          -2.1396  -10.9680   -0.8195 H       1  UNL1        0.0277
     42 H          -2.5484   -9.6820   -1.9457 H       1  UNL1        0.0277
     43 H           0.2429   -7.3881   -0.8880 H       1  UNL1        0.0822
     44 H          -1.1424   -7.5108   -2.0246 H       1  UNL1        0.0822
     45 H           4.8304   -4.5095   -0.8502 H       1  UNL1        0.0626
     46 H           4.7824   -4.2981    1.7634 H       1  UNL1        0.0693
     47 H           3.3705   -3.0902   -2.8997 H       1  UNL1        0.0278
     48 H           2.5665   -4.6582   -2.7018 H       1  UNL1        0.0278
     49 H           1.6191   -3.1676   -2.6564 H       1  UNL1        0.0278
     50 H          -1.2583   -7.3566    0.9110 H       1  UNL1        0.2034
@<TRIPOS>UNITY_ATOM_ATTR
11 1
charge 1
@<TRIPOS>BOND
     1     1     2    1
     2     1    27    1
     3     1    28    1
     4     1    29    1
     5     2     6   ar
     6     2     3   ar
     7     3     4   ar
     8     3    30    1
     9     4     5   ar
    10     4    31    1
    11     5     6   ar
    12     6     7    1
    13     7     8    2
    14     7    21    1
    15     8     9    1
    16     8    32    1
    17     9    10    1
    18     9    33    1
    19     9    34    1
    20    10    11    1
    21    10    35    1
    22    10    36    1
    23    11    17    1
    24    11    12    1
    25    11    50    1
    26    12    13    1
    27    12    37    1
    28    12    38    1
    29    13    14    1
    30    13    39    1
    31    13    40    1
    32    14    15    1
    33    14    41    1
    34    14    42    1
    35    15    16    1
    36    15    17    1
    37    15    18    1
    38    17    43    1
    39    17    44    1
    40    18    19   ar
    41    18    20   ar
    42    21    25   ar
    43    21    22   ar
    44    22    23   ar
    45    22    26    1
    46    23    24   ar
    47    23    45    1
    48    24    25   ar
    49    24    46    1
    50    26    47    1
    51    26    48    1
    52    26    49    1
