@<TRIPOS>MOLECULE
ZINC03812944
 30 30 0 0 0
SMALL
GASTEIGER

@<TRIPOS>ATOM
      1 C          -1.3782   -1.0899   -2.8027 C.3     1  UNL1       -0.0544
      2 C          -2.0075   -1.3773   -1.4341 C.3     1  UNL1        0.0303
      3 C          -2.3112   -2.8698   -1.3133 C.3     1  UNL1       -0.0544
      4 C          -1.0923   -0.8871   -0.3094 C.2     1  UNL1        0.2198
      5 O           0.0211   -0.4329   -0.5496 O.2     1  UNL1       -0.2752
      6 N          -1.6457   -0.9984    0.9622 N.am    1  UNL1       -0.2853
      7 C          -1.0512   -0.5087    2.1449 C.ar    1  UNL1        0.0341
      8 C          -1.4679   -1.0377    3.3692 C.ar    1  UNL1       -0.0384
      9 C          -0.8548   -0.6270    4.5589 C.ar    1  UNL1       -0.0332
     10 C           0.1732    0.3267    4.5152 C.ar    1  UNL1        0.0869
     11 C           0.5931    0.8993    3.3130 C.ar    1  UNL1        0.0826
     12 C          -0.0606    0.4805    2.1366 C.ar    1  UNL1       -0.0268
     13 C           1.7029    1.9070    3.1822 C.3     1  UNL1        0.4195
     14 F           2.4686    2.0683    4.2887 F       1  UNL1       -0.1658
     15 F           2.5767    1.5645    2.1929 F       1  UNL1       -0.1658
     16 F           1.2384    3.1420    2.8511 F       1  UNL1       -0.1658
     17 N           0.7803    0.7027    5.7789 N.pl3   1  UNL1       -0.1860
     18 O           1.3984   -0.1798    6.3838 O.2     1  UNL1       -0.1726
     19 O           0.5894    1.8621    6.1640 O.co2   1  UNL1       -0.7770
     20 H          -0.5928   -1.8172   -3.0406 H       1  UNL1        0.0237
     21 H          -0.9275   -0.0923   -2.8430 H       1  UNL1        0.0237
     22 H          -2.1351   -1.1425   -3.5919 H       1  UNL1        0.0237
     23 H          -2.9423   -0.8085   -1.3648 H       1  UNL1        0.0389
     24 H          -1.3902   -3.4540   -1.2049 H       1  UNL1        0.0237
     25 H          -2.9399   -3.0815   -0.4429 H       1  UNL1        0.0237
     26 H          -2.8438   -3.2338   -2.1993 H       1  UNL1        0.0237
     27 H          -2.4475   -1.6071    1.0697 H       1  UNL1        0.1548
     28 H          -2.2462   -1.7957    3.4184 H       1  UNL1        0.0637
     29 H          -1.1678   -1.0644    5.5070 H       1  UNL1        0.0640
     30 H           0.2368    0.9559    1.2016 H       1  UNL1        0.0642
@<TRIPOS>UNITY_ATOM_ATTR
19 1
charge -1
@<TRIPOS>BOND
     1     1     2    1
     2     1    20    1
     3     1    21    1
     4     1    22    1
     5     2     3    1
     6     2     4    1
     7     2    23    1
     8     3    24    1
     9     3    25    1
    10     3    26    1
    11     4     5    2
    12     4     6   am
    13     6     7    1
    14     6    27    1
    15     7    12   ar
    16     7     8   ar
    17     8     9   ar
    18     8    28    1
    19     9    10   ar
    20     9    29    1
    21    10    11   ar
    22    10    17    1
    23    11    12   ar
    24    11    13    1
    25    12    30    1
    26    13    14    1
    27    13    15    1
    28    13    16    1
    29    17    18    2
    30    17    19    1
