@<TRIPOS>MOLECULE
ZINC01999544
 43 43 0 0 0
SMALL
GASTEIGER

@<TRIPOS>ATOM
      1 C          -3.9702    5.5558    1.4856 C.3     1  UNL1       -0.0219
      2 C          -3.3588    4.6955    0.3874 C.3     1  UNL1       -0.0283
      3 C          -2.3734    5.5250   -0.4386 C.3     1  UNL1       -0.0219
      4 N          -2.5859    3.5391    0.9647 N.4     1  UNL1        0.2307
      5 C          -3.2549    2.5322    1.8835 C.3     1  UNL1       -0.0035
      6 C          -2.1882    1.4532    2.2087 C.3     1  UNL1        0.1285
      7 H          -1.3962    1.9233    2.7981 H       1  UNL1        0.0681
      8 C          -2.7437    0.2139    2.9510 C.3     1  UNL1        0.1206
      9 O          -1.6873   -0.7255    3.2990 O.3     1  UNL1       -0.4855
     10 C          -1.4477   -0.7524    4.6605 C.ar    1  UNL1        0.1620
     11 C          -0.9822    0.4208    5.2635 C.ar    1  UNL1       -0.0163
     12 C          -0.8816    0.5220    6.6416 C.ar    1  UNL1       -0.0581
     13 C          -1.2387   -0.5606    7.4336 C.ar    1  UNL1       -0.0581
     14 C          -1.5778   -1.7770    6.8379 C.ar    1  UNL1       -0.0163
     15 C          -1.6234   -1.9123    5.4432 C.ar    1  UNL1        0.1624
     16 O          -1.7951   -3.1141    4.8047 O.3     1  UNL1       -0.4843
     17 C          -1.6679   -4.3345    5.5617 C.3     1  UNL1        0.1077
     18 C          -0.2541   -4.8085    5.8281 C.2     1  UNL1       -0.0542
     19 C           0.9076   -4.2387    5.4781 C.2     1  UNL1       -0.0995
     20 O          -1.5682    1.0953    0.9610 O.3     1  UNL1       -0.3831
     21 H          -3.2539    5.7675    2.2867 H       1  UNL1        0.0284
     22 H          -4.8471    5.0700    1.9245 H       1  UNL1        0.0284
     23 H          -4.3062    6.5180    1.0804 H       1  UNL1        0.0284
     24 H          -4.1375    4.2795   -0.2609 H       1  UNL1        0.0845
     25 H          -1.5550    5.9060    0.1837 H       1  UNL1        0.0284
     26 H          -1.9337    4.9303   -1.2463 H       1  UNL1        0.0284
     27 H          -2.8713    6.3880   -0.8929 H       1  UNL1        0.0284
     28 H          -2.2260    2.9563    0.1884 H       1  UNL1        0.2017
     29 H          -3.5922    3.0575    2.7803 H       1  UNL1        0.0841
     30 H          -4.1002    2.1183    1.3256 H       1  UNL1        0.0841
     31 H          -3.3212    0.5234    3.8336 H       1  UNL1        0.0725
     32 H          -3.4295   -0.3290    2.2893 H       1  UNL1        0.0725
     33 H          -0.6645    1.2639    4.6599 H       1  UNL1        0.0655
     34 H          -0.5331    1.4412    7.1011 H       1  UNL1        0.0619
     35 H          -1.2104   -0.4759    8.5171 H       1  UNL1        0.0619
     36 H          -1.7991   -2.6007    7.5083 H       1  UNL1        0.0655
     37 H          -2.2411   -4.3026    6.4954 H       1  UNL1        0.0742
     38 H          -2.1537   -5.1166    4.9685 H       1  UNL1        0.0742
     39 H          -0.1981   -5.7503    6.3760 H       1  UNL1        0.0600
     40 H           1.8622   -4.6979    5.7224 H       1  UNL1        0.0533
     41 H           0.9378   -3.3013    4.9234 H       1  UNL1        0.0533
     42 H          -0.9342    0.3730    1.1633 H       1  UNL1        0.2102
     43 H          -1.7378    3.8890    1.4191 H       1  UNL1        0.2017
@<TRIPOS>UNITY_ATOM_ATTR
4 1
charge 1
@<TRIPOS>BOND
     1     1     2    1
     2     1    21    1
     3     1    22    1
     4     1    23    1
     5     2     3    1
     6     2     4    1
     7     2    24    1
     8     3    25    1
     9     3    26    1
    10     3    27    1
    11     4     5    1
    12     4    28    1
    13     4    43    1
    14     5     6    1
    15     5    29    1
    16     5    30    1
    17     6     7    1
    18     6     8    1
    19     6    20    1
    20     8     9    1
    21     8    31    1
    22     8    32    1
    23     9    10    1
    24    10    15   ar
    25    10    11   ar
    26    11    12   ar
    27    11    33    1
    28    12    13   ar
    29    12    34    1
    30    13    14   ar
    31    13    35    1
    32    14    15   ar
    33    14    36    1
    34    15    16    1
    35    16    17    1
    36    17    18    1
    37    17    37    1
    38    17    38    1
    39    18    19    2
    40    18    39    1
    41    19    40    1
    42    19    41    1
    43    20    42    1
