@<TRIPOS>MOLECULE
ZINC03830511
 44 46 0 0 0
SMALL
GASTEIGER

@<TRIPOS>ATOM
      1 C           1.3669    0.3718   -0.2688 C.3     1  UNL1        0.0332
      2 C           0.4847   -0.0874   -1.3929 C.2     1  UNL1        0.3043
      3 O          -0.4536   -0.8667   -1.2594 O.2     1  UNL1       -0.2512
      4 O           0.8426    0.5310   -2.5339 O.3     1  UNL1       -0.4603
      5 C           0.2046    0.1609   -3.7689 C.3     1  UNL1        0.1166
      6 C           0.7248   -1.1665   -4.3053 C.2     1  UNL1        0.0057
      7 CA          2.0196   -1.3784   -4.6485 C.2     1  UNL1        0.1295
      8 N           2.3818   -2.6680   -4.9198 N.am    1  UNL1       -0.2488
      9 C           1.5796   -3.5244   -5.7495 C.3     1  UNL1        0.1042
     10 H           1.4737   -3.1450   -6.7751 H       1  UNL1        0.0644
     11 CA          2.7173   -4.5967   -5.5985 C.3     1  UNL1        0.1283
     12 HA          3.1371   -4.9484   -6.5447 H       1  UNL1        0.0622
     13 C           3.5280   -3.3767   -4.9992 C.2     1  UNL1        0.2440
     14 O           4.6407   -3.2559   -4.5354 O.2     1  UNL1       -0.2731
     15 N           2.6064   -5.6888   -4.5862 N.am    1  UNL1       -0.3011
     16 C           2.1467   -6.9627   -4.6709 C.2     1  UNL1        0.2239
     17 O           2.3026   -7.7074   -3.6944 O.2     1  UNL1       -0.2749
     18 C           1.4202   -7.4639   -5.9013 C.3     1  UNL1        0.0748
     19 S           2.5896   -7.9124   -7.2214 S.3     1  UNL1       -0.1158
     20 C           1.5531   -8.6935   -8.4582 C.ar    1  UNL1        0.0112
     21 C           2.1621   -9.0046   -9.6768 C.ar    1  UNL1       -0.0302
     22 C           1.4083   -9.6125  -10.6700 C.ar    1  UNL1        0.0286
     23 N           0.1068   -9.9328  -10.5315 N.ar    1  UNL1       -0.2632
     24 C          -0.4617   -9.6319   -9.3464 C.ar    1  UNL1        0.0286
     25 C           0.2087   -9.0219   -8.2940 C.ar    1  UNL1       -0.0302
     26 S           0.0300   -3.8960   -4.9058 S.3     1  UNL1       -0.1310
     27 C          -0.3742   -2.2105   -4.3708 C.3     1  UNL1        0.0220
     28 C           3.1218   -0.2328   -4.8101 C.2     1  UNL1        0.4007
     29 O           3.9952   -0.4942   -5.6895 O.co2   1  UNL1       -0.2392
     30 OXT         2.9315    0.8423   -4.1787 O.co2   1  UNL1       -0.2392
     31 H           1.2557   -0.3029    0.5850 H       1  UNL1        0.0342
     32 H           1.0808    1.3812    0.0302 H       1  UNL1        0.0342
     33 H           2.4161    0.3487   -0.5773 H       1  UNL1        0.0342
     34 H          -0.8805    0.1267   -3.5978 H       1  UNL1        0.0746
     35 H           0.3595    0.9619   -4.4961 H       1  UNL1        0.0746
     36 H           3.0513   -5.5067   -3.6825 H       1  UNL1        0.1496
     37 H           0.8868   -8.3695   -5.5872 H       1  UNL1        0.0474
     38 H           0.6848   -6.7345   -6.2443 H       1  UNL1        0.0474
     39 H           3.2078   -8.7816   -9.8605 H       1  UNL1        0.0644
     40 H           1.8493   -9.8627  -11.6302 H       1  UNL1        0.0830
     41 H          -1.5101   -9.9043   -9.2566 H       1  UNL1        0.0830
     42 H          -0.3379   -8.8300   -7.3805 H       1  UNL1        0.0644
     43 H          -1.1495   -1.8441   -5.0563 H       1  UNL1        0.0424
     44 H          -0.8406   -2.3167   -3.3882 H       1  UNL1        0.0424
@<TRIPOS>BOND
     1     1     2    1
     2     1    31    1
     3     1    32    1
     4     1    33    1
     5     2     3    2
     6     2     4    1
     7     4     5    1
     8     5     6    1
     9     5    34    1
    10     5    35    1
    11     6    27    1
    12     6     7    2
    13     7     8    1
    14     7    28    1
    15     8    13   am
    16     8     9    1
    17     9    10    1
    18     9    11    1
    19     9    26    1
    20    11    13    1
    21    13    14    2
    22    15    16   am
    23    15    36    1
    24    16    17    2
    25    16    18    1
    26    18    19    1
    27    18    37    1
    28    18    38    1
    29    19    20    1
    30    20    25   ar
    31    20    21   ar
    32    21    22   ar
    33    21    39    1
    34    22    23   ar
    35    22    40    1
    36    23    24   ar
    37    24    25   ar
    38    24    41    1
    39    25    42    1
    40    26    27    1
    41    27    43    1
    42    27    44    1
    43    28    29   ar
    44    28    30   ar
    45    11    15    1
    46    11    12    1
