@<TRIPOS>MOLECULE
ZINC00057421
 28 29 0 0 0
SMALL
GASTEIGER

@<TRIPOS>ATOM
      1 C           1.6390    0.7591   -0.4618 C.3     1  UNL1       -0.0470
      2 C           0.5081    0.3910   -1.4112 C.3     1  UNL1        0.0218
      3 N           0.8892   -0.7096   -2.2973 N.ar    1  UNL1       -0.3312
      4 C           0.5522   -2.0264   -2.0431 C.ar    1  UNL1        0.0243
      5 C           0.8166   -3.0808   -2.8292 C.ar    1  UNL1        0.1264
      6 C           1.5773   -2.8149   -4.0688 C.ar    1  UNL1        0.2050
      7 O           2.0501   -3.6785   -4.8005 O.2     1  UNL1       -0.2862
      8 C           1.8380   -1.3952   -4.4148 C.ar    1  UNL1        0.0650
      9 C           1.5212   -0.3744   -3.5123 C.ar    1  UNL1        0.1446
     10 N           1.8110    0.9266   -3.8036 N.ar    1  UNL1       -0.2341
     11 C           2.3897    1.2193   -4.9942 C.ar    1  UNL1        0.0406
     12 C           2.7026    0.2512   -5.9411 C.ar    1  UNL1       -0.0398
     13 C           2.4229   -1.0764   -5.6438 C.ar    1  UNL1       -0.0457
     14 C           2.7352    2.6569   -5.2385 C.3     1  UNL1       -0.0223
     15 C           0.3051   -4.4626   -2.4271 C.2     1  UNL1        0.3916
     16 O           0.0602   -5.2778   -3.3579 O.co2   1  UNL1       -0.2404
     17 O           0.0984   -4.6192   -1.1830 O.co2   1  UNL1       -0.2404
     18 H           1.9378   -0.0995    0.1486 H       1  UNL1        0.0247
     19 H           1.3168    1.5584    0.2138 H       1  UNL1        0.0247
     20 H           2.5220    1.1104   -1.0044 H       1  UNL1        0.0247
     21 H          -0.3629    0.0968   -0.8109 H       1  UNL1        0.0489
     22 H           0.1810    1.2746   -1.9729 H       1  UNL1        0.0489
     23 H           0.0062   -2.1722   -1.1121 H       1  UNL1        0.0819
     24 H           3.1608    0.5104   -6.8870 H       1  UNL1        0.0636
     25 H           2.6562   -1.8626   -6.3557 H       1  UNL1        0.0626
     26 H           1.8881    3.2989   -4.9792 H       1  UNL1        0.0292
     27 H           3.5959    2.9385   -4.6240 H       1  UNL1        0.0292
     28 H           2.9865    2.8396   -6.2887 H       1  UNL1        0.0292
@<TRIPOS>BOND
     1     1     2    1
     2     1    18    1
     3     1    19    1
     4     1    20    1
     5     2     3    1
     6     2    21    1
     7     2    22    1
     8     3     9   ar
     9     3     4   ar
    10     4     5   ar
    11     4    23    1
    12     5     6   ar
    13     5    15    1
    14     6     7    2
    15     6     8   ar
    16     8    13   ar
    17     8     9   ar
    18     9    10   ar
    19    10    11   ar
    20    11    12   ar
    21    11    14    1
    22    12    13   ar
    23    12    24    1
    24    13    25    1
    25    14    26    1
    26    14    27    1
    27    14    28    1
    28    15    16   ar
    29    15    17   ar
