@<TRIPOS>MOLECULE
ZINC03831120
 60 63 0 0 0
SMALL
GASTEIGER

@<TRIPOS>ATOM
      1 C          -4.2058   -0.3148    3.7547 C.3     1  UNL1       -0.0484
      2 C          -4.8962   -0.9566    2.5434 C.3     1  UNL1        0.0419
      3 CA         -5.1824    0.0679    1.4183 C.3     1  UNL1        0.1423
      4 HA         -4.4816    0.9096    1.5166 H       1  UNL1        0.0632
      5 N          -4.8757   -0.5789    0.1255 N.am    1  UNL1       -0.2707
      6 C          -4.3712   -1.9557    0.1231 C.3     1  UNL1        0.1005
      7 H          -5.1531   -2.6753   -0.1388 H       1  UNL1        0.0640
      8 S          -3.6725   -2.1739    1.7985 S.3     1  UNL1       -0.1273
      9 CA         -3.4301   -1.5538   -1.0454 C.3     1  UNL1        0.1277
     10 HA         -3.7918   -1.8679   -2.0326 H       1  UNL1        0.0622
     11 C          -3.8898   -0.1130   -0.6947 C.2     1  UNL1        0.2402
     12 O          -3.4132    0.9862   -0.8799 O.2     1  UNL1       -0.2734
     13 N          -1.9479   -1.7504   -0.9194 N.am    1  UNL1       -0.2999
     14 C          -1.2523   -2.8230   -1.4559 C.2     1  UNL1        0.2386
     15 O          -1.8025   -3.7397   -2.0649 O.2     1  UNL1       -0.2734
     16 CA          0.2836   -2.8049   -1.1439 C.3     1  UNL1        0.1261
     17 HA          0.5689   -1.7505   -1.0431 H       1  UNL1        0.0646
     18 C           0.5569   -3.5292    0.1701 C.ar    1  UNL1       -0.0184
     19 C           1.3317   -2.9066    1.1587 C.ar    1  UNL1       -0.0563
     20 C           1.5702   -3.5447    2.3793 C.ar    1  UNL1       -0.0614
     21 C           1.0420   -4.8108    2.6150 C.ar    1  UNL1       -0.0617
     22 C           0.2976   -5.4552    1.6314 C.ar    1  UNL1       -0.0614
     23 C           0.0662   -4.8248    0.4076 C.ar    1  UNL1       -0.0563
     24 N           1.1292   -3.3806   -2.1904 N.am    1  UNL1       -0.2836
     25 C           2.4459   -3.0078   -2.3228 C.2     1  UNL1        0.3106
     26 O           2.9116   -2.0169   -1.7617 O.2     1  UNL1       -0.2521
     27 N           3.2329   -3.8190   -3.1127 N.am    1  UNL1       -0.2069
     28 C           4.6719   -3.6287   -3.2242 C.3     1  UNL1        0.0430
     29 C           5.1917   -4.9310   -3.8339 C.3     1  UNL1        0.0552
     30 N           3.9787   -5.4204   -4.5244 N.am    1  UNL1       -0.1583
     31 C           2.8304   -4.8534   -3.9389 C.2     1  UNL1        0.3313
     32 O           1.6883   -5.2360   -4.1366 O.2     1  UNL1       -0.2503
     33 S           4.0422   -6.9661   -5.1362 S.O2    1  UNL1        0.0459
     34 O           5.1360   -6.9869   -6.0887 O.2     1  UNL1       -0.1552
     35 O           4.0448   -7.8791   -4.0139 O.2     1  UNL1       -0.1552
     36 C           2.5260   -7.1768   -6.0572 C.3     1  UNL1        0.0739
     37 C          -6.5930    0.7126    1.5266 C.2     1  UNL1        0.3774
     38 O          -6.8057    1.3477    2.6018 O.co2   1  UNL1       -0.2442
     39 C          -6.1215   -1.7540    3.0234 C.3     1  UNL1       -0.0484
     40 H          -4.8644    0.4069    4.2501 H       1  UNL1        0.0244
     41 H          -3.9315   -1.0650    4.5071 H       1  UNL1        0.0244
     42 H          -3.2930    0.2188    3.4672 H       1  UNL1        0.0244
     43 H          -1.4123   -0.9421   -0.6148 H       1  UNL1        0.1496
     44 H           1.7560   -1.9198    0.9857 H       1  UNL1        0.0621
     45 H           2.1496   -3.0467    3.1475 H       1  UNL1        0.0618
     46 H           1.2004   -5.2946    3.5768 H       1  UNL1        0.0618
     47 H          -0.1168   -6.4430    1.8156 H       1  UNL1        0.0618
     48 H          -0.5190   -5.3455   -0.3492 H       1  UNL1        0.0621
     49 H           0.8343   -4.2778   -2.5633 H       1  UNL1        0.1513
     50 H           4.8514   -2.7835   -3.8993 H       1  UNL1        0.0486
     51 H           5.1228   -3.4038   -2.2536 H       1  UNL1        0.0486
     52 H           6.0381   -4.7695   -4.5052 H       1  UNL1        0.0499
     53 H           5.4722   -5.6290   -3.0358 H       1  UNL1        0.0499
     54 H           1.6912   -7.2951   -5.3657 H       1  UNL1        0.0482
     55 H           2.3857   -6.3236   -6.7225 H       1  UNL1        0.0482
     56 H           2.6226   -8.0909   -6.6475 H       1  UNL1        0.0482
     57 H          -5.8372   -2.5447    3.7290 H       1  UNL1        0.0244
     58 H          -6.8281   -1.1118    3.5636 H       1  UNL1        0.0244
     59 H          -6.6676   -2.2183    2.1958 H       1  UNL1        0.0244
     60 OXT        -7.3750    0.5239    0.5509 O.co2   1  UNL1       -0.2442
@<TRIPOS>BOND
     1     1     2    1
     2     1    40    1
     3     1    41    1
     4     1    42    1
     5     2     8    1
     6     2     3    1
     7     2    39    1
     8     3     4    1
     9     3     5    1
    10     3    37    1
    11     5    11   am
    12     5     6    1
    13     6     7    1
    14     6     8    1
    15     6     9    1
    16     9    10    1
    17     9    11    1
    18     9    13    1
    19    11    12    2
    20    13    14   am
    21    13    43    1
    22    14    15    2
    23    14    16    1
    24    16    17    1
    25    16    18    1
    26    16    24    1
    27    18    23   ar
    28    18    19   ar
    29    19    20   ar
    30    19    44    1
    31    20    21   ar
    32    20    45    1
    33    21    22   ar
    34    21    46    1
    35    22    23   ar
    36    22    47    1
    37    23    48    1
    38    24    25   am
    39    24    49    1
    40    25    26    2
    41    25    27   am
    42    27    31   am
    43    27    28    1
    44    28    29    1
    45    28    50    1
    46    28    51    1
    47    29    30    1
    48    29    52    1
    49    29    53    1
    50    30    31   am
    51    30    33    1
    52    31    32    2
    53    33    34    2
    54    33    35    2
    55    33    36    1
    56    36    54    1
    57    36    55    1
    58    36    56    1
    59    37    38   ar
    60    37    60   ar
    61    39    57    1
    62    39    58    1
    63    39    59    1
