@<TRIPOS>MOLECULE
ZINC03872735
 23 23 0 0 0
SMALL
GASTEIGER

@<TRIPOS>ATOM
      1 C           0.1438   -2.1845   -0.1031 C.ar    1  UNL1       -0.0590
      2 C           1.1705   -1.5162    0.5635 C.ar    1  UNL1       -0.0427
      3 C           1.2163   -0.1123    0.5890 C.ar    1  UNL1        0.0510
      4 C           0.2233    0.6349   -0.0584 C.ar    1  UNL1        0.0326
      5 C          -0.8125   -0.0534   -0.7246 C.ar    1  UNL1        0.0510
      6 C          -0.8472   -1.4523   -0.7480 C.ar    1  UNL1       -0.0427
      7 CL         -2.0872    0.7629   -1.5701 Cl      1  UNL1       -0.0828
      8 C           0.1624    2.1159   -0.0247 C.2     1  UNL1        0.0725
      9 N           1.1748    2.9338    0.0308 N.2     1  UNL1       -0.1193
     10 N           0.7814    4.2462    0.0114 N.pl3   1  UNL1       -0.1576
     11 C           1.6867    5.2643    0.0654 C.cat   1  UNL1        0.3645
     12 N           1.2557    6.5348    0.0188 N.pl3   1  UNL1       -0.2902
     13 N           2.9965    5.0284    0.1628 N.pl3   1  UNL1       -0.2902
     14 CL          2.4903    0.6073    1.5076 Cl      1  UNL1       -0.0828
     15 H           0.1118   -3.2733   -0.1151 H       1  UNL1        0.0618
     16 H           1.9294   -2.1033    1.0783 H       1  UNL1        0.0632
     17 H          -1.6490   -1.9788   -1.2652 H       1  UNL1        0.0632
     18 H          -0.8541    2.5431   -0.0685 H       1  UNL1        0.0867
     19 H           1.9031    7.3117    0.0553 H       1  UNL1        0.2546
     20 H           0.2730    6.7606   -0.0587 H       1  UNL1        0.2546
     21 H           3.2952    4.0590    0.2035 H       1  UNL1        0.2546
     22 H           3.6874    5.7603    0.2072 H       1  UNL1        0.2546
     23 H          -0.1955    4.5148   -0.0583 H       1  UNL1        0.2921
@<TRIPOS>BOND
     1     1     6   ar
     2     1     2   ar
     3     1    15    1
     4     2     3   ar
     5     2    16    1
     6     3     4   ar
     7     3    14    1
     8     4     5   ar
     9     4     8    1
    10     5     6   ar
    11     5     7    1
    12     6    17    1
    13     8     9    2
    14     8    18    1
    15     9    10    1
    16    10    11    2
    17    10    23    1
    18    11    12    1
    19    11    13    1
    20    12    19    1
    21    12    20    1
    22    13    21    1
    23    13    22    1
