@<TRIPOS>MOLECULE
ZINC00020229
 47 48 0 0 0
SMALL
GASTEIGER

@<TRIPOS>ATOM
      1 C           1.7901   -3.2180    2.1055 C.3     1  UNL1       -0.0245
      2 C           1.4006   -2.0146    2.9411 C.3     1  UNL1       -0.0345
      3 N           1.0246   -0.7893    2.1449 N.4     1  UNL1        0.2383
      4 C          -0.1779   -0.9561    1.2391 C.3     1  UNL1       -0.0314
      5 C           0.4161   -1.2040   -0.1288 C.3     1  UNL1       -0.0074
      6 C           1.7128   -0.4158   -0.1576 C.3     1  UNL1       -0.0034
      7 C           2.0592   -0.0689    1.2930 C.3     1  UNL1       -0.0048
      8 H           1.8251    0.9957    1.4389 H       1  UNL1        0.0867
      9 C           3.5410   -0.2625    1.6613 C.3     1  UNL1        0.0548
     10 N           4.4206    0.4862    0.7730 N.am    1  UNL1       -0.3059
     11 C           5.7633    0.1610    0.6205 C.2     1  UNL1        0.2478
     12 O           6.2509   -0.8235    1.1588 O.2     1  UNL1       -0.2701
     13 C           6.5664    1.1193   -0.2136 C.ar    1  UNL1        0.0801
     14 C           6.2339    2.4850   -0.1551 C.ar    1  UNL1       -0.0197
     15 C           6.9358    3.4159   -0.9234 C.ar    1  UNL1        0.1060
     16 C           7.9966    3.0141   -1.7265 C.ar    1  UNL1       -0.0319
     17 C           8.3498    1.6648   -1.7701 C.ar    1  UNL1       -0.0173
     18 C           7.6449    0.7041   -1.0226 C.ar    1  UNL1        0.1323
     19 O           7.9214   -0.6362   -1.1020 O.3     1  UNL1       -0.4944
     20 C           9.2249   -0.9929   -1.5622 C.3     1  UNL1        0.0788
     21 S           6.3821    5.0972   -0.9660 S.O2    1  UNL1        0.0560
     22 O           6.9190    5.7386   -2.1404 O.2     1  UNL1       -0.1533
     23 O           4.9745    5.1038   -0.6437 O.2     1  UNL1       -0.1533
     24 N           7.1773    5.7626    0.3472 N.3     1  UNL1       -0.2035
     25 H           0.9475   -3.5979    1.5218 H       1  UNL1        0.0281
     26 H           2.1091   -4.0302    2.7679 H       1  UNL1        0.0281
     27 H           2.6153   -3.0126    1.4212 H       1  UNL1        0.0281
     28 H           0.5227   -2.2599    3.5511 H       1  UNL1        0.0812
     29 H           2.2033   -1.7194    3.6232 H       1  UNL1        0.0812
     30 H          -0.7225   -0.0053    1.2681 H       1  UNL1        0.0814
     31 H          -0.8206   -1.7605    1.6066 H       1  UNL1        0.0814
     32 H           0.6289   -2.2676   -0.2740 H       1  UNL1        0.0319
     33 H          -0.2643   -0.9049   -0.9322 H       1  UNL1        0.0319
     34 H           2.5005   -0.9906   -0.6557 H       1  UNL1        0.0322
     35 H           1.5818    0.5105   -0.7309 H       1  UNL1        0.0322
     36 H           3.7251    0.1060    2.6773 H       1  UNL1        0.0518
     37 H           3.8405   -1.3118    1.6345 H       1  UNL1        0.0518
     38 H           4.0673    1.3061    0.2968 H       1  UNL1        0.1492
     39 H           5.4404    2.8421    0.4951 H       1  UNL1        0.0646
     40 H           8.5437    3.7349   -2.3314 H       1  UNL1        0.0638
     41 H           9.1700    1.3886   -2.4268 H       1  UNL1        0.0655
     42 H           9.3247   -0.8157   -2.6388 H       1  UNL1        0.0660
     43 H          10.0038   -0.4603   -1.0047 H       1  UNL1        0.0660
     44 H           9.3653   -2.0642   -1.3920 H       1  UNL1        0.0660
     45 H           7.9297    6.3778    0.0329 H       1  UNL1        0.1442
     46 H           6.5073    6.2393    0.9544 H       1  UNL1        0.1442
     47 H           0.7362   -0.1154    2.8682 H       1  UNL1        0.2037
@<TRIPOS>UNITY_ATOM_ATTR
3 1
charge 1
@<TRIPOS>BOND
     1     1     2    1
     2     1    25    1
     3     1    26    1
     4     1    27    1
     5     2     3    1
     6     2    28    1
     7     2    29    1
     8     3     7    1
     9     3     4    1
    10     3    47    1
    11     4     5    1
    12     4    30    1
    13     4    31    1
    14     5     6    1
    15     5    32    1
    16     5    33    1
    17     6     7    1
    18     6    34    1
    19     6    35    1
    20     9    10    1
    21     9    36    1
    22     9    37    1
    23    10    11   am
    24    10    38    1
    25    11    12    2
    26    11    13    1
    27    13    18   ar
    28    13    14   ar
    29    14    15   ar
    30    14    39    1
    31    15    16   ar
    32    15    21    1
    33    16    17   ar
    34    16    40    1
    35    17    18   ar
    36    17    41    1
    37    18    19    1
    38    19    20    1
    39    20    42    1
    40    20    43    1
    41    20    44    1
    42    21    22    2
    43    21    23    2
    44    21    24    1
    45    24    45    1
    46    24    46    1
    47     7     9    1
    48     7     8    1
