@<TRIPOS>MOLECULE
ZINC00020221
 33 34 0 0 0
SMALL
GASTEIGER

@<TRIPOS>ATOM
      1 C          -1.3489    0.8520    6.1935 C.3     1  UNL1       -0.0061
      2 C          -0.7009    0.8370    4.8340 C.2     1  UNL1        0.1306
      3 O          -0.6509    1.8556    4.1462 O.2     1  UNL1       -0.2977
      4 C          -0.1281   -0.4932    4.3790 C.3     1  UNL1        0.0095
      5 C           0.5385   -0.3775    3.0100 C.3     1  UNL1       -0.0210
      6 C           1.0797   -1.6527    2.4024 C.ar    1  UNL1       -0.0464
      7 C           0.5631   -2.9229    2.6909 C.ar    1  UNL1       -0.0580
      8 C           0.9863   -4.0451    1.9717 C.ar    1  UNL1       -0.0537
      9 C           1.9090   -3.9231    0.9237 C.ar    1  UNL1       -0.0144
     10 C           2.2729   -5.0219    0.1318 C.ar    1  UNL1       -0.0122
     11 C           3.1425   -4.8792   -0.9555 C.ar    1  UNL1        0.1207
     12 C           3.6868   -3.6264   -1.2295 C.ar    1  UNL1       -0.0194
     13 C           3.3583   -2.5271   -0.4289 C.ar    1  UNL1       -0.0506
     14 C           2.4593   -2.6560    0.6378 C.ar    1  UNL1       -0.0174
     15 C           2.0531   -1.5445    1.3934 C.ar    1  UNL1       -0.0508
     16 O           3.3702   -6.0283   -1.6622 O.3     1  UNL1       -0.4951
     17 C           4.1713   -5.9130   -2.8318 C.3     1  UNL1        0.0788
     18 H          -1.8237    1.8217    6.3653 H       1  UNL1        0.0306
     19 H          -0.5902    0.6823    6.9620 H       1  UNL1        0.0306
     20 H          -2.1151    0.0740    6.2442 H       1  UNL1        0.0306
     21 H           0.5979   -0.8329    5.1261 H       1  UNL1        0.0345
     22 H          -0.9623   -1.2022    4.3505 H       1  UNL1        0.0345
     23 H          -0.1844    0.0326    2.2921 H       1  UNL1        0.0317
     24 H           1.3547    0.3536    3.0846 H       1  UNL1        0.0317
     25 H          -0.2027   -3.0628    3.4465 H       1  UNL1        0.0620
     26 H           0.5515   -5.0142    2.2078 H       1  UNL1        0.0624
     27 H           1.8499   -6.0052    0.3338 H       1  UNL1        0.0660
     28 H           4.3617   -3.4649   -2.0632 H       1  UNL1        0.0654
     29 H           3.7920   -1.5577   -0.6677 H       1  UNL1        0.0625
     30 H           2.4650   -0.5627    1.1596 H       1  UNL1        0.0626
     31 H           3.6845   -5.2771   -3.5787 H       1  UNL1        0.0660
     32 H           5.1739   -5.5454   -2.5906 H       1  UNL1        0.0660
     33 H           4.2797   -6.9125   -3.2610 H       1  UNL1        0.0660
@<TRIPOS>BOND
     1     1     2    1
     2     1    18    1
     3     1    19    1
     4     1    20    1
     5     2     3    2
     6     2     4    1
     7     4     5    1
     8     4    21    1
     9     4    22    1
    10     5     6    1
    11     5    23    1
    12     5    24    1
    13     6    15   ar
    14     6     7   ar
    15     7     8   ar
    16     7    25    1
    17     8     9   ar
    18     8    26    1
    19     9    14   ar
    20     9    10   ar
    21    10    11   ar
    22    10    27    1
    23    11    12   ar
    24    11    16    1
    25    12    13   ar
    26    12    28    1
    27    13    14   ar
    28    13    29    1
    29    14    15   ar
    30    15    30    1
    31    16    17    1
    32    17    31    1
    33    17    32    1
    34    17    33    1
