@<TRIPOS>MOLECULE
ZINC03795098
 30 31 0 0 0
SMALL
GASTEIGER

@<TRIPOS>ATOM
      1 C5         -1.2851    0.6788   -0.2305 C.ar    1    C1       -0.0056
      2 C6         -1.1292   -0.6428   -0.1735 C.ar    1    C1        0.0152
      3 N1          0.0961   -1.2129    0.1170 N.ar    1    C1       -0.2700
      4 C2          1.2201   -0.4115    0.3282 C.ar    1    C1        0.3522
      5 O2          2.3245   -0.8847    0.5775 O.2     1    C1       -0.2444
      6 N3          1.0767    0.9541    0.2711 N.ar    1    C1       -0.1783
      7 C4         -0.0786    1.4789    0.0212 C.ar    1    C1        0.1230
      8 N4         -0.1438    2.8437    0.0044 N.pl3   1    C1       -0.3430
      9 C1*         0.1896   -2.6747    0.1989 C.3     1    C1        0.1680
     10 H1*        -0.8279   -3.0796    0.1251 H       1    C1        0.0867
     11 C2*         1.0529   -3.4133   -0.8377 C.3     1    C1        0.1286
     12 H2*         0.5807   -4.3797   -1.0589 H       1    C1        0.0665
     13 C3*         2.3531   -3.6728   -0.0986 C.3     1    C1        0.1135
     14 H3*         3.0496   -2.8408   -0.2095 H       1    C1        0.0647
     15 C4*         1.8454   -3.8836    1.3239 C.3     1    C1        0.1126
     16 H4*         1.5241   -4.9229    1.4698 H       1    C1        0.0647
     17 O4*         0.6664   -3.0615    1.5064 O.3     1    C1       -0.3456
     18 C5*         2.8687   -3.5326    2.4005 C.3     1    C1        0.0730
     19 O5*         2.3281   -3.8570    3.6828 O.3     1    C1       -0.3924
     20 O3*         3.0113   -4.8198   -0.6363 O.3     1    C1       -0.3864
     21 O2*         1.2224   -2.7553   -2.0856 O.3     1    C1       -0.3847
     22 H5         -2.2290    1.1631   -0.4386 H       1    C1        0.0666
     23 H6         -1.9703   -1.3056   -0.3433 H       1    C1        0.0812
     24 H41        -0.8124    3.2727   -0.6241 H       1    C1        0.1437
     25 H42         0.7826    3.2679   -0.0425 H       1    C1        0.1437
     26 H5*1        3.7936   -4.0993    2.2690 H       1    C1        0.0584
     27 H5*2        3.1065   -2.4645    2.4075 H       1    C1        0.0584
     28 H5*         1.4272   -3.4781    3.6885 H       1    C1        0.2095
     29 H3*         3.9164   -4.8249   -0.2728 H       1    C1        0.2100
     30 H2*         1.9071   -3.2618   -2.5625 H       1    C1        0.2101
@<TRIPOS>BOND
     1     1     7   ar
     2     1     2   ar
     3     1    22    1
     4     2     3   ar
     5     2    23    1
     6     3     4   ar
     7     3     9    1
     8     4     5    2
     9     4     6   ar
    10     6     7   ar
    11     7     8    1
    12     8    24    1
    13     8    25    1
    14     9    10    1
    15     9    17    1
    16     9    11    1
    17    11    12    1
    18    11    13    1
    19    11    21    1
    20    13    14    1
    21    13    15    1
    22    13    20    1
    23    15    16    1
    24    15    17    1
    25    15    18    1
    26    18    19    1
    27    18    26    1
    28    18    27    1
    29    19    28    1
    30    20    29    1
    31    21    30    1
