@<TRIPOS>MOLECULE
ZINC00601291
 43 46 0 0 0
SMALL
GASTEIGER

@<TRIPOS>ATOM
      1 C          -0.4008    1.1010   -1.5609 C.3     1  UNL1       -0.0067
      2 C          -0.5973    0.7386   -3.0326 C.2     1  UNL1        0.1032
      3 C           0.3872   -0.0183   -3.5503 C.2     1  UNL1        0.0378
      4 C          -0.1411   -1.3864   -3.7636 C.2     1  UNL1        0.2464
      5 O           0.4958   -2.2537   -4.3362 O.2     1  UNL1       -0.2704
      6 N          -1.2367   -1.5575   -2.9207 N.am    1  UNL1       -0.2434
      7 C          -1.2341   -2.5606   -1.9206 C.3     1  UNL1        0.0960
      8 C          -2.1336   -3.7496   -2.1112 C.2     1  UNL1        0.2371
      9 O          -1.9814   -4.7212   -1.3628 O.2     1  UNL1       -0.2735
     10 N          -3.2623   -3.5979   -2.9051 N.am    1  UNL1       -0.2727
     11 C          -3.1943   -3.1025   -4.2532 C.ar    1  UNL1        0.0450
     12 C          -3.5706   -3.9828   -5.2830 C.ar    1  UNL1       -0.0384
     13 C          -3.5830   -3.5559   -6.6114 C.ar    1  UNL1       -0.0416
     14 C          -3.2511   -2.2344   -6.9102 C.ar    1  UNL1        0.0415
     15 C          -2.8673   -1.3280   -5.9119 C.ar    1  UNL1       -0.0326
     16 C          -2.8240   -1.7536   -4.5700 C.ar    1  UNL1        0.0421
     17 C          -2.4177   -0.8368   -3.3711 C.3     1  UNL1        0.2350
     18 O          -1.9253    0.5384   -3.5306 O.2     1  UNL1       -0.4642
     19 C          -3.7139   -0.6121   -2.5229 C.ar    1  UNL1        0.0195
     20 C          -5.0034   -0.6717   -3.1409 C.ar    1  UNL1       -0.0528
     21 C          -6.2009   -0.4666   -2.4487 C.ar    1  UNL1       -0.0613
     22 C          -6.1550   -0.1226   -1.1111 C.ar    1  UNL1       -0.0617
     23 C          -4.9144    0.0250   -0.4916 C.ar    1  UNL1       -0.0613
     24 C          -3.7119   -0.2296   -1.1783 C.ar    1  UNL1       -0.0528
     25 CL         -3.3358   -1.7276   -8.5536 Cl      1  UNL1       -0.0835
     26 C          -4.4006   -4.4104   -2.5179 C.3     1  UNL1        0.0083
     27 H          -0.7919    0.3034   -0.9178 H       1  UNL1        0.0308
     28 H          -0.8724    2.0383   -1.2652 H       1  UNL1        0.0308
     29 H           0.6625    1.1480   -1.2854 H       1  UNL1        0.0308
     30 H           1.4054   -0.0382   -3.1718 H       1  UNL1        0.0703
     31 H          -1.5351   -2.0687   -0.9907 H       1  UNL1        0.0562
     32 H          -0.2041   -2.9098   -1.7873 H       1  UNL1        0.0562
     33 H          -3.8021   -5.0217   -5.0730 H       1  UNL1        0.0637
     34 H          -3.8452   -4.2601   -7.3865 H       1  UNL1        0.0633
     35 H          -2.6284   -0.3027   -6.1782 H       1  UNL1        0.0637
     36 H          -5.1140   -0.8909   -4.2023 H       1  UNL1        0.0622
     37 H          -7.1549   -0.5693   -2.9642 H       1  UNL1        0.0618
     38 H          -7.0751    0.0452   -0.5550 H       1  UNL1        0.0618
     39 H          -4.8792    0.3507    0.5429 H       1  UNL1        0.0618
     40 H          -2.7883   -0.0405   -0.6518 H       1  UNL1        0.0622
     41 H          -5.3239   -3.9093   -2.7753 H       1  UNL1        0.0433
     42 H          -4.3328   -5.4129   -2.9518 H       1  UNL1        0.0433
     43 H          -4.3909   -4.5327   -1.4166 H       1  UNL1        0.0433
@<TRIPOS>BOND
     1     1    27    1
     2     1    28    1
     3     1    29    1
     4     2    18    1
     5     2     3    2
     6     3     4    1
     7     4     6   am
     8     6    17    1
     9     6     7    1
    10     7     8    1
    11     8    10   am
    12    10    11    1
    13    11    16   ar
    14    11    12   ar
    15    12    13   ar
    16    13    14   ar
    17    14    15   ar
    18    15    16   ar
    19    16    17    1
    20    17    18    1
    21    19    24   ar
    22    19    20   ar
    23    20    21   ar
    24    20    36    1
    25    21    22   ar
    26    21    37    1
    27    22    23   ar
    28    22    38    1
    29    23    24   ar
    30    23    39    1
    31    24    40    1
    32    26    41    1
    33    26    42    1
    34    26    43    1
    35     1     2    1
    36     3    30    1
    37     4     5    2
    38     7    31    1
    39     7    32    1
    40     8     9    2
    41    10    26    1
    42    12    33    1
    43    13    34    1
    44    14    25    1
    45    15    35    1
    46    17    19    1
