@<TRIPOS>MOLECULE
ZINC03784384
 60 62 0 0 0
SMALL
GASTEIGER

@<TRIPOS>ATOM
      1 C         -12.2033   -4.9754   -2.8406 C.3     1  UNL1       -0.0307
      2 C         -11.7416   -6.4165   -2.8280 C.3     1  UNL1        0.0868
      3 O         -10.3460   -6.5288   -2.4558 O.3     1  UNL1       -0.4914
      4 C          -9.7783   -7.7377   -2.8216 C.ar    1  UNL1        0.1344
      5 C         -10.5927   -8.8597   -3.1267 C.ar    1  UNL1        0.0036
      6 C         -10.1054  -10.0404   -3.7084 C.ar    1  UNL1        0.0546
      7 C          -8.7309  -10.1031   -3.9499 C.ar    1  UNL1        0.0966
      8 C          -7.8939   -9.0569   -3.5340 C.ar    1  UNL1       -0.0181
      9 C          -8.3883   -7.8595   -2.9700 C.ar    1  UNL1        0.0804
     10 C          -7.3144   -6.8524   -2.6621 C.2     1  UNL1        0.2479
     11 O          -6.1539   -7.1211   -2.9612 O.2     1  UNL1       -0.2701
     12 N          -7.6010   -5.6521   -2.0246 N.am    1  UNL1       -0.3080
     13 C          -6.4772   -4.8182   -1.5433 C.3     1  UNL1        0.0330
     14 C          -6.9531   -3.6298   -0.7071 C.3     1  UNL1        0.0061
     15 C          -7.6928   -2.6007   -1.5515 C.3     1  UNL1       -0.0302
     16 C          -6.3330   -3.2926   -3.5419 C.3     1  UNL1       -0.0302
     17 C          -5.5792   -4.2706   -2.6695 C.3     1  UNL1        0.0061
     18 C          -5.8687   -1.0386   -2.3525 C.3     1  UNL1       -0.0287
     19 C          -5.0448   -0.5045   -3.5335 C.3     1  UNL1        0.0029
     20 H          -4.3779   -1.3041   -3.8822 H       1  UNL1        0.0356
     21 C          -5.8895   -0.0245   -4.7285 C.3     1  UNL1       -0.0417
     22 C          -4.9860    0.3990   -5.8920 C.3     1  UNL1       -0.0343
     23 C          -3.8560    1.2782   -5.4492 C.2     1  UNL1       -0.0879
     24 C          -3.4876    1.4022   -4.1656 C.2     1  UNL1       -0.0875
     25 C          -4.1367    0.6492   -3.0463 C.3     1  UNL1       -0.0271
     26 N          -8.1174  -11.2589   -4.6243 N.pl3   1  UNL1       -0.1847
     27 O          -8.8289  -12.2382   -4.8834 O.2     1  UNL1       -0.1725
     28 O          -6.9098  -11.1821   -4.9061 O.co2   1  UNL1       -0.7770
     29 N         -11.0544  -10.9219   -4.2446 N.pl3   1  UNL1       -0.3562
     30 H         -12.0156   -4.4901   -1.8812 H       1  UNL1        0.0262
     31 H         -13.2776   -4.9316   -3.0582 H       1  UNL1        0.0262
     32 H         -11.6752   -4.4137   -3.6156 H       1  UNL1        0.0262
     33 H         -12.3546   -6.9732   -2.1081 H       1  UNL1        0.0694
     34 H         -11.9061   -6.8070   -3.8421 H       1  UNL1        0.0694
     35 H         -11.6688   -8.8247   -2.9724 H       1  UNL1        0.0673
     36 H          -6.8135   -9.1572   -3.6958 H       1  UNL1        0.0648
     37 H          -8.5051   -5.6275   -1.5574 H       1  UNL1        0.1493
     38 H          -5.8622   -5.4684   -0.9060 H       1  UNL1        0.0502
     39 H          -7.5991   -3.9759    0.1071 H       1  UNL1        0.0335
     40 H          -6.0834   -3.1559   -0.2303 H       1  UNL1        0.0335
     41 H          -8.6094   -3.0278   -1.9714 H       1  UNL1        0.0815
     42 H          -7.9648   -1.7209   -0.9595 H       1  UNL1        0.0815
     43 H          -5.7053   -2.9072   -4.3504 H       1  UNL1        0.0815
     44 H          -7.2050   -3.7629   -4.0114 H       1  UNL1        0.0815
     45 H          -4.7017   -3.7736   -2.2303 H       1  UNL1        0.0335
     46 H          -5.1733   -5.0638   -3.3026 H       1  UNL1        0.0335
     47 H          -6.4681   -0.2309   -1.9196 H       1  UNL1        0.0817
     48 H          -5.2137   -1.4423   -1.5734 H       1  UNL1        0.0817
     49 H          -6.5654   -0.8062   -5.0889 H       1  UNL1        0.0273
     50 H          -6.5174    0.8212   -4.4228 H       1  UNL1        0.0273
     51 H          -4.5648   -0.4899   -6.3753 H       1  UNL1        0.0307
     52 H          -5.5871    0.9216   -6.6452 H       1  UNL1        0.0307
     53 H          -3.3248    1.8334   -6.2199 H       1  UNL1        0.0569
     54 H          -2.6671    2.0758   -3.9137 H       1  UNL1        0.0569
     55 H          -4.7153    1.3672   -2.4482 H       1  UNL1        0.0312
     56 H          -3.3585    0.2386   -2.3938 H       1  UNL1        0.0312
     57 H         -11.9392  -10.9978   -3.7508 H       1  UNL1        0.1424
     58 H         -10.6856  -11.8399   -4.5114 H       1  UNL1        0.1424
     59 N          -6.8626   -2.1289   -2.7297 N.4     1  UNL1        0.2355
     60 H          -7.5342   -1.6598   -3.3499 H       1  UNL1        0.2033
@<TRIPOS>UNITY_ATOM_ATTR
28 1
charge -1
59 1
charge 1
@<TRIPOS>BOND
     1     1     2    1
     2     1    30    1
     3     1    31    1
     4     1    32    1
     5     2     3    1
     6     2    33    1
     7     2    34    1
     8     3     4    1
     9     4     9   ar
    10     4     5   ar
    11     5     6   ar
    12     5    35    1
    13     6     7   ar
    14     6    29    1
    15     7     8   ar
    16     7    26    1
    17     8     9   ar
    18     8    36    1
    19     9    10    1
    20    10    11    2
    21    10    12   am
    22    12    13    1
    23    12    37    1
    24    13    17    1
    25    13    14    1
    26    13    38    1
    27    14    15    1
    28    14    39    1
    29    14    40    1
    30    15    41    1
    31    15    42    1
    32    15    59    1
    33    16    17    1
    34    16    43    1
    35    16    44    1
    36    16    59    1
    37    17    45    1
    38    17    46    1
    39    18    47    1
    40    18    48    1
    41    18    59    1
    42    19    25    1
    43    19    21    1
    44    21    22    1
    45    21    49    1
    46    21    50    1
    47    22    23    1
    48    22    51    1
    49    22    52    1
    50    23    24    2
    51    23    53    1
    52    24    25    1
    53    24    54    1
    54    25    55    1
    55    25    56    1
    56    26    27    2
    57    26    28    1
    58    29    57    1
    59    29    58    1
    60    59    60    1
    61    19    20    1
    62    19    18    1
