@<TRIPOS>MOLECULE
ZINC00584092
 46 47 0 0 0
SMALL
GASTEIGER

@<TRIPOS>ATOM
      1 C           1.7300    0.7265    2.5462 C.3     1  UNL1       -0.0280
      2 C           0.8623    0.7975    3.7959 C.3     1  UNL1        0.0976
      3 C           1.5452    1.6154    4.8859 C.3     1  UNL1       -0.0280
      4 O          -0.3750    1.4607    3.4808 O.3     1  UNL1       -0.4592
      5 C          -1.3787    0.6795    2.9713 C.2     1  UNL1        0.3511
      6 O          -1.2644   -0.5195    2.7522 O.2     1  UNL1       -0.2463
      7 C          -2.6546    1.5245    2.7336 C.3     1  UNL1        0.2005
      8 C          -3.0161    2.1508    4.0924 C.3     1  UNL1       -0.0145
      9 C          -2.3146    2.5521    1.6464 C.3     1  UNL1       -0.0145
     10 O          -3.6370    0.5854    2.2416 O.3     1  UNL1       -0.4750
     11 C          -4.9735    0.8135    2.3668 C.ar    1  UNL1        0.1221
     12 C          -5.5871    2.0612    2.3039 C.ar    1  UNL1       -0.0192
     13 C          -6.9577    2.1855    2.5304 C.ar    1  UNL1       -0.0475
     14 C          -7.7422    1.0548    2.7669 C.ar    1  UNL1        0.0225
     15 C          -7.1479   -0.2102    2.7239 C.ar    1  UNL1       -0.0475
     16 C          -5.7652   -0.3247    2.5365 C.ar    1  UNL1       -0.0192
     17 C          -9.1929    1.2694    3.0082 C.2     1  UNL1        0.1931
     18 O          -9.7274    2.2924    2.5848 O.2     1  UNL1       -0.2867
     19 C         -10.0273    0.2895    3.7421 C.ar    1  UNL1        0.0223
     20 C         -11.3608    0.1361    3.3426 C.ar    1  UNL1       -0.0495
     21 C         -12.1810   -0.7929    3.9843 C.ar    1  UNL1       -0.0427
     22 C         -11.6700   -1.5585    5.0306 C.ar    1  UNL1        0.0410
     23 C         -10.3542   -1.3836    5.4598 C.ar    1  UNL1       -0.0427
     24 C          -9.5345   -0.4467    4.8260 C.ar    1  UNL1       -0.0495
     25 CL        -12.6695   -2.7266    5.8007 Cl      1  UNL1       -0.0835
     26 H           1.9201    1.7276    2.1431 H       1  UNL1        0.0265
     27 H           1.2280    0.1609    1.7547 H       1  UNL1        0.0265
     28 H           2.6894    0.2458    2.7595 H       1  UNL1        0.0265
     29 H           0.6694   -0.2080    4.1879 H       1  UNL1        0.0728
     30 H           1.7229    2.6453    4.5562 H       1  UNL1        0.0265
     31 H           0.9050    1.6771    5.7729 H       1  UNL1        0.0265
     32 H           2.5010    1.1696    5.1770 H       1  UNL1        0.0265
     33 H          -2.2173    2.7975    4.4696 H       1  UNL1        0.0273
     34 H          -3.9151    2.7686    4.0602 H       1  UNL1        0.0273
     35 H          -3.1982    1.3672    4.8377 H       1  UNL1        0.0273
     36 H          -2.1773    2.0569    0.6776 H       1  UNL1        0.0273
     37 H          -3.1027    3.2945    1.5090 H       1  UNL1        0.0273
     38 H          -1.3978    3.1064    1.8730 H       1  UNL1        0.0273
     39 H          -5.0344    2.9657    2.0997 H       1  UNL1        0.0654
     40 H          -7.4073    3.1766    2.5223 H       1  UNL1        0.0626
     41 H          -7.7334   -1.1192    2.8313 H       1  UNL1        0.0626
     42 H          -5.3005   -1.3088    2.5342 H       1  UNL1        0.0654
     43 H         -11.7598    0.7376    2.5275 H       1  UNL1        0.0625
     44 H         -13.2116   -0.9127    3.6614 H       1  UNL1        0.0632
     45 H          -9.9627   -1.9709    6.2866 H       1  UNL1        0.0632
     46 H          -8.5214   -0.3006    5.1928 H       1  UNL1        0.0625
@<TRIPOS>BOND
     1     1     2    1
     2     1    26    1
     3     1    27    1
     4     1    28    1
     5     2     3    1
     6     2     4    1
     7     2    29    1
     8     3    30    1
     9     3    31    1
    10     3    32    1
    11     4     5    1
    12     5     6    2
    13     5     7    1
    14     7     8    1
    15     7     9    1
    16     7    10    1
    17     8    33    1
    18     8    34    1
    19     8    35    1
    20     9    36    1
    21     9    37    1
    22     9    38    1
    23    10    11    1
    24    11    16   ar
    25    11    12   ar
    26    12    13   ar
    27    12    39    1
    28    13    14   ar
    29    13    40    1
    30    14    15   ar
    31    14    17    1
    32    15    16   ar
    33    15    41    1
    34    16    42    1
    35    17    18    2
    36    17    19    1
    37    19    24   ar
    38    19    20   ar
    39    20    21   ar
    40    20    43    1
    41    21    22   ar
    42    21    44    1
    43    22    23   ar
    44    22    25    1
    45    23    24   ar
    46    23    45    1
    47    24    46    1
