@<TRIPOS>MOLECULE
ZINC01530759
 53 54 0 0 0
SMALL
GASTEIGER

@<TRIPOS>ATOM
      1 C           1.8130   -5.9267   -5.8796 C.3     1  UNL1       -0.0605
      2 C           1.9161   -5.7230   -4.3746 C.3     1  UNL1       -0.0154
      3 C           2.4186   -4.3490   -3.9327 C.3     1  UNL1       -0.0338
      4 N           1.5176   -3.1982   -4.2822 N.4     1  UNL1        0.2289
      5 C           0.1819   -3.0342   -3.5203 C.3     1  UNL1       -0.0038
      6 C          -0.3617   -1.5887   -3.7924 C.3     1  UNL1        0.1285
      7 H          -0.3642   -1.5283   -4.8914 H       1  UNL1        0.0681
      8 C          -1.8201   -1.0439   -3.4294 C.3     1  UNL1        0.1204
      9 O          -2.5966   -1.2206   -2.2238 O.3     1  UNL1       -0.4885
     10 C          -2.4469   -0.4738   -1.0749 C.ar    1  UNL1        0.1311
     11 C          -3.5118    0.3392   -0.6237 C.ar    1  UNL1       -0.0192
     12 C          -3.6004    0.7625    0.7239 C.ar    1  UNL1       -0.0583
     13 C          -2.5660    0.4873    1.6146 C.ar    1  UNL1       -0.0609
     14 C          -1.4981   -0.2917    1.1888 C.ar    1  UNL1       -0.0477
     15 C          -1.5523   -0.9022   -0.0833 C.ar    1  UNL1        0.0590
     16 C          -1.1364   -2.3306   -0.1537 C.2     1  UNL1        0.1670
     17 O          -0.9799   -2.9275   -1.2219 O.2     1  UNL1       -0.2919
     18 C          -1.1287   -3.1447    1.1100 C.3     1  UNL1        0.0146
     19 C          -2.5526   -3.2951    1.6318 C.3     1  UNL1       -0.0207
     20 C          -2.6845   -3.9979    2.9532 C.ar    1  UNL1       -0.0469
     21 C          -1.8935   -5.1042    3.2805 C.ar    1  UNL1       -0.0586
     22 C          -2.1843   -5.8661    4.4099 C.ar    1  UNL1       -0.0615
     23 C          -3.2601   -5.5243    5.2259 C.ar    1  UNL1       -0.0617
     24 C          -4.0159   -4.3890    4.9454 C.ar    1  UNL1       -0.0615
     25 C          -3.7262   -3.6252    3.8172 C.ar    1  UNL1       -0.0586
     26 O           0.6868   -0.6686   -3.4250 O.3     1  UNL1       -0.3831
     27 H           1.1141   -5.2218   -6.3344 H       1  UNL1        0.0232
     28 H           1.4534   -6.9409   -6.0929 H       1  UNL1        0.0232
     29 H           2.7886   -5.8184   -6.3665 H       1  UNL1        0.0232
     30 H           0.9556   -5.9517   -3.9026 H       1  UNL1        0.0314
     31 H           2.6269   -6.4739   -4.0002 H       1  UNL1        0.0314
     32 H           2.5774   -4.3282   -2.8495 H       1  UNL1        0.0814
     33 H           3.3789   -4.1358   -4.4169 H       1  UNL1        0.0814
     34 H           2.0269   -2.3357   -4.0218 H       1  UNL1        0.2014
     35 H          -0.4855   -3.8245   -3.8687 H       1  UNL1        0.0840
     36 H           0.5325   -3.1845   -2.5060 H       1  UNL1        0.0840
     37 H          -1.8816    0.0080   -3.7414 H       1  UNL1        0.0725
     38 H          -2.4476   -1.5889   -4.1475 H       1  UNL1        0.0725
     39 H          -4.3664    0.5436   -1.2650 H       1  UNL1        0.0654
     40 H          -4.5054    1.2351    1.1057 H       1  UNL1        0.0619
     41 H          -2.6476    0.7649    2.6672 H       1  UNL1        0.0618
     42 H          -0.7596   -0.5915    1.9301 H       1  UNL1        0.0626
     43 H          -0.7144   -4.1265    0.8391 H       1  UNL1        0.0348
     44 H          -0.4302   -2.7163    1.8313 H       1  UNL1        0.0348
     45 H          -3.0391   -2.3202    1.7178 H       1  UNL1        0.0317
     46 H          -3.1521   -3.8474    0.8969 H       1  UNL1        0.0317
     47 H          -1.0692   -5.4139    2.6453 H       1  UNL1        0.0620
     48 H          -1.5897   -6.7477    4.6347 H       1  UNL1        0.0618
     49 H          -3.5178   -6.1520    6.0744 H       1  UNL1        0.0618
     50 H          -4.8502   -4.1178    5.5871 H       1  UNL1        0.0618
     51 H          -4.3462   -2.7576    3.5981 H       1  UNL1        0.0620
     52 H           0.4128    0.2241   -3.7162 H       1  UNL1        0.2102
     53 H           1.3737   -3.1364   -5.2951 H       1  UNL1        0.2014
@<TRIPOS>UNITY_ATOM_ATTR
4 1
charge 1
@<TRIPOS>BOND
     1     1     2    1
     2     1    27    1
     3     1    28    1
     4     1    29    1
     5     2     3    1
     6     2    30    1
     7     2    31    1
     8     3     4    1
     9     3    32    1
    10     3    33    1
    11     4     5    1
    12     4    34    1
    13     4    53    1
    14     5     6    1
    15     5    35    1
    16     5    36    1
    17     6     7    1
    18     6     8    1
    19     6    26    1
    20     8     9    1
    21     8    37    1
    22     8    38    1
    23     9    10    1
    24    10    15   ar
    25    10    11   ar
    26    11    12   ar
    27    11    39    1
    28    12    13   ar
    29    12    40    1
    30    13    14   ar
    31    13    41    1
    32    14    15   ar
    33    14    42    1
    34    15    16    1
    35    16    17    2
    36    16    18    1
    37    18    19    1
    38    18    43    1
    39    18    44    1
    40    19    20    1
    41    19    45    1
    42    19    46    1
    43    20    25   ar
    44    20    21   ar
    45    21    22   ar
    46    21    47    1
    47    22    23   ar
    48    22    48    1
    49    23    24   ar
    50    23    49    1
    51    24    25   ar
    52    24    50    1
    53    25    51    1
    54    26    52    1
