@<TRIPOS>MOLECULE
ZINC01530599
 29 29 0 0 0
SMALL
GASTEIGER

@<TRIPOS>ATOM
      1 C          -0.3054    0.6616    0.0229 C.3     1  UNL1       -0.0639
      2 C          -0.5334   -0.4143    1.0779 C.3     1  UNL1       -0.0403
      3 C           0.5270   -0.4374    2.1832 C.3     1  UNL1        0.0092
      4 N           0.5866    0.8046    2.9192 N.pl3   1  UNL1       -0.3394
      5 C          -0.2521    1.1387    3.9363 C.2     1  UNL1        0.0682
      6 O          -0.4616    2.3366    3.7345 O.co2   1  UNL1       -0.8485
      7 N          -0.6433    0.2857    4.8258 N.2     1  UNL1       -0.1295
      8 S          -1.6370    0.6926    6.0435 S.O2    1  UNL1        0.0993
      9 O          -1.9216   -0.5147    6.8130 O.2     1  UNL1       -0.1463
     10 O          -1.2137    1.8683    6.7828 O.2     1  UNL1       -0.1463
     11 C          -3.2067    1.0682    5.2633 C.ar    1  UNL1        0.1126
     12 C          -3.8664    0.0399    4.5771 C.ar    1  UNL1       -0.0334
     13 C          -5.0928    0.2953    3.9663 C.ar    1  UNL1       -0.0415
     14 C          -5.6533    1.5706    4.0523 C.ar    1  UNL1        0.0411
     15 C          -5.0059    2.5900    4.7552 C.ar    1  UNL1       -0.0415
     16 C          -3.7747    2.3398    5.3679 C.ar    1  UNL1       -0.0334
     17 CL         -7.1591    1.8887    3.2781 Cl      1  UNL1       -0.0835
     18 H          -0.3995    1.6661    0.4454 H       1  UNL1        0.0230
     19 H          -1.0510    0.5704   -0.7743 H       1  UNL1        0.0230
     20 H           0.6860    0.5678   -0.4312 H       1  UNL1        0.0230
     21 H          -1.5317   -0.2865    1.5115 H       1  UNL1        0.0278
     22 H          -0.5276   -1.3895    0.5753 H       1  UNL1        0.0278
     23 H           0.3315   -1.2797    2.8568 H       1  UNL1        0.0461
     24 H           1.5097   -0.6201    1.7338 H       1  UNL1        0.0461
     25 H           0.7386    1.6420    2.3708 H       1  UNL1        0.1464
     26 H          -3.4107   -0.9453    4.5147 H       1  UNL1        0.0638
     27 H          -5.5946   -0.4968    3.4198 H       1  UNL1        0.0633
     28 H          -5.4417    3.5827    4.8157 H       1  UNL1        0.0633
     29 H          -3.2510    3.1328    5.8971 H       1  UNL1        0.0638
@<TRIPOS>UNITY_ATOM_ATTR
6 1
charge -1
@<TRIPOS>BOND
     1     1     2    1
     2     1    18    1
     3     1    19    1
     4     1    20    1
     5     2     3    1
     6     2    21    1
     7     2    22    1
     8     3     4    1
     9     3    23    1
    10     3    24    1
    11     4     5    1
    12     4    25    1
    13     5     6    1
    14     5     7    2
    15     7     8    1
    16     8     9    2
    17     8    10    2
    18     8    11    1
    19    11    16   ar
    20    11    12   ar
    21    12    13   ar
    22    12    26    1
    23    13    14   ar
    24    13    27    1
    25    14    15   ar
    26    14    17    1
    27    15    16   ar
    28    15    28    1
    29    16    29    1
