@<TRIPOS>MOLECULE
ZINC00538550
 50 54 0 0 0
SMALL
GASTEIGER

@<TRIPOS>ATOM
      1 C          -2.1554   -0.4739   -0.5352 C.ar    1  UNL1       -0.0610
      2 C          -2.0487    0.9055   -0.5136 C.ar    1  UNL1       -0.0606
      3 C          -0.8225    1.5179   -0.2276 C.ar    1  UNL1       -0.0459
      4 C           0.3006    0.6998    0.0072 C.ar    1  UNL1        0.0412
      5 C           0.2405   -0.6949   -0.0521 C.ar    1  UNL1        0.0307
      6 C          -1.0356   -1.2731   -0.2889 C.ar    1  UNL1       -0.0502
      7 C           1.5725   -1.2636    0.1618 C.ar    1  UNL1        0.1384
      8 N           2.5251   -0.3813    0.4568 N.ar    1  UNL1       -0.1944
      9 S           1.9056    1.1487    0.4029 S.2     1  UNL1        0.0138
     10 N           1.8344   -2.6082    0.0643 N.pl3   1  UNL1       -0.3040
     11 C           2.8916   -3.2315    0.8770 C.3     1  UNL1        0.0538
     12 C           3.9066   -4.0306    0.0246 C.3     1  UNL1       -0.0157
     13 N           3.2330   -4.9425   -1.0237 N.4     1  UNL1        0.2377
     14 C           2.2649   -4.1102   -1.8464 C.3     1  UNL1       -0.0157
     15 C           1.2067   -3.4392   -0.9610 C.3     1  UNL1        0.0538
     16 C           2.6724   -6.2310   -0.4436 C.3     1  UNL1       -0.0277
     17 C           2.0770   -7.1597   -1.5347 C.3     1  UNL1        0.0141
     18 C           1.6344   -8.4970   -0.9714 C.ar    1  UNL1       -0.0237
     19 C           0.2552   -8.7843   -0.9001 C.ar    1  UNL1       -0.0516
     20 C          -0.1488   -9.8373   -0.1033 C.ar    1  UNL1       -0.0171
     21 C           0.7854  -10.5570    0.6358 C.ar    1  UNL1        0.0384
     22 C           2.1400  -10.4360    0.4388 C.ar    1  UNL1       -0.0216
     23 C           2.5622   -9.4119   -0.4088 C.ar    1  UNL1        0.0461
     24 CL          4.2590   -9.2519   -0.6953 Cl      1  UNL1       -0.0832
     25 N           0.1351  -11.2132    1.6730 N.am    1  UNL1       -0.2849
     26 C          -1.2266  -10.9061    1.6615 C.2     1  UNL1        0.2216
     27 O          -2.0106  -11.0633    2.5797 O.2     1  UNL1       -0.2751
     28 C          -1.5223  -10.2962    0.2903 C.3     1  UNL1        0.0512
     29 H          -3.1172   -0.9424   -0.7429 H       1  UNL1        0.0618
     30 H          -2.9277    1.5173   -0.7070 H       1  UNL1        0.0618
     31 H          -0.7411    2.5950   -0.1801 H       1  UNL1        0.0629
     32 H          -1.1654   -2.3505   -0.2730 H       1  UNL1        0.0625
     33 H           3.4477   -2.4975    1.4747 H       1  UNL1        0.0517
     34 H           2.4119   -3.9047    1.5965 H       1  UNL1        0.0517
     35 H           4.5450   -3.3483   -0.5476 H       1  UNL1        0.0830
     36 H           4.5463   -4.6639    0.6485 H       1  UNL1        0.0830
     37 H           1.8122   -4.7503   -2.6063 H       1  UNL1        0.0830
     38 H           2.8716   -3.3572   -2.3608 H       1  UNL1        0.0830
     39 H           0.5764   -4.1884   -0.4699 H       1  UNL1        0.0517
     40 H           0.5707   -2.8607   -1.6365 H       1  UNL1        0.0517
     41 H           3.5147   -6.7048    0.0685 H       1  UNL1        0.0818
     42 H           1.9265   -5.9701    0.3147 H       1  UNL1        0.0818
     43 H           1.1976   -6.6716   -1.9708 H       1  UNL1        0.0366
     44 H           2.7845   -7.3149   -2.3559 H       1  UNL1        0.0366
     45 H          -0.4927   -8.1512   -1.3713 H       1  UNL1        0.0624
     46 H           2.8465  -11.0724    0.9595 H       1  UNL1        0.0651
     47 H           0.5872  -11.5902    2.4946 H       1  UNL1        0.1548
     48 H          -2.2500   -9.4876    0.3459 H       1  UNL1        0.0408
     49 H          -1.8666  -11.1026   -0.3701 H       1  UNL1        0.0408
     50 H           3.9902   -5.2229   -1.6613 H       1  UNL1        0.2035
@<TRIPOS>UNITY_ATOM_ATTR
13 1
charge 1
@<TRIPOS>BOND
     1     1     6   ar
     2     1     2   ar
     3     1    29    1
     4     2     3   ar
     5     2    30    1
     6     3     4   ar
     7     3    31    1
     8     4     9   ar
     9     4     5   ar
    10     5     6   ar
    11     5     7   ar
    12     6    32    1
    13     7     8   ar
    14     7    10    1
    15     8     9   ar
    16    10    15    1
    17    10    11    1
    18    11    12    1
    19    11    33    1
    20    11    34    1
    21    12    13    1
    22    12    35    1
    23    12    36    1
    24    13    14    1
    25    13    16    1
    26    13    50    1
    27    14    15    1
    28    14    37    1
    29    14    38    1
    30    15    39    1
    31    15    40    1
    32    16    17    1
    33    16    41    1
    34    16    42    1
    35    17    18    1
    36    17    43    1
    37    17    44    1
    38    18    23   ar
    39    18    19   ar
    40    19    20   ar
    41    19    45    1
    42    20    28    1
    43    20    21   ar
    44    21    22   ar
    45    21    25    1
    46    22    23   ar
    47    22    46    1
    48    23    24    1
    49    25    26   am
    50    25    47    1
    51    26    27    2
    52    26    28    1
    53    28    48    1
    54    28    49    1
