@<TRIPOS>MOLECULE
ZINC00000061
 26 26 0 0 0
SMALL
GASTEIGER

@<TRIPOS>ATOM
      1 C           1.6946   -0.8233    0.9222 C.ar    1  UNL1       -0.0567
      2 C           0.3147   -0.7536    1.1296 C.ar    1  UNL1       -0.0431
      3 C          -0.4265    0.2480    0.5110 C.ar    1  UNL1        0.0410
      4 C           0.1950    1.1525   -0.3464 C.ar    1  UNL1       -0.0431
      5 C           1.5733    1.0723   -0.5680 C.ar    1  UNL1       -0.0567
      6 C           2.3482    0.1120    0.1009 C.ar    1  UNL1       -0.0386
      7 C           3.8698    0.0532   -0.0179 C.3     1  UNL1        0.0343
      8 H           4.2261   -0.4380    0.9010 H       1  UNL1        0.0406
      9 C           4.2977   -0.8118   -1.2100 C.3     1  UNL1        0.0608
     10 C           5.8142   -0.6734   -1.2239 C.2     1  UNL1        0.3568
     11 O           6.3912   -1.1142   -0.1911 O.co2   1  UNL1       -0.2464
     12 O           6.2464    0.0926   -2.1252 O.co2   1  UNL1       -0.2464
     13 C           4.5487    1.4489   -0.0360 C.3     1  UNL1       -0.0279
     14 N           4.1974    2.1932    1.2082 N.4     1  UNL1        0.2190
     15 CL         -2.1153    0.3743    0.8090 Cl      1  UNL1       -0.0835
     16 H           2.2584   -1.6212    1.4057 H       1  UNL1        0.0621
     17 H          -0.1724   -1.4831    1.7721 H       1  UNL1        0.0632
     18 H          -0.3910    1.9155   -0.8533 H       1  UNL1        0.0632
     19 H           2.0196    1.7654   -1.2777 H       1  UNL1        0.0621
     20 H           4.0139   -1.8621   -1.0778 H       1  UNL1        0.0387
     21 H           3.8637   -0.4555   -2.1494 H       1  UNL1        0.0387
     22 H           5.6392    1.4121   -0.0151 H       1  UNL1        0.0819
     23 H           4.2332    2.0717   -0.8787 H       1  UNL1        0.0819
     24 H           4.3518    1.5820    2.0188 H       1  UNL1        0.1994
     25 H           4.8072    3.0104    1.3067 H       1  UNL1        0.1994
     26 H           3.2164    2.4878    1.2012 H       1  UNL1        0.1994
@<TRIPOS>UNITY_ATOM_ATTR
14 1
charge 1
@<TRIPOS>BOND
     1     1     6   ar
     2     1     2   ar
     3     1    16    1
     4     2     3   ar
     5     2    17    1
     6     3     4   ar
     7     3    15    1
     8     4     5   ar
     9     4    18    1
    10     5     6   ar
    11     5    19    1
    12     6     7    1
    13     7     8    1
    14     7     9    1
    15     7    13    1
    16     9    10    1
    17     9    20    1
    18     9    21    1
    19    10    11   ar
    20    10    12   ar
    21    13    14    1
    22    13    22    1
    23    13    23    1
    24    14    24    1
    25    14    25    1
    26    14    26    1
