@<TRIPOS>MOLECULE
ZINC00599734
 40 42 0 0 0
SMALL
GASTEIGER

@<TRIPOS>ATOM
      1 C           0.7918   -0.0143    0.2446 C.3     1  UNL1       -0.0348
      2 C           0.4633    0.5491   -1.1131 C.2     1  UNL1        0.0085
      3 C           0.0491   -0.3667   -2.2167 C.2     1  UNL1        0.1232
      4 C          -0.1535    0.1342   -3.4515 C.2     1  UNL1       -0.0199
      5 C           0.0119    1.5383   -3.7051 C.3     1  UNL1        0.0643
      6 N           0.2868    2.3615   -2.6575 N.pl3   1  UNL1       -0.3376
      7 C           0.5693    1.8852   -1.3757 C.2     1  UNL1        0.0236
      8 C           0.9705    2.9410   -0.3457 C.3     1  UNL1        0.0690
      9 S           2.4520    3.8607   -0.8913 S.O     1  UNL1        0.0951
     10 O           2.1545    4.5629   -2.1906 O.2     1  UNL1       -0.2488
     11 C           2.4387    5.1146    0.3103 C.ar    1  UNL1        0.1981
     12 N           2.4005    6.4421   -0.0249 N.ar    1  UNL1       -0.3310
     13 H           2.3475    6.7900   -0.9762 H       1  UNL1        0.1679
     14 C           2.4952    7.1814    1.1223 C.ar    1  UNL1        0.0669
     15 C           2.5306    8.5583    1.3523 C.ar    1  UNL1       -0.0362
     16 C           2.6591    8.9689    2.6836 C.ar    1  UNL1       -0.0597
     17 C           2.7448    8.0389    3.7228 C.ar    1  UNL1       -0.0596
     18 C           2.6992    6.6608    3.4628 C.ar    1  UNL1       -0.0342
     19 C           2.5730    6.2265    2.1342 C.ar    1  UNL1        0.0900
     20 N           2.5176    4.9492    1.6139 N.ar    1  UNL1       -0.2200
     21 O          -0.1058   -1.6965   -1.8707 O.2     1  UNL1       -0.4830
     22 C           0.0386   -2.6832   -2.9100 C.3     1  UNL1        0.1842
     23 C          -1.1843   -2.9587   -3.7895 C.3     1  UNL1        0.4236
     24 F          -2.2775   -2.2541   -3.4359 F       1  UNL1       -0.1671
     25 F          -0.9121   -2.6600   -5.0856 F       1  UNL1       -0.1671
     26 F          -1.5198   -4.2713   -3.7588 F       1  UNL1       -0.1671
     27 H           0.6420   -1.0935    0.3278 H       1  UNL1        0.0279
     28 H           0.1698    0.4550    1.0152 H       1  UNL1        0.0279
     29 H           1.8438    0.1815    0.4846 H       1  UNL1        0.0279
     30 H          -0.4679   -0.4544   -4.3010 H       1  UNL1        0.0627
     31 H          -0.0381    1.9691   -4.6974 H       1  UNL1        0.0564
     32 H           0.1458    3.6533   -0.2280 H       1  UNL1        0.0467
     33 H           1.1957    2.5168    0.6354 H       1  UNL1        0.0467
     34 H           2.4690    9.2794    0.5444 H       1  UNL1        0.0639
     35 H           2.6958   10.0324    2.9124 H       1  UNL1        0.0618
     36 H           2.8512    8.3881    4.7478 H       1  UNL1        0.0618
     37 H           2.7703    5.9398    4.2693 H       1  UNL1        0.0639
     38 H           0.9154   -2.4521   -3.5278 H       1  UNL1        0.0788
     39 H           0.2869   -3.6176   -2.3937 H       1  UNL1        0.0788
     40 H           0.6047    3.3075   -2.8788 H       1  UNL1        0.1465
@<TRIPOS>BOND
     1     1     2    1
     2     1    27    1
     3     1    28    1
     4     1    29    1
     5     2     7    2
     6     2     3    1
     7     3     4    2
     8     3    21    1
     9     4     5    1
    10     4    30    1
    11     5     6    1
    12     5    31    1
    13     6     7    1
    14     6    40    1
    15     7     8    1
    16     8     9    1
    17     8    32    1
    18     8    33    1
    19     9    10    2
    20     9    11    1
    21    11    20   ar
    22    11    12   ar
    23    12    13    1
    24    12    14   ar
    25    14    19   ar
    26    14    15   ar
    27    15    16   ar
    28    15    34    1
    29    16    17   ar
    30    16    35    1
    31    17    18   ar
    32    17    36    1
    33    18    19   ar
    34    18    37    1
    35    19    20   ar
    36    21    22    1
    37    22    23    1
    38    22    38    1
    39    22    39    1
    40    23    24    1
    41    23    25    1
    42    23    26    1
