@<TRIPOS>MOLECULE
ZINC03809191
 62 66 0 0 0
SMALL
GASTEIGER

@<TRIPOS>ATOM
      1 C          -2.0566   -2.8470    0.2223 C.3     1  UNL1        0.0332
      2 C          -1.1623   -2.1786   -0.7898 C.2     1  UNL1        0.3042
      3 O          -1.0121   -0.9681   -0.8641 O.2     1  UNL1       -0.2512
      4 O          -0.5681   -3.0930   -1.6060 O.3     1  UNL1       -0.4612
      5 C           0.3372   -2.5816   -2.6178 C.3     1  UNL1        0.1068
      6 H           0.9598   -1.7776   -2.1987 H       1  UNL1        0.0737
      7 C           1.2517   -3.7418   -3.0241 C.3     1  UNL1       -0.0146
      8 C           2.2055   -3.3526   -4.1494 C.3     1  UNL1       -0.0403
      9 C           1.5081   -2.7828   -5.4178 C.3     1  UNL1       -0.0077
     10 C           2.6294   -2.1741   -6.3434 C.3     1  UNL1       -0.0285
     11 H           3.2559   -1.5330   -5.7011 H       1  UNL1        0.0312
     12 C           3.6025   -3.2347   -6.9229 C.3     1  UNL1       -0.0484
     13 C           4.6605   -2.6580   -7.8708 C.3     1  UNL1       -0.0430
     14 C           4.0145   -1.8205   -8.9825 C.3     1  UNL1       -0.0034
     15 C           3.2115   -0.6971   -8.2768 C.3     1  UNL1       -0.0248
     16 H           3.8894   -0.2032   -7.5540 H       1  UNL1        0.0315
     17 C           2.0461   -1.2231   -7.4292 C.3     1  UNL1       -0.0301
     18 H           1.3412   -1.7709   -8.0652 H       1  UNL1        0.0310
     19 C           1.2760   -0.0727   -6.7594 C.3     1  UNL1       -0.0311
     20 C           0.4283   -0.5050   -5.5992 C.2     1  UNL1       -0.0838
     21 C           0.5000   -1.7064   -4.9962 C.2     1  UNL1       -0.0638
     22 C          -0.4273   -2.0565   -3.8429 C.3     1  UNL1        0.0061
     23 C           2.9802    0.3437   -9.3681 C.3     1  UNL1       -0.0303
     24 C           4.3061    0.2395  -10.0741 C.2     1  UNL1       -0.0794
     25 C           4.9196   -0.9363   -9.8235 C.2     1  UNL1       -0.0365
     26 C           6.2516   -1.3125  -10.3052 C.ar    1  UNL1       -0.0035
     27 C           6.6175   -2.6347  -10.5661 C.ar    1  UNL1       -0.0514
     28 C           7.9032   -2.9416  -11.0076 C.ar    1  UNL1       -0.0430
     29 C           8.8010   -1.9080  -11.1730 C.ar    1  UNL1        0.0276
     30 N           8.5086   -0.6100  -10.9235 N.ar    1  UNL1       -0.2627
     31 C           7.2442   -0.3513  -10.4952 C.ar    1  UNL1        0.0350
     32 C           3.1508   -2.7028   -9.9198 C.3     1  UNL1       -0.0553
     33 C           0.7246   -3.9051   -6.1370 C.3     1  UNL1       -0.0556
     34 H          -2.3904   -2.0934    0.9499 H       1  UNL1        0.0342
     35 H          -1.5098   -3.6152    0.7761 H       1  UNL1        0.0342
     36 H          -2.9386   -3.2731   -0.2556 H       1  UNL1        0.0342
     37 H           0.6518   -4.6123   -3.3181 H       1  UNL1        0.0301
     38 H           1.8316   -4.0710   -2.1532 H       1  UNL1        0.0301
     39 H           2.8089   -4.2315   -4.4072 H       1  UNL1        0.0275
     40 H           2.9080   -2.6064   -3.7508 H       1  UNL1        0.0275
     41 H           4.1302   -3.7425   -6.1086 H       1  UNL1        0.0269
     42 H           3.0520   -4.0109   -7.4617 H       1  UNL1        0.0269
     43 H           5.2367   -3.4915   -8.2861 H       1  UNL1        0.0274
     44 H           5.3709   -2.0513   -7.2941 H       1  UNL1        0.0274
     45 H           1.9698    0.6978   -6.4003 H       1  UNL1        0.0310
     46 H           0.6332    0.4080   -7.5070 H       1  UNL1        0.0310
     47 H          -0.2850    0.2363   -5.2408 H       1  UNL1        0.0572
     48 H          -1.1544   -2.8089   -4.1751 H       1  UNL1        0.0346
     49 H          -1.0314   -1.1899   -3.5478 H       1  UNL1        0.0346
     50 H           2.8310    1.3426   -8.9488 H       1  UNL1        0.0311
     51 H           2.1547    0.1015  -10.0434 H       1  UNL1        0.0311
     52 H           4.7063    1.0421  -10.6794 H       1  UNL1        0.0575
     53 H           5.9131   -3.4499  -10.4450 H       1  UNL1        0.0624
     54 H           8.1868   -3.9646  -11.2208 H       1  UNL1        0.0633
     55 H           9.8117   -2.0919  -11.5229 H       1  UNL1        0.0829
     56 H           7.0642    0.6989  -10.2908 H       1  UNL1        0.0835
     57 H           3.7463   -3.4993  -10.3754 H       1  UNL1        0.0238
     58 H           2.3263   -3.1946   -9.3969 H       1  UNL1        0.0238
     59 H           2.7078   -2.1279  -10.7400 H       1  UNL1        0.0238
     60 H          -0.0616   -4.3306   -5.5047 H       1  UNL1        0.0238
     61 H           0.2357   -3.5378   -7.0458 H       1  UNL1        0.0238
     62 H           1.3698   -4.7436   -6.4150 H       1  UNL1        0.0238
@<TRIPOS>BOND
     1     1     2    1
     2     1    34    1
     3     1    35    1
     4     1    36    1
     5     2     3    2
     6     2     4    1
     7     5    22    1
     8     5     7    1
     9     7     8    1
    10     7    37    1
    11     7    38    1
    12     8     9    1
    13     8    39    1
    14     8    40    1
    15     9    21    1
    16     9    10    1
    17     9    33    1
    18    10    11    1
    19    10    17    1
    20    10    12    1
    21    12    13    1
    22    12    41    1
    23    12    42    1
    24    13    14    1
    25    13    43    1
    26    13    44    1
    27    14    25    1
    28    14    15    1
    29    14    32    1
    30    15    16    1
    31    15    17    1
    32    15    23    1
    33    17    18    1
    34    17    19    1
    35    19    20    1
    36    19    45    1
    37    19    46    1
    38    20    21    2
    39    20    47    1
    40    21    22    1
    41    22    48    1
    42    22    49    1
    43    23    24    1
    44    23    50    1
    45    23    51    1
    46    24    25    2
    47    24    52    1
    48    25    26    1
    49    26    31   ar
    50    26    27   ar
    51    27    28   ar
    52    27    53    1
    53    28    29   ar
    54    28    54    1
    55    29    30   ar
    56    29    55    1
    57    30    31   ar
    58    31    56    1
    59    32    57    1
    60    32    58    1
    61    32    59    1
    62    33    60    1
    63    33    61    1
    64    33    62    1
    65     5     6    1
    66     5     4    1
