@<TRIPOS>MOLECULE
ZINC01542924
 43 43 0 0 0
SMALL
GASTEIGER

@<TRIPOS>ATOM
      1 C           4.5516   -2.0868    1.1037 C.3     1  UNL1       -0.0219
      2 C           3.4282   -1.0616    1.2329 C.3     1  UNL1       -0.0283
      3 C           3.7108    0.1559    0.3616 C.3     1  UNL1       -0.0219
      4 N           2.1119   -1.6400    0.8108 N.4     1  UNL1        0.2307
      5 C           1.6561   -2.8704    1.5371 C.3     1  UNL1       -0.0035
      6 C           0.1818   -3.1682    1.2290 C.3     1  UNL1        0.1285
      7 H          -0.1513   -3.9531    1.9186 H       1  UNL1        0.0681
      8 C          -0.0807   -3.6492   -0.2082 C.3     1  UNL1        0.1206
      9 O           0.1905   -2.6158   -1.1670 O.3     1  UNL1       -0.4855
     10 C           0.1054   -3.0035   -2.4924 C.ar    1  UNL1        0.1620
     11 C          -0.4948   -4.2026   -2.9156 C.ar    1  UNL1       -0.0163
     12 C          -0.4220   -4.6120   -4.2488 C.ar    1  UNL1       -0.0581
     13 C           0.2287   -3.8181   -5.1800 C.ar    1  UNL1       -0.0581
     14 C           0.7579   -2.5878   -4.7915 C.ar    1  UNL1       -0.0163
     15 C           0.6931   -2.1560   -3.4541 C.ar    1  UNL1        0.1624
     16 O           1.1861   -0.9399   -3.0156 O.3     1  UNL1       -0.4843
     17 C           1.9083   -0.1946   -4.0039 C.3     1  UNL1        0.1077
     18 C           2.4055    1.1272   -3.4856 C.2     1  UNL1       -0.0542
     19 C           1.8376    1.9037   -2.5626 C.2     1  UNL1       -0.0995
     20 O          -0.5647   -1.9805    1.5223 O.3     1  UNL1       -0.3831
     21 H           4.6413   -2.4630    0.0794 H       1  UNL1        0.0284
     22 H           4.4011   -2.9408    1.7719 H       1  UNL1        0.0284
     23 H           5.5125   -1.6374    1.3814 H       1  UNL1        0.0284
     24 H           3.3198   -0.7539    2.2785 H       1  UNL1        0.0845
     25 H           3.7950   -0.1234   -0.6946 H       1  UNL1        0.0284
     26 H           2.9159    0.9019    0.4557 H       1  UNL1        0.0284
     27 H           4.6517    0.6321    0.6595 H       1  UNL1        0.0284
     28 H           1.3591   -0.9446    0.9676 H       1  UNL1        0.2017
     29 H           2.3078   -3.7027    1.2607 H       1  UNL1        0.0841
     30 H           1.7651   -2.6456    2.6043 H       1  UNL1        0.0841
     31 H           0.5568   -4.5191   -0.4110 H       1  UNL1        0.0725
     32 H          -1.1378   -3.9314   -0.2751 H       1  UNL1        0.0725
     33 H          -1.0315   -4.8572   -2.2368 H       1  UNL1        0.0655
     34 H          -0.8676   -5.5548   -4.5600 H       1  UNL1        0.0619
     35 H           0.3134   -4.1444   -6.2146 H       1  UNL1        0.0619
     36 H           1.2210   -1.9974   -5.5762 H       1  UNL1        0.0655
     37 H           2.7852   -0.7817   -4.3025 H       1  UNL1        0.0742
     38 H           1.2813    0.0187   -4.8790 H       1  UNL1        0.0742
     39 H           3.2986    1.4970   -3.9924 H       1  UNL1        0.0600
     40 H           2.2737    2.8710   -2.3251 H       1  UNL1        0.0533
     41 H           0.9085    1.6366   -2.0729 H       1  UNL1        0.0533
     42 H          -1.5153   -2.2026    1.4517 H       1  UNL1        0.2102
     43 H           2.0639   -1.7942   -0.2102 H       1  UNL1        0.2017
@<TRIPOS>UNITY_ATOM_ATTR
4 1
charge 1
@<TRIPOS>BOND
     1     1     2    1
     2     1    21    1
     3     1    22    1
     4     1    23    1
     5     2     3    1
     6     2     4    1
     7     2    24    1
     8     3    25    1
     9     3    26    1
    10     3    27    1
    11     4     5    1
    12     4    28    1
    13     4    43    1
    14     5    29    1
    15     5    30    1
    16     6     8    1
    17     6    20    1
    18     8     9    1
    19     8    31    1
    20     8    32    1
    21     9    10    1
    22    10    15   ar
    23    10    11   ar
    24    11    12   ar
    25    11    33    1
    26    12    13   ar
    27    12    34    1
    28    13    14   ar
    29    13    35    1
    30    14    15   ar
    31    14    36    1
    32    15    16    1
    33    16    17    1
    34    17    18    1
    35    17    37    1
    36    17    38    1
    37    18    19    2
    38    18    39    1
    39    19    40    1
    40    19    41    1
    41    20    42    1
    42     6     7    1
    43     6     5    1
