@<TRIPOS>MOLECULE
ZINC00015515
 43 45 0 0 0
SMALL
GASTEIGER

@<TRIPOS>ATOM
      1 C           0.2963    0.7988    1.8221 C.3     1  UNL1       -0.0433
      2 N           0.5281    0.5630    0.3577 N.4     1  UNL1        0.2311
      3 C           1.4894   -0.5822    0.1614 C.3     1  UNL1       -0.0433
      4 C          -0.7282    0.3543   -0.4617 C.3     1  UNL1       -0.0283
      5 C          -1.6655    1.5631   -0.5109 C.3     1  UNL1        0.0147
      6 C          -1.0878    2.8874   -0.9160 C.ar    1  UNL1       -0.0173
      7 C          -1.5423    4.0905   -0.4024 C.ar    1  UNL1        0.0061
      8 N          -0.8514    5.1122   -0.9884 N.ar    1  UNL1       -0.3604
      9 H          -0.9955    6.0985   -0.8108 H       1  UNL1        0.1653
     10 C           0.0834    4.6056   -1.8567 C.ar    1  UNL1        0.0467
     11 C          -0.0563    3.2155   -1.8662 C.ar    1  UNL1        0.0033
     12 C           0.7954    2.4829   -2.7261 C.ar    1  UNL1       -0.0491
     13 C           1.8038    3.1394   -3.4627 C.ar    1  UNL1       -0.0448
     14 C           1.8868    4.5333   -3.4252 C.ar    1  UNL1       -0.0565
     15 C           1.0227    5.2891   -2.6344 C.ar    1  UNL1       -0.0375
     16 C           2.8357    2.3454   -4.2414 C.3     1  UNL1       -0.0059
     17 C           4.0433    1.8797   -3.4108 C.3     1  UNL1        0.0644
     18 H           4.6961    1.2726   -4.0519 H       1  UNL1        0.0536
     19 C           4.8767    2.9620   -2.7460 C.3     1  UNL1        0.1127
     20 O           5.2506    2.4135   -1.4694 O.3     1  UNL1       -0.4485
     21 C           4.4882    1.3134   -1.2327 C.2     1  UNL1        0.4007
     22 O           4.4912    0.6393   -0.2152 O.2     1  UNL1       -0.2265
     23 N           3.6906    1.0375   -2.3047 N.am    1  UNL1       -0.2747
     24 H          -0.0489   -0.1341    2.2754 H       1  UNL1        0.0777
     25 H          -0.4422    1.5920    1.9470 H       1  UNL1        0.0777
     26 H           1.2467    1.1153    2.2618 H       1  UNL1        0.0777
     27 H           0.9691   -1.5136    0.4059 H       1  UNL1        0.0777
     28 H           1.7992   -0.5849   -0.8852 H       1  UNL1        0.0777
     29 H           2.3479   -0.4378    0.8197 H       1  UNL1        0.0777
     30 H          -0.4076    0.0865   -1.4724 H       1  UNL1        0.0817
     31 H          -1.2495   -0.5095   -0.0370 H       1  UNL1        0.0817
     32 H          -2.4886    1.3299   -1.1984 H       1  UNL1        0.0366
     33 H          -2.1351    1.6742    0.4755 H       1  UNL1        0.0366
     34 H          -2.3205    4.3108    0.3183 H       1  UNL1        0.0810
     35 H           0.7005    1.4070   -2.8161 H       1  UNL1        0.0627
     36 H           2.6452    5.0568   -4.0061 H       1  UNL1        0.0621
     37 H           1.1006    6.3725   -2.6105 H       1  UNL1        0.0638
     38 H           2.3358    1.4667   -4.6725 H       1  UNL1        0.0332
     39 H           3.1862    2.9395   -5.0944 H       1  UNL1        0.0332
     40 H           5.7817    3.1834   -3.3218 H       1  UNL1        0.0717
     41 H           4.3528    3.8999   -2.5567 H       1  UNL1        0.0717
     42 H           3.4191    0.0746   -2.4225 H       1  UNL1        0.1524
     43 H           0.9969    1.4097   -0.0024 H       1  UNL1        0.2028
@<TRIPOS>UNITY_ATOM_ATTR
2 1
charge 1
@<TRIPOS>BOND
     1     1     2    1
     2     1    24    1
     3     1    25    1
     4     1    26    1
     5     2     3    1
     6     2     4    1
     7     2    43    1
     8     3    27    1
     9     3    28    1
    10     3    29    1
    11     4     5    1
    12     4    30    1
    13     4    31    1
    14     5     6    1
    15     5    32    1
    16     5    33    1
    17     6    11   ar
    18     6     7   ar
    19     7     8   ar
    20     7    34    1
    21     8     9    1
    22     8    10   ar
    23    10    15   ar
    24    10    11   ar
    25    11    12   ar
    26    12    13   ar
    27    12    35    1
    28    13    14   ar
    29    13    16    1
    30    14    15   ar
    31    14    36    1
    32    15    37    1
    33    16    17    1
    34    16    38    1
    35    16    39    1
    36    17    18    1
    37    17    23    1
    38    17    19    1
    39    19    20    1
    40    19    40    1
    41    19    41    1
    42    20    21    1
    43    21    22    2
    44    21    23   am
    45    23    42    1
