@<TRIPOS>MOLECULE
ZINC01530940
 49 50 0 0 0
SMALL
GASTEIGER

@<TRIPOS>ATOM
      1 C          -0.3933    5.7652    1.0512 C.3     1  UNL1       -0.0652
      2 C          -1.4761    6.3162    1.9672 C.3     1  UNL1       -0.0528
      3 C          -2.8345    5.5946    1.9174 C.3     1  UNL1       -0.0189
      4 C          -2.9643    4.2506    2.6660 C.3     1  UNL1        0.0896
      5 O          -2.3021    3.1477    2.0523 O.3     1  UNL1       -0.4920
      6 C          -2.9977    2.1147    1.4776 C.ar    1  UNL1        0.1205
      7 C          -4.2534    2.1733    0.8881 C.ar    1  UNL1       -0.0193
      8 C          -4.6595    1.1363    0.0200 C.ar    1  UNL1       -0.0478
      9 C          -3.8175    0.0382   -0.2584 C.ar    1  UNL1        0.0178
     10 C          -2.6581   -0.1089    0.4937 C.ar    1  UNL1       -0.0478
     11 C          -2.2578    0.9289    1.3508 C.ar    1  UNL1       -0.0193
     12 C          -4.1104   -0.7782   -1.4839 C.2     1  UNL1        0.1682
     13 O          -4.8502   -0.2905   -2.3232 O.2     1  UNL1       -0.2919
     14 C          -3.4628   -2.1199   -1.7830 C.3     1  UNL1        0.0506
     15 C          -4.3963   -3.3318   -1.7662 C.3     1  UNL1       -0.0247
     16 N          -5.6713   -3.2688   -2.6005 N.4     1  UNL1        0.2355
     17 C          -6.7652   -2.4359   -1.9609 C.3     1  UNL1       -0.0319
     18 C          -7.4026   -1.3375   -2.8060 C.3     1  UNL1       -0.0123
     19 C          -7.0271   -1.2716   -4.2737 C.3     1  UNL1       -0.0434
     20 C          -6.6666   -2.6367   -4.8153 C.3     1  UNL1       -0.0123
     21 C          -5.4447   -3.1614   -4.0879 C.3     1  UNL1       -0.0319
     22 H          -0.6101    4.7545    0.7004 H       1  UNL1        0.0230
     23 H           0.5715    5.7539    1.5703 H       1  UNL1        0.0230
     24 H          -0.2684    6.4117    0.1741 H       1  UNL1        0.0230
     25 H          -1.1049    6.3617    2.9975 H       1  UNL1        0.0264
     26 H          -1.6419    7.3645    1.6702 H       1  UNL1        0.0264
     27 H          -3.5431    6.2800    2.4029 H       1  UNL1        0.0298
     28 H          -3.1531    5.4865    0.8760 H       1  UNL1        0.0298
     29 H          -2.5007    4.3633    3.6532 H       1  UNL1        0.0696
     30 H          -4.0214    4.0339    2.8528 H       1  UNL1        0.0696
     31 H          -4.9008    3.0382    1.0010 H       1  UNL1        0.0654
     32 H          -5.6082    1.2421   -0.5072 H       1  UNL1        0.0626
     33 H          -1.9853   -0.9517    0.3785 H       1  UNL1        0.0626
     34 H          -1.3082    0.8471    1.8771 H       1  UNL1        0.0654
     35 H          -2.9887   -2.0285   -2.7700 H       1  UNL1        0.0398
     36 H          -2.6331   -2.3207   -1.0965 H       1  UNL1        0.0398
     37 H          -3.8538   -4.2103   -2.1433 H       1  UNL1        0.0819
     38 H          -4.7107   -3.5689   -0.7435 H       1  UNL1        0.0819
     39 H          -6.3827   -2.0282   -1.0188 H       1  UNL1        0.0814
     40 H          -7.5408   -3.1551   -1.6682 H       1  UNL1        0.0814
     41 H          -7.2137   -0.3612   -2.3421 H       1  UNL1        0.0317
     42 H          -8.4901   -1.4522   -2.7286 H       1  UNL1        0.0317
     43 H          -7.8491   -0.8315   -4.8447 H       1  UNL1        0.0269
     44 H          -6.1708   -0.5952   -4.4148 H       1  UNL1        0.0269
     45 H          -7.5143   -3.3239   -4.7179 H       1  UNL1        0.0317
     46 H          -6.4411   -2.5529   -5.8852 H       1  UNL1        0.0317
     47 H          -5.1945   -4.1689   -4.4400 H       1  UNL1        0.0814
     48 H          -4.5820   -2.5114   -4.2616 H       1  UNL1        0.0814
     49 H          -6.0571   -4.2212   -2.5138 H       1  UNL1        0.2033
@<TRIPOS>UNITY_ATOM_ATTR
16 1
charge 1
@<TRIPOS>BOND
     1     1     2    1
     2     1    22    1
     3     1    23    1
     4     1    24    1
     5     2     3    1
     6     2    25    1
     7     2    26    1
     8     3     4    1
     9     3    27    1
    10     3    28    1
    11     4     5    1
    12     4    29    1
    13     4    30    1
    14     5     6    1
    15     6    11   ar
    16     6     7   ar
    17     7     8   ar
    18     7    31    1
    19     8     9   ar
    20     8    32    1
    21     9    10   ar
    22     9    12    1
    23    10    11   ar
    24    10    33    1
    25    11    34    1
    26    12    13    2
    27    12    14    1
    28    14    15    1
    29    14    35    1
    30    14    36    1
    31    15    16    1
    32    15    37    1
    33    15    38    1
    34    16    21    1
    35    16    17    1
    36    16    49    1
    37    17    18    1
    38    17    39    1
    39    17    40    1
    40    18    19    1
    41    18    41    1
    42    18    42    1
    43    19    20    1
    44    19    43    1
    45    19    44    1
    46    20    21    1
    47    20    45    1
    48    20    46    1
    49    21    47    1
    50    21    48    1
