@<TRIPOS>MOLECULE
ZINC00057253
 41 42 0 0 0
SMALL
GASTEIGER

@<TRIPOS>ATOM
      1 C           1.0472    0.5171   -0.2303 C.3     1  UNL1       -0.0433
      2 N           0.5765   -0.8214    0.2576 N.4     1  UNL1        0.2310
      3 C           1.2236   -1.1607    1.5689 C.3     1  UNL1       -0.0433
      4 C          -0.9240   -0.9900    0.3106 C.3     1  UNL1       -0.0291
      5 C          -1.6047   -0.9292   -1.0666 C.3     1  UNL1        0.0247
      6 C          -1.1385   -2.0040   -2.1008 C.3     1  UNL1        0.1220
      7 C          -1.4376   -3.4064   -1.5176 C.ar    1  UNL1       -0.0115
      8 C          -0.4304   -4.3838   -1.3930 C.ar    1  UNL1       -0.0555
      9 C          -0.7081   -5.6532   -0.8774 C.ar    1  UNL1       -0.0614
     10 C          -2.0019   -5.9830   -0.4888 C.ar    1  UNL1       -0.0617
     11 C          -3.0178   -5.0403   -0.6016 C.ar    1  UNL1       -0.0614
     12 C          -2.7386   -3.7633   -1.0976 C.ar    1  UNL1       -0.0555
     13 C          -1.7257   -1.7310   -3.5110 C.ar    1  UNL1        0.0068
     14 C          -2.5979   -2.6544   -4.1301 C.ar    1  UNL1       -0.0541
     15 C          -3.1773   -2.4171   -5.3834 C.ar    1  UNL1       -0.0613
     16 C          -2.8911   -1.2541   -6.0797 C.ar    1  UNL1       -0.0604
     17 C          -2.0110   -0.3371   -5.5225 C.ar    1  UNL1       -0.0430
     18 C          -1.4268   -0.5713   -4.2681 C.ar    1  UNL1        0.0472
     19 CL         -0.2779    0.6248   -3.7779 Cl      1  UNL1       -0.0832
     20 O           0.3009   -1.8996   -2.1723 O.3     1  UNL1       -0.3790
     21 H           0.6389    1.2947    0.4184 H       1  UNL1        0.0777
     22 H           0.7121    0.6500   -1.2558 H       1  UNL1        0.0777
     23 H           2.1406    0.5227   -0.2167 H       1  UNL1        0.0777
     24 H           0.8944   -0.4323    2.3149 H       1  UNL1        0.0777
     25 H           0.9282   -2.1724    1.8535 H       1  UNL1        0.0777
     26 H           2.3108   -1.1139    1.4392 H       1  UNL1        0.0777
     27 H          -1.1214   -1.9511    0.7979 H       1  UNL1        0.0815
     28 H          -1.3093   -0.1975    0.9627 H       1  UNL1        0.0815
     29 H          -2.6883   -1.0018   -0.9109 H       1  UNL1        0.0352
     30 H          -1.4580    0.0824   -1.4505 H       1  UNL1        0.0352
     31 H           0.5926   -4.1842   -1.7047 H       1  UNL1        0.0621
     32 H           0.0849   -6.3939   -0.7957 H       1  UNL1        0.0618
     33 H          -2.2209   -6.9802   -0.1127 H       1  UNL1        0.0618
     34 H          -4.0347   -5.3079   -0.3208 H       1  UNL1        0.0618
     35 H          -3.5715   -3.0688   -1.1976 H       1  UNL1        0.0621
     36 H          -2.8578   -3.6022   -3.6660 H       1  UNL1        0.0622
     37 H          -3.8523   -3.1536   -5.8180 H       1  UNL1        0.0618
     38 H          -3.3394   -1.0674   -7.0522 H       1  UNL1        0.0618
     39 H          -1.7681    0.5648   -6.0850 H       1  UNL1        0.0632
     40 H           0.5375   -2.0442   -3.1103 H       1  UNL1        0.2111
     41 H           0.8999   -1.5041   -0.4566 H       1  UNL1        0.2028
@<TRIPOS>UNITY_ATOM_ATTR
2 1
charge 1
@<TRIPOS>BOND
     1     1     2    1
     2     1    21    1
     3     1    22    1
     4     1    23    1
     5     2     3    1
     6     2     4    1
     7     2    41    1
     8     3    24    1
     9     3    25    1
    10     3    26    1
    11     4     5    1
    12     4    27    1
    13     4    28    1
    14     5     6    1
    15     5    29    1
    16     5    30    1
    17     6     7    1
    18     6    13    1
    19     6    20    1
    20     7    12   ar
    21     7     8   ar
    22     8     9   ar
    23     8    31    1
    24     9    10   ar
    25     9    32    1
    26    10    11   ar
    27    10    33    1
    28    11    12   ar
    29    11    34    1
    30    12    35    1
    31    13    18   ar
    32    13    14   ar
    33    14    15   ar
    34    14    36    1
    35    15    16   ar
    36    15    37    1
    37    16    17   ar
    38    16    38    1
    39    17    18   ar
    40    17    39    1
    41    18    19    1
    42    20    40    1
