@<TRIPOS>MOLECULE
ZINC00587541
 48 51 0 0 0
SMALL
GASTEIGER

@<TRIPOS>ATOM
      1 C           1.1796   -0.0303    0.0067 C.3     1  UNL1       -0.0362
      2 C           0.6474   -1.4266   -0.1684 C.ar    1  UNL1       -0.0006
      3 C          -0.6973   -1.7079   -0.5032 C.ar    1  UNL1        0.0517
      4 C          -1.1152   -3.0429   -0.6848 C.ar    1  UNL1        0.0552
      5 C          -0.1708   -4.0754   -0.5348 C.ar    1  UNL1       -0.0136
      6 C           1.1512   -3.8492   -0.1440 C.ar    1  UNL1        0.0680
      7 C           1.5234   -2.5042    0.0384 C.ar    1  UNL1        0.1480
      8 F           2.7619   -2.2379    0.4948 F       1  UNL1       -0.2032
      9 N           2.0168   -4.9101    0.0845 N.pl3   1  UNL1       -0.3172
     10 C           3.4317   -4.8227   -0.2939 C.3     1  UNL1        0.0525
     11 C           4.2960   -5.3065    0.8826 C.3     1  UNL1       -0.0173
     12 N           3.8594   -6.6994    1.3042 N.4     1  UNL1        0.2312
     13 C           2.3828   -6.7662    1.6613 C.3     1  UNL1       -0.0094
     14 H           2.2591   -6.1291    2.5452 H       1  UNL1        0.0863
     15 C           1.5218   -6.2317    0.4896 C.3     1  UNL1        0.0551
     16 C           2.0356   -8.2083    1.9994 C.3     1  UNL1       -0.0202
     17 N          -2.4716   -3.3480   -1.0041 N.ar    1  UNL1       -0.3425
     18 C          -3.3475   -2.3091   -1.2252 C.ar    1  UNL1        0.0233
     19 C          -3.0676   -1.0033   -1.1076 C.ar    1  UNL1        0.1263
     20 C          -1.7331   -0.6260   -0.6010 C.ar    1  UNL1        0.2038
     21 O          -1.4704    0.4947   -0.1809 O.2     1  UNL1       -0.2863
     22 C          -4.1364    0.0140   -1.4827 C.2     1  UNL1        0.3916
     23 O          -5.3322   -0.3734   -1.3012 O.co2   1  UNL1       -0.2404
     24 O          -3.7313    1.0830   -2.0150 O.co2   1  UNL1       -0.2404
     25 C          -2.9717   -4.7380   -0.9159 C.3     1  UNL1        0.0347
     26 C          -4.2262   -5.2965   -1.5300 C.3     1  UNL1       -0.0302
     27 C          -2.8985   -5.6316   -2.1324 C.3     1  UNL1       -0.0302
     28 H           0.7781    0.4270    0.9159 H       1  UNL1        0.0279
     29 H           0.9418    0.5846   -0.8679 H       1  UNL1        0.0279
     30 H           2.2719   -0.0216    0.0943 H       1  UNL1        0.0279
     31 H          -0.4889   -5.0877   -0.7528 H       1  UNL1        0.0658
     32 H           3.5992   -5.4731   -1.1615 H       1  UNL1        0.0516
     33 H           3.7539   -3.8249   -0.6027 H       1  UNL1        0.0516
     34 H           5.3511   -5.3794    0.6066 H       1  UNL1        0.0829
     35 H           4.1845   -4.6639    1.7623 H       1  UNL1        0.0829
     36 H           4.4216   -6.9940    2.1114 H       1  UNL1        0.2017
     37 H           1.5666   -6.9124   -0.3696 H       1  UNL1        0.0519
     38 H           0.4832   -6.2034    0.8391 H       1  UNL1        0.0519
     39 H           2.2215   -8.8758    1.1503 H       1  UNL1        0.0285
     40 H           2.6269   -8.5653    2.8475 H       1  UNL1        0.0285
     41 H           0.9777   -8.2954    2.2691 H       1  UNL1        0.0285
     42 H          -4.3437   -2.6064   -1.5426 H       1  UNL1        0.0819
     43 H          -2.7383   -5.1712    0.0553 H       1  UNL1        0.0528
     44 H          -4.7444   -6.0745   -0.9794 H       1  UNL1        0.0286
     45 H          -4.8888   -4.6505   -2.0892 H       1  UNL1        0.0286
     46 H          -2.6655   -5.1738   -3.0876 H       1  UNL1        0.0286
     47 H          -2.5117   -6.6353   -2.0064 H       1  UNL1        0.0286
     48 H           4.0559   -7.3530    0.5362 H       1  UNL1        0.2017
@<TRIPOS>UNITY_ATOM_ATTR
12 1
charge 1
@<TRIPOS>BOND
     1     1     2    1
     2     1    28    1
     3     1    29    1
     4     1    30    1
     5     2     7   ar
     6     2     3   ar
     7     3    20   ar
     8     3     4   ar
     9     4     5   ar
    10     4    17   ar
    11     5     6   ar
    12     5    31    1
    13     6     7   ar
    14     6     9    1
    15     7     8    1
    16     9    15    1
    17     9    10    1
    18    10    11    1
    19    10    32    1
    20    10    33    1
    21    11    12    1
    22    11    34    1
    23    11    35    1
    24    12    13    1
    25    12    36    1
    26    12    48    1
    27    13    14    1
    28    13    15    1
    29    13    16    1
    30    15    37    1
    31    15    38    1
    32    16    39    1
    33    16    40    1
    34    16    41    1
    35    17    18   ar
    36    17    25    1
    37    18    19   ar
    38    18    42    1
    39    19    20   ar
    40    19    22    1
    41    20    21    2
    42    22    23   ar
    43    22    24   ar
    44    25    27    1
    45    25    26    1
    46    25    43    1
    47    26    27    1
    48    26    44    1
    49    26    45    1
    50    27    46    1
    51    27    47    1
