@<TRIPOS>MOLECULE
ZINC03830212
 61 63 0 0 0
SMALL
GASTEIGER

@<TRIPOS>ATOM
      1 C           1.1554    0.0827    6.9581 C.3     1  UNL1       -0.0653
      2 C           0.7138   -0.9608    5.9445 C.3     1  UNL1       -0.0555
      3 C           1.1411   -0.5851    4.5219 C.3     1  UNL1       -0.0464
      4 C           0.7988   -1.6607    3.4865 C.3     1  UNL1        0.0062
      5 C          -0.6682   -1.8266    3.2956 C.ar    1  UNL1        0.1171
      6 C          -1.6112   -1.1730    2.5233 C.ar    1  UNL1        0.0708
      7 C          -2.8555   -1.8294    2.7783 C.ar    1  UNL1        0.0313
      8 C          -4.1783   -1.7195    2.3020 C.ar    1  UNL1       -0.0503
      9 C          -5.1752   -2.5267    2.8706 C.ar    1  UNL1       -0.0610
     10 C          -4.8711   -3.4267    3.8909 C.ar    1  UNL1       -0.0582
     11 C          -3.5602   -3.5756    4.3599 C.ar    1  UNL1       -0.0187
     12 C          -2.5910   -2.7720    3.7646 C.ar    1  UNL1        0.1359
     13 O          -1.2628   -2.7859    4.0629 O.2     1  UNL1       -0.4590
     14 C          -1.3132   -0.0409    1.6736 C.2     1  UNL1        0.1971
     15 O          -0.3359   -0.0190    0.9263 O.2     1  UNL1       -0.2865
     16 C          -2.1926    1.1626    1.7398 C.ar    1  UNL1        0.0246
     17 C          -2.1389    2.0682    0.6804 C.ar    1  UNL1       -0.0342
     18 C          -2.9070    3.2451    0.6881 C.ar    1  UNL1        0.0567
     19 C          -3.8214    3.4994    1.7319 C.ar    1  UNL1        0.1469
     20 C          -3.8054    2.6094    2.8296 C.ar    1  UNL1        0.0567
     21 C          -2.9918    1.4635    2.8423 C.ar    1  UNL1       -0.0342
     22 I          -4.9847    2.9317    4.5477 I       1  UNL1       -0.0400
     23 O          -4.7157    4.5489    1.8168 O.3     1  UNL1       -0.4846
     24 C          -5.3260    4.9429    0.5865 C.3     1  UNL1        0.1292
     25 C          -6.7459    5.4812    0.7800 C.3     1  UNL1        0.0031
     26 C          -5.9702    7.8956    1.2479 C.3     1  UNL1       -0.0347
     27 C          -6.2539    8.3446   -0.1771 C.3     1  UNL1       -0.0245
     28 C          -8.2556    7.1331    1.9619 C.3     1  UNL1       -0.0347
     29 C          -8.9922    6.1050    2.8023 C.3     1  UNL1       -0.0245
     30 I          -2.3761    4.5615   -0.8848 I       1  UNL1       -0.0400
     31 H           2.2055    0.3588    6.8203 H       1  UNL1        0.0230
     32 H           1.0373   -0.3061    7.9746 H       1  UNL1        0.0230
     33 H           0.5469    0.9881    6.8702 H       1  UNL1        0.0230
     34 H           1.1556   -1.9297    6.2114 H       1  UNL1        0.0263
     35 H          -0.3725   -1.0710    6.0049 H       1  UNL1        0.0263
     36 H           0.6877    0.3735    4.2406 H       1  UNL1        0.0269
     37 H           2.2288   -0.4367    4.5066 H       1  UNL1        0.0269
     38 H           1.2559   -1.3837    2.5294 H       1  UNL1        0.0344
     39 H           1.2514   -2.6174    3.7743 H       1  UNL1        0.0344
     40 H          -4.4336   -1.0349    1.5001 H       1  UNL1        0.0625
     41 H          -6.1986   -2.4499    2.5117 H       1  UNL1        0.0618
     42 H          -5.6589   -4.0382    4.3245 H       1  UNL1        0.0619
     43 H          -3.3036   -4.2781    5.1353 H       1  UNL1        0.0654
     44 H          -1.4571    1.8617   -0.1459 H       1  UNL1        0.0636
     45 H          -2.9788    0.8181    3.7209 H       1  UNL1        0.0636
     46 H          -4.7265    5.7396    0.1503 H       1  UNL1        0.0751
     47 H          -5.4030    4.0955   -0.1045 H       1  UNL1        0.0751
     48 H          -7.1874    5.7580   -0.1840 H       1  UNL1        0.0848
     49 H          -7.3529    4.7024    1.2450 H       1  UNL1        0.0848
     50 H          -6.1732    8.7077    1.9547 H       1  UNL1        0.0812
     51 H          -4.9210    7.6114    1.3725 H       1  UNL1        0.0812
     52 H          -7.3229    8.4318   -0.3885 H       1  UNL1        0.0281
     53 H          -5.8023    9.3274   -0.3524 H       1  UNL1        0.0281
     54 H          -5.8145    7.6568   -0.9065 H       1  UNL1        0.0281
     55 H          -8.2138    8.0803    2.5102 H       1  UNL1        0.0812
     56 H          -8.7532    7.2954    1.0006 H       1  UNL1        0.0812
     57 H          -8.4877    5.9400    3.7582 H       1  UNL1        0.0281
     58 H         -10.0065    6.4600    3.0084 H       1  UNL1        0.0281
     59 H          -9.0952    5.1428    2.2917 H       1  UNL1        0.0281
     60 N          -6.8213    6.7068    1.6807 N.4     1  UNL1        0.2372
     61 H          -6.4187    6.4072    2.5826 H       1  UNL1        0.2034
@<TRIPOS>UNITY_ATOM_ATTR
60 1
charge 1
@<TRIPOS>BOND
     1     1     2    1
     2     1    31    1
     3     1    32    1
     4     1    33    1
     5     2     3    1
     6     2    34    1
     7     2    35    1
     8     3     4    1
     9     3    36    1
    10     3    37    1
    11     4     5    1
    12     4    38    1
    13     4    39    1
    14     5    13   ar
    15     5     6   ar
    16     6     7   ar
    17     6    14    1
    18     7    12   ar
    19     7     8   ar
    20     8     9   ar
    21     8    40    1
    22     9    10   ar
    23     9    41    1
    24    10    11   ar
    25    10    42    1
    26    11    12   ar
    27    11    43    1
    28    12    13   ar
    29    14    15    2
    30    14    16    1
    31    16    21   ar
    32    16    17   ar
    33    17    18   ar
    34    17    44    1
    35    18    19   ar
    36    18    30    1
    37    19    20   ar
    38    19    23    1
    39    20    21   ar
    40    20    22    1
    41    21    45    1
    42    23    24    1
    43    24    25    1
    44    24    46    1
    45    24    47    1
    46    25    48    1
    47    25    49    1
    48    25    60    1
    49    26    27    1
    50    26    50    1
    51    26    51    1
    52    26    60    1
    53    27    52    1
    54    27    53    1
    55    27    54    1
    56    28    29    1
    57    28    55    1
    58    28    56    1
    59    28    60    1
    60    29    57    1
    61    29    58    1
    62    29    59    1
    63    60    61    1
