@<TRIPOS>MOLECULE
ZINC01530768
 55 56 0 0 0
SMALL
GASTEIGER

@<TRIPOS>ATOM
      1 C           1.7733    6.2498    0.3332 C.3     1  UNL1       -0.0552
      2 C           2.8360    6.1909    1.4173 C.3     1  UNL1        0.0421
      3 C           4.0190    5.2917    1.1276 C.2     1  UNL1        0.3077
      4 O           4.9784    5.2099    1.8823 O.2     1  UNL1       -0.2508
      5 O           3.8908    4.6129   -0.0422 O.3     1  UNL1       -0.4525
      6 C           4.9416    3.7200   -0.5644 C.3     1  UNL1        0.1496
      7 C           6.3130    4.4945   -0.6647 C.3     1  UNL1        0.0172
      8 C           6.4174    5.7053   -1.5820 C.ar    1  UNL1       -0.0432
      9 C           7.4559    5.7717   -2.5269 C.ar    1  UNL1       -0.0584
     10 C           7.6624    6.9261   -3.2900 C.ar    1  UNL1       -0.0615
     11 C           6.8375    8.0338   -3.1214 C.ar    1  UNL1       -0.0617
     12 C           5.8025    7.9828   -2.1938 C.ar    1  UNL1       -0.0615
     13 C           5.5970    6.8322   -1.4316 C.ar    1  UNL1       -0.0584
     14 C           5.0814    2.4378    0.3062 C.ar    1  UNL1       -0.0035
     15 C           6.0722    1.4676    0.0433 C.ar    1  UNL1       -0.0548
     16 C           6.1530    0.2752    0.7716 C.ar    1  UNL1       -0.0614
     17 C           5.2952    0.0522    1.8390 C.ar    1  UNL1       -0.0617
     18 C           4.3495    1.0145    2.1657 C.ar    1  UNL1       -0.0614
     19 C           4.2261    2.1752    1.3931 C.ar    1  UNL1       -0.0548
     20 C           4.3981    3.3394   -2.0229 C.3     1  UNL1        0.0407
     21 H           4.2696    4.2918   -2.5475 H       1  UNL1        0.0392
     22 C           2.9933    2.7165   -1.9853 C.3     1  UNL1       -0.0535
     23 C           5.3613    2.4518   -2.8413 C.3     1  UNL1       -0.0257
     24 N           4.9785    2.2796   -4.3041 N.4     1  UNL1        0.2312
     25 C           4.9821    3.5587   -5.0966 C.3     1  UNL1       -0.0433
     26 C           5.8638    1.2444   -4.9633 C.3     1  UNL1       -0.0433
     27 H           2.1949    6.5724   -0.6244 H       1  UNL1        0.0235
     28 H           0.9878    6.9599    0.6123 H       1  UNL1        0.0235
     29 H           1.3060    5.2706    0.1852 H       1  UNL1        0.0235
     30 H           3.2281    7.2022    1.5740 H       1  UNL1        0.0375
     31 H           2.3775    5.8448    2.3490 H       1  UNL1        0.0375
     32 H           6.6461    4.8262    0.3259 H       1  UNL1        0.0355
     33 H           7.0950    3.7881   -0.9718 H       1  UNL1        0.0355
     34 H           8.1625    4.9522   -2.6379 H       1  UNL1        0.0620
     35 H           8.4998    6.9833   -3.9815 H       1  UNL1        0.0618
     36 H           7.0268    8.9517   -3.6740 H       1  UNL1        0.0618
     37 H           5.1739    8.8588   -2.0353 H       1  UNL1        0.0618
     38 H           4.8154    6.8754   -0.6847 H       1  UNL1        0.0620
     39 H           6.8170    1.6047   -0.7341 H       1  UNL1        0.0622
     40 H           6.9017   -0.4726    0.5198 H       1  UNL1        0.0618
     41 H           5.3754   -0.8576    2.4290 H       1  UNL1        0.0618
     42 H           3.7052    0.8684    3.0302 H       1  UNL1        0.0618
     43 H           3.4525    2.8753    1.6947 H       1  UNL1        0.0622
     44 H           2.5759    2.6128   -2.9925 H       1  UNL1        0.0236
     45 H           3.0032    1.7231   -1.5256 H       1  UNL1        0.0236
     46 H           2.2889    3.3435   -1.4272 H       1  UNL1        0.0236
     47 H           6.3840    2.8364   -2.8468 H       1  UNL1        0.0818
     48 H           5.3590    1.4339   -2.4435 H       1  UNL1        0.0818
     49 H           5.9719    4.0147   -5.0193 H       1  UNL1        0.0777
     50 H           4.7464    3.3115   -6.1356 H       1  UNL1        0.0777
     51 H           4.2053    4.2149   -4.7017 H       1  UNL1        0.0777
     52 H           5.7766    0.3111   -4.4001 H       1  UNL1        0.0777
     53 H           5.5104    1.0929   -5.9865 H       1  UNL1        0.0777
     54 H           6.8943    1.6110   -4.9538 H       1  UNL1        0.0777
     55 H           4.0252    1.8983   -4.3417 H       1  UNL1        0.2028
@<TRIPOS>UNITY_ATOM_ATTR
24 1
charge 1
@<TRIPOS>BOND
     1     1     2    1
     2     1    27    1
     3     1    28    1
     4     1    29    1
     5     2     3    1
     6     2    30    1
     7     2    31    1
     8     3     4    2
     9     3     5    1
    10     6     5    1
    11     6     7    1
    12     6    14    1
    13     7     8    1
    14     7    32    1
    15     7    33    1
    16     8    13   ar
    17     8     9   ar
    18     9    10   ar
    19     9    34    1
    20    10    11   ar
    21    10    35    1
    22    11    12   ar
    23    11    36    1
    24    12    13   ar
    25    12    37    1
    26    13    38    1
    27    14    19   ar
    28    14    15   ar
    29    15    16   ar
    30    15    39    1
    31    16    17   ar
    32    16    40    1
    33    17    18   ar
    34    17    41    1
    35    18    19   ar
    36    18    42    1
    37    19    43    1
    38    20    22    1
    39    20    23    1
    40    22    44    1
    41    22    45    1
    42    22    46    1
    43    23    24    1
    44    23    47    1
    45    23    48    1
    46    24    25    1
    47    24    26    1
    48    24    55    1
    49    25    49    1
    50    25    50    1
    51    25    51    1
    52    26    52    1
    53    26    53    1
    54    26    54    1
    55    20    21    1
    56    20     6    1
