@<TRIPOS>MOLECULE
ZINC03831582
 51 55 0 0 0
SMALL
GASTEIGER

@<TRIPOS>ATOM
      1 C           5.5354   -0.2681    1.8287 C.ar    1  UNL1       -0.0617
      2 C           4.6001   -1.2982    1.8702 C.ar    1  UNL1       -0.0615
      3 C           3.4378   -1.2087    1.1062 C.ar    1  UNL1       -0.0571
      4 C           3.1964   -0.1123    0.2649 C.ar    1  UNL1       -0.0300
      5 C           4.1043    0.9582    0.3121 C.ar    1  UNL1       -0.0571
      6 C           5.2700    0.8730    1.0775 C.ar    1  UNL1       -0.0615
      7 C           2.1984   -0.1704   -0.8749 C.3     1  UNL1        0.0416
      8 N           0.8398   -0.5600   -0.5815 N.am    1  UNL1       -0.2755
      9 C          -0.2936    0.3459   -0.4833 C.3     1  UNL1        0.0557
     10 H          -0.3003    0.7135    0.5507 H       1  UNL1        0.0528
     11 C          -0.5306    1.5001   -1.4508 C.3     1  UNL1        0.0059
     12 S          -2.3536    1.5467   -1.8864 S.3     1  UNL1       -0.2015
     13 C          -2.9585    2.7563   -0.6698 C.3     1  UNL1       -0.0146
     14 C          -3.9077    1.9939    0.2414 C.3     1  UNL1       -0.0437
     15 C          -3.1530    0.7336    0.6243 C.3     1  UNL1       -0.0394
     16 C          -2.7285    0.0918   -0.6885 C.3     1  UNL1        0.0171
     17 H          -3.5502   -0.4601   -1.1481 H       1  UNL1        0.0423
     18 C          -1.4137   -0.6430   -0.7494 C.3     1  UNL1        0.0582
     19 H          -1.3280   -0.9917   -1.7970 H       1  UNL1        0.0530
     20 N          -0.9639   -1.7773   -0.0067 N.am    1  UNL1       -0.2753
     21 C           0.4227   -1.8570   -0.1973 C.2     1  UNL1        0.3060
     22 O           1.0983   -2.8568   -0.0402 O.2     1  UNL1       -0.2524
     23 C          -1.6827   -2.5465    0.9775 C.3     1  UNL1        0.0416
     24 C          -2.8686   -3.2343    0.3641 C.ar    1  UNL1       -0.0300
     25 C          -4.1630   -2.7790    0.6144 C.ar    1  UNL1       -0.0571
     26 C          -5.2356   -3.2669   -0.1370 C.ar    1  UNL1       -0.0615
     27 C          -5.0078   -4.2532   -1.1016 C.ar    1  UNL1       -0.0617
     28 C          -3.7307   -4.7718   -1.2907 C.ar    1  UNL1       -0.0615
     29 C          -2.6589   -4.2620   -0.5590 C.ar    1  UNL1       -0.0571
     30 H           6.4772   -0.3728    2.3586 H       1  UNL1        0.0618
     31 H           4.7945   -2.1944    2.4518 H       1  UNL1        0.0618
     32 H           2.7705   -2.0627    1.1323 H       1  UNL1        0.0621
     33 H           3.9496    1.8384   -0.3073 H       1  UNL1        0.0621
     34 H           5.9974    1.6797    1.0484 H       1  UNL1        0.0618
     35 H           2.5900   -0.8986   -1.5948 H       1  UNL1        0.0514
     36 H           2.1596    0.7953   -1.3899 H       1  UNL1        0.0514
     37 H          -0.2244    2.4623   -1.0326 H       1  UNL1        0.0387
     38 H          -0.0011    1.3459   -2.3977 H       1  UNL1        0.0387
     39 H          -3.4889    3.5497   -1.2086 H       1  UNL1        0.0369
     40 H          -2.1326    3.1937   -0.1117 H       1  UNL1        0.0369
     41 H          -4.1849    2.5873    1.1190 H       1  UNL1        0.0273
     42 H          -4.8331    1.7319   -0.2885 H       1  UNL1        0.0273
     43 H          -3.7882    0.0696    1.2116 H       1  UNL1        0.0276
     44 H          -2.3034    0.9976    1.2621 H       1  UNL1        0.0276
     45 H          -1.9779   -1.8583    1.7746 H       1  UNL1        0.0514
     46 H          -1.0145   -3.2859    1.4315 H       1  UNL1        0.0514
     47 H          -4.3550   -2.0150    1.3572 H       1  UNL1        0.0621
     48 H          -6.2274   -2.8666    0.0097 H       1  UNL1        0.0618
     49 H          -5.8343   -4.6070   -1.7146 H       1  UNL1        0.0618
     50 H          -3.5580   -5.5473   -2.0315 H       1  UNL1        0.0618
     51 H          -1.6537   -4.6399   -0.7369 H       1  UNL1        0.0621
@<TRIPOS>BOND
     1     1     6   ar
     2     1     2   ar
     3     1    30    1
     4     2     3   ar
     5     2    31    1
     6     3     4   ar
     7     3    32    1
     8     4     5   ar
     9     4     7    1
    10     5     6   ar
    11     5    33    1
    12     6    34    1
    13     7     8    1
    14     7    35    1
    15     7    36    1
    16     8    21   am
    17     8     9    1
    18     9    10    1
    19     9    18    1
    20     9    11    1
    21    11    37    1
    22    11    38    1
    23    12    11    1
    24    12    16    1
    25    12    13    1
    26    13    14    1
    27    13    39    1
    28    13    40    1
    29    14    15    1
    30    14    41    1
    31    14    42    1
    32    15    16    1
    33    15    43    1
    34    15    44    1
    35    16    17    1
    36    16    18    1
    37    18    19    1
    38    18    20    1
    39    20    21   am
    40    20    23    1
    41    21    22    2
    42    23    24    1
    43    23    45    1
    44    23    46    1
    45    24    29   ar
    46    24    25   ar
    47    25    26   ar
    48    25    47    1
    49    26    27   ar
    50    26    48    1
    51    27    28   ar
    52    27    49    1
    53    28    29   ar
    54    28    50    1
    55    29    51    1
