@<TRIPOS>MOLECULE
ZINC01532556
 17 16 0 0 0
SMALL
GASTEIGER

@<TRIPOS>ATOM
      1 CB          0.9565    0.1013    0.1446 C.3     1  ASN1        0.0771
      2 CA          0.5038   -1.3508    0.2623 C.3     1  ASN1        0.0869
      3 HA          0.8914   -1.8389    1.1620 H       1  ASN1        0.0974
      4 C          -1.0397   -1.2901    0.2484 C.2     1  ASN1        0.4031
      5 O          -1.4868   -1.5512   -0.9117 O.co2   1  ASN1       -0.2400
      6 H1          0.4052   -1.8629   -1.7067 H       1  ASN1        0.2003
      7 H2          2.0112   -2.0173   -1.0903 H       1  ASN1        0.2003
      8 CG          2.4595    0.1871    0.1404 C.2     1  ASN1        0.2164
      9 OD1         3.1681   -0.7299   -0.2685 O.2     1  ASN1       -0.2758
     10 ND2         2.9831    1.3744    0.5378 N.am    1  ASN1       -0.3291
     11 HB1         0.5640    0.6953    0.9785 H       1  ASN1        0.0420
     12 HB2         0.5945    0.5586   -0.7845 H       1  ASN1        0.0420
     13 HD21        2.4196    2.1433    0.8799 H       1  ASN1        0.1449
     14 HD22        3.9907    1.4834    0.5512 H       1  ASN1        0.1449
     15 OXT        -1.6000   -1.0545    1.3411 O.co2   1  ASN1       -0.2400
     16 N           1.0071   -2.1592   -0.9171 N.4     1  ASN1        0.2292
     17 H3          0.7707   -3.1441   -0.7730 H       1  ASN1        0.2003
@<TRIPOS>UNITY_ATOM_ATTR
16 1
charge 1
@<TRIPOS>BOND
     1     1     2    1
     2     1     8    1
     3     1    11    1
     4     1    12    1
     5     2     3    1
     6     2     4    1
     7     2    16    1
     8     4     5   ar
     9     4    15   ar
    10     6    16    1
    11     7    16    1
    12     8     9    2
    13     8    10   am
    14    10    13    1
    15    10    14    1
    16    16    17    1
