@<TRIPOS>MOLECULE
ZINC00537931
 50 53 0 0 0
SMALL
GASTEIGER

@<TRIPOS>ATOM
      1 C          -0.1480   -0.0232   -1.1692 C.3     1  UNL1       -0.0305
      2 C           0.7887    0.0502   -2.3616 C.3     1  UNL1        0.0913
      3 O           1.2586   -1.2597   -2.7337 O.3     1  UNL1       -0.4505
      4 C           2.3437   -1.7109   -2.0422 C.2     1  UNL1        0.4029
      5 O           2.8817   -1.0742   -1.1487 O.2     1  UNL1       -0.2263
      6 N           2.7515   -2.9673   -2.4491 N.am    1  UNL1       -0.2668
      7 C           3.9333   -3.5627   -1.8231 C.3     1  UNL1        0.0215
      8 C           3.6291   -5.0081   -1.4267 C.3     1  UNL1       -0.0148
      9 C           3.3561   -5.7939   -2.7114 C.2     1  UNL1       -0.0568
     10 C           4.1536   -6.7851   -3.2170 C.2     1  UNL1        0.0073
     11 C           3.8222   -7.4182   -4.5280 C.ar    1  UNL1       -0.0126
     12 C           3.8292   -6.6579   -5.7077 C.ar    1  UNL1       -0.0523
     13 C           3.6356   -7.2616   -6.9522 C.ar    1  UNL1       -0.0428
     14 C           3.4600   -8.6386   -7.0313 C.ar    1  UNL1        0.0413
     15 C           3.4557   -9.4142   -5.8747 C.ar    1  UNL1       -0.0396
     16 C           3.6298   -8.8102   -4.6171 C.ar    1  UNL1       -0.0379
     17 C           3.6969   -9.6642   -3.3782 C.3     1  UNL1       -0.0230
     18 C           5.1347   -9.7800   -2.8787 C.3     1  UNL1       -0.0216
     19 C           5.8001   -8.5475   -2.3071 C.ar    1  UNL1       -0.0211
     20 C           5.4006   -7.2136   -2.4875 C.ar    1  UNL1        0.0747
     21 N           6.1511   -6.1795   -2.0137 N.ar    1  UNL1       -0.2547
     22 C           7.2394   -6.4494   -1.2660 C.ar    1  UNL1        0.0283
     23 C           7.6841   -7.7235   -1.0059 C.ar    1  UNL1       -0.0433
     24 C           6.9714   -8.7784   -1.5586 C.ar    1  UNL1       -0.0551
     25 CL          3.2810   -9.3947   -8.5676 Cl      1  UNL1       -0.0835
     26 C           2.0800   -5.2229   -3.3329 C.3     1  UNL1       -0.0148
     27 C           2.2007   -3.7020   -3.5970 C.3     1  UNL1        0.0215
     28 H          -0.9763   -0.7107   -1.3716 H       1  UNL1        0.0262
     29 H          -0.5580    0.9634   -0.9381 H       1  UNL1        0.0262
     30 H           0.3699   -0.4000   -0.2816 H       1  UNL1        0.0262
     31 H           0.2454    0.4492   -3.2275 H       1  UNL1        0.0695
     32 H           1.6260    0.7330   -2.1723 H       1  UNL1        0.0695
     33 H           4.7535   -3.5098   -2.5513 H       1  UNL1        0.0469
     34 H           4.2444   -2.9897   -0.9426 H       1  UNL1        0.0469
     35 H           2.7328   -5.0382   -0.7929 H       1  UNL1        0.0325
     36 H           4.4197   -5.4074   -0.7945 H       1  UNL1        0.0325
     37 H           4.0119   -5.5865   -5.6644 H       1  UNL1        0.0624
     38 H           3.6493   -6.6559   -7.8541 H       1  UNL1        0.0632
     39 H           3.3465  -10.4943   -5.9533 H       1  UNL1        0.0635
     40 H           3.0325   -9.2660   -2.6026 H       1  UNL1        0.0317
     41 H           3.3220  -10.6691   -3.6066 H       1  UNL1        0.0317
     42 H           5.1362  -10.5546   -2.0980 H       1  UNL1        0.0317
     43 H           5.7725  -10.1535   -3.6917 H       1  UNL1        0.0317
     44 H           7.7486   -5.5797   -0.8606 H       1  UNL1        0.0830
     45 H           8.5652   -7.8947   -0.3987 H       1  UNL1        0.0633
     46 H           7.3283   -9.7937   -1.3973 H       1  UNL1        0.0621
     47 H           1.2598   -5.3862   -2.6191 H       1  UNL1        0.0325
     48 H           1.7732   -5.7301   -4.2506 H       1  UNL1        0.0325
     49 H           1.2206   -3.3020   -3.8769 H       1  UNL1        0.0469
     50 H           2.8788   -3.5247   -4.4390 H       1  UNL1        0.0469
@<TRIPOS>BOND
     1     1     2    1
     2     1    28    1
     3     1    29    1
     4     1    30    1
     5     2     3    1
     6     2    31    1
     7     2    32    1
     8     3     4    1
     9     4     5    2
    10     4     6   am
    11     6    27    1
    12     6     7    1
    13     7     8    1
    14     7    33    1
    15     7    34    1
    16     8     9    1
    17     8    35    1
    18     8    36    1
    19     9    10    2
    20     9    26    1
    21    10    20    1
    22    10    11    1
    23    11    16   ar
    24    11    12   ar
    25    12    13   ar
    26    12    37    1
    27    13    14   ar
    28    13    38    1
    29    14    15   ar
    30    14    25    1
    31    15    16   ar
    32    15    39    1
    33    16    17    1
    34    17    18    1
    35    17    40    1
    36    17    41    1
    37    18    19    1
    38    18    42    1
    39    18    43    1
    40    19    24   ar
    41    19    20   ar
    42    20    21   ar
    43    21    22   ar
    44    22    23   ar
    45    22    44    1
    46    23    24   ar
    47    23    45    1
    48    24    46    1
    49    26    27    1
    50    26    47    1
    51    26    48    1
    52    27    49    1
    53    27    50    1
