@<TRIPOS>MOLECULE
ZINC00968275
 49 51 0 0 0
SMALL
GASTEIGER

@<TRIPOS>ATOM
      1 C           0.8405    2.3073    0.2034 C.3     1  UNL1       -0.0561
      2 C           0.3712    1.2682    1.2472 C.3     1  UNL1        0.0124
      3 H           0.1703    1.7938    2.1905 H       1  UNL1        0.0365
      4 C          -0.9840    0.7171    0.7413 C.3     1  UNL1        0.0247
      5 N          -1.7441   -0.1398    1.6890 N.pl3   1  UNL1       -0.2992
      6 C          -3.1407    0.0802    1.4136 C.ar    1  UNL1        0.0372
      7 C          -3.7400    1.1686    2.0945 C.ar    1  UNL1       -0.0401
      8 C          -5.0818    1.4872    1.9067 C.ar    1  UNL1       -0.0600
      9 C          -5.8566    0.7225    1.0483 C.ar    1  UNL1       -0.0614
     10 C          -5.2807   -0.3627    0.3707 C.ar    1  UNL1       -0.0568
     11 C          -3.9202   -0.6955    0.5301 C.ar    1  UNL1       -0.0257
     12 C          -3.4620   -1.9127   -0.2585 C.3     1  UNL1       -0.0219
     13 C          -1.9684   -2.1976   -0.4402 C.3     1  UNL1       -0.0219
     14 C          -1.3142   -2.4575    0.8890 C.ar    1  UNL1       -0.0257
     15 C          -1.3111   -1.4691    1.8895 C.ar    1  UNL1        0.0372
     16 C          -1.0488   -1.8719    3.2101 C.ar    1  UNL1       -0.0401
     17 C          -0.7004   -3.1879    3.5204 C.ar    1  UNL1       -0.0600
     18 C          -0.6011   -4.1324    2.5071 C.ar    1  UNL1       -0.0614
     19 C          -0.9065   -3.7682    1.1953 C.ar    1  UNL1       -0.0568
     20 C           1.4441    0.1963    1.4882 C.3     1  UNL1       -0.0283
     21 N           2.7419    0.7976    2.0540 N.4     1  UNL1        0.2311
     22 C           2.5518    1.4905    3.3796 C.3     1  UNL1       -0.0433
     23 C           3.8378   -0.2328    2.1462 C.3     1  UNL1       -0.0433
     24 H           0.2674    3.2322    0.3075 H       1  UNL1        0.0235
     25 H           0.6904    1.9364   -0.8176 H       1  UNL1        0.0235
     26 H           1.8970    2.5763    0.2926 H       1  UNL1        0.0235
     27 H          -1.5787    1.6209    0.5282 H       1  UNL1        0.0472
     28 H          -0.8433    0.2521   -0.2347 H       1  UNL1        0.0472
     29 H          -3.1501    1.7577    2.7872 H       1  UNL1        0.0636
     30 H          -5.5227    2.3261    2.4389 H       1  UNL1        0.0618
     31 H          -6.9090    0.9558    0.9041 H       1  UNL1        0.0618
     32 H          -5.9208   -0.9538   -0.2810 H       1  UNL1        0.0621
     33 H          -3.9304   -2.7923    0.2070 H       1  UNL1        0.0317
     34 H          -3.8851   -1.8295   -1.2683 H       1  UNL1        0.0317
     35 H          -1.4668   -1.4055   -0.9952 H       1  UNL1        0.0317
     36 H          -1.8655   -3.0849   -1.0804 H       1  UNL1        0.0317
     37 H          -1.1805   -1.1573    4.0215 H       1  UNL1        0.0636
     38 H          -0.5599   -3.4862    4.5580 H       1  UNL1        0.0618
     39 H          -0.3561   -5.1658    2.7449 H       1  UNL1        0.0618
     40 H          -0.9186   -4.5467    0.4324 H       1  UNL1        0.0621
     41 H           1.1380   -0.5546    2.2161 H       1  UNL1        0.0817
     42 H           1.7164   -0.2991    0.5497 H       1  UNL1        0.0817
     43 H           2.0320    0.8106    4.0602 H       1  UNL1        0.0777
     44 H           3.5369    1.7585    3.7728 H       1  UNL1        0.0777
     45 H           1.9802    2.4043    3.2117 H       1  UNL1        0.0777
     46 H           3.9664   -0.6848    1.1618 H       1  UNL1        0.0777
     47 H           4.7572    0.2867    2.4339 H       1  UNL1        0.0777
     48 H           3.5576   -0.9769    2.8944 H       1  UNL1        0.0777
     49 H           3.0913    1.4991    1.3939 H       1  UNL1        0.2028
@<TRIPOS>UNITY_ATOM_ATTR
21 1
charge 1
@<TRIPOS>BOND
     1     1     2    1
     2     1    24    1
     3     1    25    1
     4     1    26    1
     5     2     3    1
     6     2     4    1
     7     2    20    1
     8     4     5    1
     9     4    27    1
    10     4    28    1
    11     5    15    1
    12     5     6    1
    13     6    11   ar
    14     6     7   ar
    15     7     8   ar
    16     7    29    1
    17     8     9   ar
    18     8    30    1
    19     9    10   ar
    20     9    31    1
    21    10    11   ar
    22    10    32    1
    23    11    12    1
    24    12    13    1
    25    12    33    1
    26    12    34    1
    27    13    14    1
    28    13    35    1
    29    13    36    1
    30    14    19   ar
    31    14    15   ar
    32    15    16   ar
    33    16    17   ar
    34    16    37    1
    35    17    18   ar
    36    17    38    1
    37    18    19   ar
    38    18    39    1
    39    19    40    1
    40    20    21    1
    41    20    41    1
    42    20    42    1
    43    21    22    1
    44    21    23    1
    45    21    49    1
    46    22    43    1
    47    22    44    1
    48    22    45    1
    49    23    46    1
    50    23    47    1
    51    23    48    1
