@<TRIPOS>MOLECULE
ZINC01530975
 52 54 0 0 0
SMALL
GASTEIGER

@<TRIPOS>ATOM
      1 C          -1.2742   -1.0065    1.1008 C.3     1  UNL1       -0.0560
      2 C           0.2117   -0.9543    0.6737 C.3     1  UNL1       -0.0127
      3 C           0.3570    0.0590   -0.4776 C.3     1  UNL1       -0.0560
      4 C           1.0003   -0.4359    1.8978 C.3     1  UNL1       -0.0560
      5 C           0.7291   -2.3165    0.1741 C.ar    1  UNL1       -0.0420
      6 C           2.0863   -2.6695    0.2727 C.ar    1  UNL1       -0.0576
      7 C           2.5617   -3.8901   -0.2186 C.ar    1  UNL1       -0.0533
      8 C           1.6869   -4.7960   -0.8288 C.ar    1  UNL1       -0.0029
      9 C           0.3380   -4.4526   -0.9463 C.ar    1  UNL1       -0.0533
     10 C          -0.1281   -3.2299   -0.4604 C.ar    1  UNL1       -0.0576
     11 C           2.1663   -6.1164   -1.3581 C.3     1  UNL1       -0.0059
     12 N           2.6860   -7.0339   -0.2941 N.4     1  UNL1        0.2396
     13 C           1.7205   -7.3174    0.8216 C.3     1  UNL1       -0.0425
     14 C           3.3792   -8.2389   -0.8657 C.3     1  UNL1       -0.0053
     15 C           2.6288   -9.4108   -1.5051 C.ar    1  UNL1        0.0048
     16 C           3.4762  -10.5095   -1.7519 C.ar    1  UNL1       -0.0529
     17 C           3.0737  -11.7954   -1.3833 C.ar    1  UNL1       -0.0607
     18 C           1.8909  -11.9240   -0.6612 C.ar    1  UNL1       -0.0540
     19 C           1.0134  -10.8486   -0.5127 C.ar    1  UNL1       -0.0174
     20 C           1.2840   -9.7183   -1.2674 C.ar    1  UNL1       -0.0097
     21 C           0.1971   -9.2742   -2.0510 C.ar    1  UNL1       -0.0536
     22 C          -1.0586   -9.9010   -1.9511 C.ar    1  UNL1       -0.0612
     23 C          -1.3173  -10.7750   -0.9037 C.ar    1  UNL1       -0.0612
     24 C          -0.2750  -11.0677   -0.0479 C.ar    1  UNL1       -0.0540
     25 H          -1.5954   -0.0535    1.5372 H       1  UNL1        0.0238
     26 H          -1.4443   -1.7896    1.8489 H       1  UNL1        0.0238
     27 H          -1.9433   -1.1960    0.2545 H       1  UNL1        0.0238
     28 H           0.0048    1.0524   -0.1785 H       1  UNL1        0.0238
     29 H           1.4017    0.1580   -0.7957 H       1  UNL1        0.0238
     30 H          -0.2233   -0.2486   -1.3561 H       1  UNL1        0.0238
     31 H           1.0132   -1.1787    2.7041 H       1  UNL1        0.0238
     32 H           2.0377   -0.1875    1.6493 H       1  UNL1        0.0238
     33 H           0.5506    0.4808    2.2978 H       1  UNL1        0.0238
     34 H           2.8073   -1.9872    0.7183 H       1  UNL1        0.0621
     35 H           3.6258   -4.0986   -0.1281 H       1  UNL1        0.0622
     36 H          -0.3736   -5.1225   -1.4269 H       1  UNL1        0.0622
     37 H          -1.1830   -3.0049   -0.5998 H       1  UNL1        0.0621
     38 H           1.3731   -6.6445   -1.8914 H       1  UNL1        0.0867
     39 H           2.9888   -5.9384   -2.0613 H       1  UNL1        0.0867
     40 H           0.7504   -7.5936    0.4087 H       1  UNL1        0.0778
     41 H           2.1307   -8.1136    1.4493 H       1  UNL1        0.0778
     42 H           1.6232   -6.4103    1.4271 H       1  UNL1        0.0778
     43 H           4.1370   -7.8593   -1.5638 H       1  UNL1        0.0867
     44 H           3.9363   -8.6488   -0.0084 H       1  UNL1        0.0867
     45 H           4.5061  -10.3652   -2.1074 H       1  UNL1        0.0622
     46 H           3.6854  -12.6421   -1.6192 H       1  UNL1        0.0618
     47 H           1.5879  -12.9230   -0.3425 H       1  UNL1        0.0624
     48 H           0.3571   -8.5861   -2.8702 H       1  UNL1        0.0624
     49 H          -1.8421   -9.7169   -2.6870 H       1  UNL1        0.0618
     50 H          -2.3038  -11.1947   -0.7260 H       1  UNL1        0.0618
     51 H          -0.4876  -10.8820    1.0148 H       1  UNL1        0.0624
     52 H           3.4362   -6.5038    0.1620 H       1  UNL1        0.2037
@<TRIPOS>UNITY_ATOM_ATTR
12 1
charge 1
@<TRIPOS>BOND
     1     1     2    1
     2     1    25    1
     3     1    26    1
     4     1    27    1
     5     2     3    1
     6     2     4    1
     7     2     5    1
     8     3    28    1
     9     3    29    1
    10     3    30    1
    11     4    31    1
    12     4    32    1
    13     4    33    1
    14     5    10   ar
    15     5     6   ar
    16     6     7   ar
    17     6    34    1
    18     7     8   ar
    19     7    35    1
    20     8     9   ar
    21     8    11    1
    22     9    10   ar
    23     9    36    1
    24    10    37    1
    25    11    12    1
    26    11    38    1
    27    11    39    1
    28    12    13    1
    29    12    14    1
    30    12    52    1
    31    13    40    1
    32    13    41    1
    33    13    42    1
    34    14    15    1
    35    14    43    1
    36    14    44    1
    37    15    20   ar
    38    15    16   ar
    39    16    17   ar
    40    16    45    1
    41    17    18   ar
    42    17    46    1
    43    18    19   ar
    44    18    47    1
    45    19    24   ar
    46    19    20   ar
    47    20    21   ar
    48    21    22   ar
    49    21    48    1
    50    22    23   ar
    51    22    49    1
    52    23    24   ar
    53    23    50    1
    54    24    51    1
