@<TRIPOS>MOLECULE
ZINC03812994
 35 37 0 0 0
SMALL
GASTEIGER

@<TRIPOS>ATOM
      1 C           1.0095    0.0586   -0.1038 C.3     1  UNL1        0.0084
      2 N           0.5530   -0.5506    1.1387 N.am    1  UNL1       -0.2723
      3 C           0.0930   -1.9022    1.1405 C.ar    1  UNL1        0.0453
      4 C          -0.6929   -2.3477    0.0584 C.ar    1  UNL1       -0.0376
      5 C          -1.1737   -3.6593   -0.0120 C.ar    1  UNL1       -0.0337
      6 C          -0.8887   -4.5497    1.0224 C.ar    1  UNL1        0.0759
      7 C          -0.1434   -4.1303    2.1280 C.ar    1  UNL1       -0.0246
      8 C           0.3744   -2.8201    2.1754 C.ar    1  UNL1        0.0240
      9 C           1.2762   -2.4884    3.3227 C.2     1  UNL1        0.0778
     10 N           1.1906   -1.4011    4.0126 N.2     1  UNL1       -0.2733
     11 C           0.2328   -0.3813    3.5985 C.3     1  UNL1        0.1169
     12 C           0.7107    0.2290    2.2891 C.2     1  UNL1        0.2410
     13 O           1.1678    1.3750    2.2520 O.2     1  UNL1       -0.2732
     14 C           2.3416   -3.4609    3.7348 C.ar    1  UNL1        0.0357
     15 C           2.7458   -3.4947    5.0768 C.ar    1  UNL1       -0.0498
     16 C           3.7458   -4.3783    5.4934 C.ar    1  UNL1       -0.0610
     17 C           4.3515   -5.2312    4.5713 C.ar    1  UNL1       -0.0590
     18 C           3.9661   -5.1966    3.2336 C.ar    1  UNL1       -0.0258
     19 C           2.9757   -4.3075    2.8188 C.ar    1  UNL1        0.1325
     20 F           2.6634   -4.2815    1.5148 F       1  UNL1       -0.2048
     21 N          -1.3511   -5.9409    0.9377 N.pl3   1  UNL1       -0.1866
     22 O          -2.0245   -6.2641   -0.0504 O.2     1  UNL1       -0.1726
     23 O          -1.0339   -6.7086    1.8567 O.co2   1  UNL1       -0.7770
     24 H           0.5664    1.0529   -0.2104 H       1  UNL1        0.0433
     25 H           0.7825   -0.5308   -0.9936 H       1  UNL1        0.0433
     26 H           2.0984    0.1717   -0.0441 H       1  UNL1        0.0433
     27 H          -0.9822   -1.6665   -0.7398 H       1  UNL1        0.0637
     28 H          -1.7684   -3.9600   -0.8728 H       1  UNL1        0.0640
     29 H           0.0676   -4.8275    2.9373 H       1  UNL1        0.0646
     30 H          -0.7933   -0.7563    3.5196 H       1  UNL1        0.0605
     31 H           0.2168    0.4117    4.3545 H       1  UNL1        0.0605
     32 H           2.2870   -2.8286    5.8056 H       1  UNL1        0.0625
     33 H           4.0561   -4.3922    6.5343 H       1  UNL1        0.0618
     34 H           5.1308   -5.9186    4.8963 H       1  UNL1        0.0618
     35 H           4.4360   -5.8509    2.5059 H       1  UNL1        0.0646
@<TRIPOS>UNITY_ATOM_ATTR
23 1
charge -1
@<TRIPOS>BOND
     1     1     2    1
     2     1    24    1
     3     1    25    1
     4     1    26    1
     5     2    12   am
     6     2     3    1
     7     3     8   ar
     8     3     4   ar
     9     4     5   ar
    10     4    27    1
    11     5     6   ar
    12     5    28    1
    13     6     7   ar
    14     6    21    1
    15     7     8   ar
    16     7    29    1
    17     8     9    1
    18     9    10    2
    19     9    14    1
    20    10    11    1
    21    11    12    1
    22    11    30    1
    23    11    31    1
    24    12    13    2
    25    14    19   ar
    26    14    15   ar
    27    15    16   ar
    28    15    32    1
    29    16    17   ar
    30    16    33    1
    31    17    18   ar
    32    17    34    1
    33    18    19   ar
    34    18    35    1
    35    19    20    1
    36    21    22    2
    37    21    23    1
