@<TRIPOS>MOLECULE
ZINC00000453
 30 31 0 0 0
SMALL
GASTEIGER

@<TRIPOS>ATOM
      1 C           1.7819   -1.9236    0.6978 C.3     1  UNL1       -0.0626
      2 C           0.7642   -1.3647   -0.2894 C.3     1  UNL1       -0.0216
      3 C           1.0553   -1.6689   -1.7650 C.3     1  UNL1        0.1376
      4 C           2.4572   -1.2079   -2.2566 C.2     1  UNL1        0.2508
      5 O           2.9866   -0.1255   -2.0268 O.2     1  UNL1       -0.2724
      6 N           2.9376   -2.1681   -3.1031 N.am    1  UNL1       -0.2271
      7 C           2.1981   -3.3008   -2.9844 C.2     1  UNL1        0.3094
      8 O           2.3393   -4.3560   -3.5832 O.2     1  UNL1       -0.2522
      9 N           1.2145   -3.0832   -2.0445 N.am    1  UNL1       -0.2811
     10 C           4.0120   -1.9575   -4.0369 C.3     1  UNL1        0.0124
     11 C          -0.0278   -1.0476   -2.6695 C.ar    1  UNL1       -0.0153
     12 C          -1.1493   -1.7843   -3.0919 C.ar    1  UNL1       -0.0561
     13 C          -2.0773   -1.2323   -3.9803 C.ar    1  UNL1       -0.0614
     14 C          -1.9114    0.0671   -4.4506 C.ar    1  UNL1       -0.0617
     15 C          -0.8333    0.8279   -4.0140 C.ar    1  UNL1       -0.0614
     16 C           0.0894    0.2812   -3.1208 C.ar    1  UNL1       -0.0561
     17 H           1.5479   -1.5727    1.7081 H       1  UNL1        0.0231
     18 H           2.7996   -1.5992    0.4617 H       1  UNL1        0.0231
     19 H           1.7597   -3.0185    0.7152 H       1  UNL1        0.0231
     20 H          -0.2198   -1.7665   -0.0207 H       1  UNL1        0.0291
     21 H           0.7065   -0.2785   -0.1409 H       1  UNL1        0.0291
     22 H           0.4921   -3.7800   -1.9335 H       1  UNL1        0.1516
     23 H           3.6958   -1.1844   -4.7428 H       1  UNL1        0.0434
     24 H           4.8939   -1.5936   -3.5035 H       1  UNL1        0.0434
     25 H           4.2426   -2.8739   -4.5841 H       1  UNL1        0.0434
     26 H          -1.3122   -2.8049   -2.7564 H       1  UNL1        0.0621
     27 H          -2.9251   -1.8246   -4.3156 H       1  UNL1        0.0618
     28 H          -2.6235    0.4885   -5.1545 H       1  UNL1        0.0618
     29 H          -0.6994    1.8452   -4.3734 H       1  UNL1        0.0618
     30 H           0.9172    0.9135   -2.8022 H       1  UNL1        0.0621
@<TRIPOS>BOND
     1     1     2    1
     2     1    17    1
     3     1    18    1
     4     1    19    1
     5     2    20    1
     6     2    21    1
     7     3     2    1
     8     3     9    1
     9     3     4    1
    10     3    11    1
    11     4     5    2
    12     4     6   am
    13     6     7   am
    14     6    10    1
    15     7     8    2
    16     7     9   am
    17     9    22    1
    18    10    23    1
    19    10    24    1
    20    10    25    1
    21    11    16   ar
    22    11    12   ar
    23    12    13   ar
    24    12    26    1
    25    13    14   ar
    26    13    27    1
    27    14    15   ar
    28    14    28    1
    29    15    16   ar
    30    15    29    1
    31    16    30    1
