@<TRIPOS>MOLECULE
ZINC00896868
 29 30 0 0 0
SMALL
GASTEIGER

@<TRIPOS>ATOM
      1 C           1.8269    0.0564    2.3897 C.3     1  UNL1       -0.0189
      2 C           0.6302    0.4268    1.5151 C.3     1  UNL1        0.0056
      3 H           0.8517    0.1773    0.4703 H       1  UNL1        0.0877
      4 C          -0.7305   -0.1887    1.9633 C.3     1  UNL1        0.1259
      5 H          -1.5063    0.1655    1.2685 H       1  UNL1        0.0703
      6 O          -1.0589    0.3262    3.2717 O.3     1  UNL1       -0.3611
      7 C          -1.2948    1.7372    3.2463 C.3     1  UNL1        0.0885
      8 C          -0.0334    2.4982    2.8320 C.3     1  UNL1       -0.0093
      9 N           0.4911    1.9529    1.5229 N.4     1  UNL1        0.2327
     10 C          -0.8642   -1.7007    1.9417 C.ar    1  UNL1       -0.0135
     11 C          -0.2777   -2.4871    0.9367 C.ar    1  UNL1       -0.0559
     12 C          -0.5465   -3.8577    0.8502 C.ar    1  UNL1       -0.0614
     13 C          -1.4111   -4.4646    1.7576 C.ar    1  UNL1       -0.0617
     14 C          -1.9978   -3.7059    2.7631 C.ar    1  UNL1       -0.0614
     15 C          -1.7280   -2.3390    2.8527 C.ar    1  UNL1       -0.0559
     16 H           2.6891    0.6985    2.1738 H       1  UNL1        0.0285
     17 H           2.1413   -0.9749    2.1973 H       1  UNL1        0.0285
     18 H           1.6026    0.1406    3.4589 H       1  UNL1        0.0285
     19 H          -2.1312    1.9536    2.5712 H       1  UNL1        0.0614
     20 H          -1.5965    2.0433    4.2534 H       1  UNL1        0.0614
     21 H          -0.2320    3.5629    2.6811 H       1  UNL1        0.0837
     22 H           0.7688    2.3739    3.5637 H       1  UNL1        0.0837
     23 H          -0.1502    2.2334    0.7664 H       1  UNL1        0.2018
     24 H           0.3737   -2.0619    0.1783 H       1  UNL1        0.0621
     25 H          -0.0995   -4.4556    0.0588 H       1  UNL1        0.0618
     26 H          -1.6380   -5.5253    1.6740 H       1  UNL1        0.0618
     27 H          -2.6822   -4.1730    3.4680 H       1  UNL1        0.0618
     28 H          -2.2281   -1.7715    3.6366 H       1  UNL1        0.0621
     29 H           1.3940    2.3911    1.3056 H       1  UNL1        0.2018
@<TRIPOS>UNITY_ATOM_ATTR
9 1
charge 1
@<TRIPOS>BOND
     1     1    16    1
     2     1    17    1
     3     1    18    1
     4     2     9    1
     5     2     4    1
     6     4     6    1
     7     6     7    1
     8     7     8    1
     9     7    19    1
    10     7    20    1
    11     8     9    1
    12     8    21    1
    13     8    22    1
    14     9    23    1
    15     9    29    1
    16    10    15   ar
    17    10    11   ar
    18    11    12   ar
    19    11    24    1
    20    12    13   ar
    21    12    25    1
    22    13    14   ar
    23    13    26    1
    24    14    15   ar
    25    14    27    1
    26    15    28    1
    27     2     3    1
    28     2     1    1
    29     4    10    1
    30     4     5    1
