@<TRIPOS>MOLECULE
ZINC03830910
 33 34 0 0 0
SMALL
GASTEIGER

@<TRIPOS>ATOM
      1 C           3.2207    0.3595    1.3379 C.3     1  UNL1       -0.0389
      2 C           2.4975   -0.0176    0.0279 C.3     1  UNL1        0.1417
      3 C           3.0493   -1.3772   -0.3920 C.2     1  UNL1        0.2393
      4 O           3.1587   -2.3414    0.3685 O.2     1  UNL1       -0.2739
      5 N           3.3387   -1.5280   -1.7236 N.am    1  UNL1       -0.2386
      6 C           3.0238   -0.6533   -2.7234 C.2     1  UNL1        0.3146
      7 O           3.0480   -1.0323   -3.8916 O.2     1  UNL1       -0.2518
      8 N           2.6885    0.6262   -2.3395 N.am    1  UNL1       -0.2277
      9 C           2.7745    1.0593   -1.0227 C.2     1  UNL1        0.2416
     10 O           2.9766    2.2383   -0.7253 O.2     1  UNL1       -0.2737
     11 C           2.4373    1.6013   -3.3798 C.3     1  UNL1        0.0124
     12 C           0.9470   -0.0726    0.1652 C.2     1  UNL1       -0.0501
     13 C           0.2571    0.7293    1.0086 C.2     1  UNL1       -0.0833
     14 C          -1.2404    0.7445    1.1421 C.3     1  UNL1       -0.0345
     15 C          -1.9289   -0.4306    0.4592 C.3     1  UNL1       -0.0493
     16 C          -1.3006   -0.7027   -0.8961 C.3     1  UNL1       -0.0490
     17 C           0.1871   -1.0217   -0.7473 C.3     1  UNL1       -0.0303
     18 H           2.9441    1.3514    1.7105 H       1  UNL1        0.0247
     19 H           3.0182   -0.3662    2.1347 H       1  UNL1        0.0247
     20 H           4.3073    0.3805    1.1854 H       1  UNL1        0.0247
     21 H           3.5839   -2.4639   -2.0165 H       1  UNL1        0.1591
     22 H           3.3180    1.6894   -4.0217 H       1  UNL1        0.0434
     23 H           1.5963    1.2493   -3.9873 H       1  UNL1        0.0434
     24 H           2.1792    2.5832   -2.9696 H       1  UNL1        0.0434
     25 H           0.7686    1.4581    1.6323 H       1  UNL1        0.0572
     26 H          -1.6073    1.6858    0.7106 H       1  UNL1        0.0307
     27 H          -1.5121    0.7534    2.2053 H       1  UNL1        0.0307
     28 H          -2.9983   -0.2217    0.3450 H       1  UNL1        0.0268
     29 H          -1.8430   -1.3269    1.0871 H       1  UNL1        0.0268
     30 H          -1.8087   -1.5386   -1.3913 H       1  UNL1        0.0268
     31 H          -1.4253    0.1743   -1.5447 H       1  UNL1        0.0268
     32 H           0.3006   -2.0416   -0.3585 H       1  UNL1        0.0310
     33 H           0.6025   -1.0148   -1.7578 H       1  UNL1        0.0310
@<TRIPOS>BOND
     1     1    18    1
     2     1    19    1
     3     1    20    1
     4     2     9    1
     5     2     3    1
     6     3     4    2
     7     3     5   am
     8     5     6   am
     9     5    21    1
    10     6     7    2
    11     6     8   am
    12     8     9   am
    13     8    11    1
    14     9    10    2
    15    11    22    1
    16    11    23    1
    17    11    24    1
    18    12    17    1
    19    12    13    2
    20    13    14    1
    21    13    25    1
    22    14    15    1
    23    14    26    1
    24    14    27    1
    25    15    16    1
    26    15    28    1
    27    15    29    1
    28    16    17    1
    29    16    30    1
    30    16    31    1
    31    17    32    1
    32    17    33    1
    33     2    12    1
    34     2     1    1
