@<TRIPOS>MOLECULE
ZINC00895042
 14 13 0 0 0
SMALL
GASTEIGER

@<TRIPOS>ATOM
      1 CB          0.9072   -0.0221    0.1049 C.3     1  CYS1        0.0443
      2 CA          0.4499   -1.3874    0.6026 C.3     1  CYS1        0.0874
      3 HA          0.7939   -1.6306    1.6120 H       1  CYS1        0.0978
      4 C          -1.0952   -1.3231    0.5083 C.2     1  CYS1        0.4034
      5 O          -1.4817   -1.9016   -0.5575 O.co2   1  CYS1       -0.2399
      6 SG          2.7088    0.2543    0.3270 S.3     1  CYS1       -0.1721
      7 HB1         0.3994    0.7878    0.6454 H       1  CYS1        0.0435
      8 HB2         0.6762    0.1100   -0.9572 H       1  CYS1        0.0435
      9 H1          0.2620   -2.4222   -1.1168 H       1  CYS1        0.2003
     10 H2          1.9017   -2.4525   -0.6421 H       1  CYS1        0.2003
     11 HG          3.1624   -0.9356   -0.0739 H       1  CYS1        0.1018
     12 OXT        -1.7074   -0.8180    1.4729 O.co2   1  CYS1       -0.2399
     13 N           0.9384   -2.4929   -0.3240 N.4     1  CYS1        0.2295
     14 H3          0.6930   -3.3993    0.0881 H       1  CYS1        0.2003
@<TRIPOS>UNITY_ATOM_ATTR
13 1
charge 1
@<TRIPOS>BOND
     1     1     2    1
     2     1     6    1
     3     1     7    1
     4     1     8    1
     5     2     3    1
     6     2     4    1
     7     2    13    1
     8     4     5   ar
     9     4    12   ar
    10     6    11    1
    11     9    13    1
    12    10    13    1
    13    13    14    1
