@<TRIPOS>MOLECULE
ZINC00001898
 51 52 0 0 0
SMALL
GASTEIGER

@<TRIPOS>ATOM
      1 C           3.9975    2.7021   -2.0979 C.3     1  UNL1       -0.0193
      2 C           2.5599    2.7136   -2.6379 C.3     1  UNL1       -0.0203
      3 C           2.3017    4.0039   -3.4200 C.3     1  UNL1       -0.0193
      4 C           2.4519    1.5291   -3.6375 C.3     1  UNL1       -0.0193
      5 N           1.5414    2.4429   -1.5141 N.4     1  UNL1        0.2327
      6 C           0.6647    3.4406   -0.7277 C.3     1  UNL1       -0.0033
      7 C           1.1454    3.7571    0.7176 C.3     1  UNL1        0.1285
      8 H           1.9834    4.4607    0.6383 H       1  UNL1        0.0681
      9 C           0.0803    4.4406    1.6707 C.3     1  UNL1        0.1204
     10 O          -1.1585    3.7211    1.9640 O.3     1  UNL1       -0.4889
     11 C          -2.0179    4.4115    2.8403 C.ar    1  UNL1        0.1240
     12 C          -1.4902    5.2252    3.8754 C.ar    1  UNL1       -0.0197
     13 C          -2.2964    6.0742    4.6497 C.ar    1  UNL1       -0.0583
     14 C          -3.6506    6.1191    4.4203 C.ar    1  UNL1       -0.0613
     15 C          -4.2078    5.2651    3.4669 C.ar    1  UNL1       -0.0548
     16 C          -3.4260    4.3539    2.6938 C.ar    1  UNL1       -0.0026
     17 C          -4.1979    3.4477    1.7110 C.3     1  UNL1       -0.0124
     18 C          -3.8076    1.9612    1.6730 C.3     1  UNL1       -0.0461
     19 C          -5.0163    1.2150    1.1033 C.3     1  UNL1       -0.0525
     20 C          -6.2375    2.0917    1.3133 C.3     1  UNL1       -0.0525
     21 C          -5.7271    3.3665    1.9580 C.3     1  UNL1       -0.0461
     22 O           1.6851    2.5641    1.3030 O.3     1  UNL1       -0.3831
     23 H           4.7136    2.8761   -2.8991 H       1  UNL1        0.0287
     24 H           4.2497    1.7313   -1.6561 H       1  UNL1        0.0287
     25 H           4.1644    3.4837   -1.3472 H       1  UNL1        0.0287
     26 H           2.9871    4.0857   -4.2847 H       1  UNL1        0.0287
     27 H           1.2813    4.0375   -3.8202 H       1  UNL1        0.0287
     28 H           2.4729    4.8955   -2.8067 H       1  UNL1        0.0287
     29 H           2.5100    0.5635   -3.1212 H       1  UNL1        0.0287
     30 H           1.5103    1.5553   -4.1975 H       1  UNL1        0.0287
     31 H           3.2652    1.5473   -4.3764 H       1  UNL1        0.0287
     32 H           0.8330    1.8519   -1.9677 H       1  UNL1        0.2020
     33 H           0.5157    4.3367   -1.3344 H       1  UNL1        0.0841
     34 H          -0.2886    2.9109   -0.6310 H       1  UNL1        0.0841
     35 H           0.6234    4.5967    2.6105 H       1  UNL1        0.0725
     36 H          -0.1965    5.4123    1.2465 H       1  UNL1        0.0725
     37 H          -0.4406    5.2151    4.1451 H       1  UNL1        0.0654
     38 H          -1.8549    6.7127    5.4148 H       1  UNL1        0.0619
     39 H          -4.2909    6.8038    4.9724 H       1  UNL1        0.0618
     40 H          -5.2869    5.3459    3.3462 H       1  UNL1        0.0622
     41 H          -4.0415    3.8742    0.7171 H       1  UNL1        0.0350
     42 H          -2.9325    1.7960    1.0347 H       1  UNL1        0.0271
     43 H          -3.5697    1.5708    2.6683 H       1  UNL1        0.0271
     44 H          -5.1488    0.2378    1.5835 H       1  UNL1        0.0265
     45 H          -4.8902    1.0224    0.0290 H       1  UNL1        0.0265
     46 H          -6.9813    1.5976    1.9556 H       1  UNL1        0.0265
     47 H          -6.7361    2.3063    0.3609 H       1  UNL1        0.0265
     48 H          -5.9750    3.3158    3.0262 H       1  UNL1        0.0271
     49 H          -6.2404    4.2413    1.5410 H       1  UNL1        0.0271
     50 H           1.9054    2.7808    2.2468 H       1  UNL1        0.2102
     51 H           1.9624    1.8153   -0.8071 H       1  UNL1        0.2020
@<TRIPOS>UNITY_ATOM_ATTR
5 1
charge 1
@<TRIPOS>BOND
     1     1     2    1
     2     1    23    1
     3     1    24    1
     4     1    25    1
     5     2     3    1
     6     2     4    1
     7     2     5    1
     8     3    26    1
     9     3    27    1
    10     3    28    1
    11     4    29    1
    12     4    30    1
    13     4    31    1
    14     5     6    1
    15     5    32    1
    16     5    51    1
    17     6     7    1
    18     6    33    1
    19     6    34    1
    20     7     8    1
    21     7     9    1
    22     7    22    1
    23     9    10    1
    24     9    35    1
    25     9    36    1
    26    10    11    1
    27    11    16   ar
    28    11    12   ar
    29    12    13   ar
    30    12    37    1
    31    13    14   ar
    32    13    38    1
    33    14    15   ar
    34    14    39    1
    35    15    16   ar
    36    15    40    1
    37    16    17    1
    38    17    21    1
    39    17    18    1
    40    17    41    1
    41    18    19    1
    42    18    42    1
    43    18    43    1
    44    19    20    1
    45    19    44    1
    46    19    45    1
    47    20    21    1
    48    20    46    1
    49    20    47    1
    50    21    48    1
    51    21    49    1
    52    22    50    1
