@<TRIPOS>MOLECULE
ZINC03604264
 32 34 0 0 0
SMALL
GASTEIGER

@<TRIPOS>ATOM
      1 C           1.4714    1.9736    0.0626 C.ar    1  UNL1       -0.0593
      2 C           0.1012    1.8124    0.2623 C.ar    1  UNL1       -0.0492
      3 C          -0.3784    0.5200    0.2935 C.ar    1  UNL1        0.0433
      4 C           0.4369   -0.6024    0.1311 C.ar    1  UNL1        0.0026
      5 C           1.8116   -0.4623    0.0223 C.ar    1  UNL1        0.0300
      6 C           2.3084    0.8473   -0.0684 C.ar    1  UNL1       -0.0407
      7 N           2.6486   -1.5507   -0.2341 N.pl3   1  UNL1       -0.3577
      8 C          -0.4126   -1.8267    0.0556 C.3     1  UNL1        0.0433
      9 N          -1.7620   -1.2981    0.1950 N.am    1  UNL1       -0.2815
     10 C          -1.7703    0.0719    0.3933 C.2     1  UNL1        0.2479
     11 O          -2.7256    0.7986    0.5861 O.2     1  UNL1       -0.2699
     12 C          -2.9364   -2.1252   -0.0619 C.3     1  UNL1        0.1036
     13 H          -2.5451   -3.1318   -0.2679 H       1  UNL1        0.0597
     14 C          -3.7247   -1.7170   -1.3105 C.3     1  UNL1       -0.0175
     15 C          -4.8376   -0.7228   -1.0362 C.3     1  UNL1        0.0265
     16 C          -5.7113   -1.1577    0.1096 C.2     1  UNL1        0.2193
     17 O          -6.9018   -0.8632    0.1769 O.2     1  UNL1       -0.2754
     18 N          -5.1075   -1.8726    1.1113 N.am    1  UNL1       -0.2548
     19 C          -3.8079   -2.3071    1.1836 C.2     1  UNL1        0.2398
     20 O          -3.3801   -2.8264    2.2153 O.2     1  UNL1       -0.2734
     21 H           1.8935    2.9724   -0.0160 H       1  UNL1        0.0618
     22 H          -0.5675    2.6615    0.3479 H       1  UNL1        0.0625
     23 H           3.3685    1.0135   -0.2498 H       1  UNL1        0.0636
     24 H           3.6248   -1.3657   -0.0205 H       1  UNL1        0.1423
     25 H           2.3415   -2.4220    0.1848 H       1  UNL1        0.1423
     26 H          -0.2141   -2.5232    0.8746 H       1  UNL1        0.0515
     27 H          -0.3185   -2.3146   -0.9184 H       1  UNL1        0.0515
     28 H          -4.1852   -2.6225   -1.7275 H       1  UNL1        0.0292
     29 H          -3.0526   -1.3254   -2.0816 H       1  UNL1        0.0292
     30 H          -5.4644   -0.6390   -1.9320 H       1  UNL1        0.0359
     31 H          -4.4620    0.2790   -0.8256 H       1  UNL1        0.0359
     32 H          -5.6822   -2.0570    1.9215 H       1  UNL1        0.1575
@<TRIPOS>BOND
     1     1     6   ar
     2     1     2   ar
     3     1    21    1
     4     2     3   ar
     5     2    22    1
     6     3    10    1
     7     3     4   ar
     8     4     5   ar
     9     4     8    1
    10     5     6   ar
    11     5     7    1
    12     6    23    1
    13     7    24    1
    14     7    25    1
    15     8     9    1
    16     8    26    1
    17     8    27    1
    18     9    10   am
    19     9    12    1
    20    10    11    2
    21    12    13    1
    22    12    19    1
    23    12    14    1
    24    14    15    1
    25    14    28    1
    26    14    29    1
    27    15    16    1
    28    15    30    1
    29    15    31    1
    30    16    17    2
    31    16    18   am
    32    18    19   am
    33    18    32    1
    34    19    20    2
