@<TRIPOS>MOLECULE
ZINC03830842
 49 50 0 0 0
SMALL
GASTEIGER

@<TRIPOS>ATOM
      1 C           1.4232   -0.1346    0.3002 C.ar    1  UNL1       -0.0164
      2 C           0.8060    1.1183    0.3060 C.ar    1  UNL1       -0.0157
      3 C          -0.5934    1.2418    0.2550 C.ar    1  UNL1        0.1332
      4 C          -1.3804    0.0777    0.3280 C.ar    1  UNL1        0.0817
      5 C          -0.7418   -1.1749    0.3586 C.ar    1  UNL1       -0.0043
      6 C           0.6458   -1.2823    0.2804 C.ar    1  UNL1        0.1219
      7 O           1.1252   -2.5547    0.1694 O.3     1  UNL1       -0.4830
      8 C           2.3320   -2.7287   -0.5995 C.3     1  UNL1        0.1842
      9 C           2.2608   -2.2997   -2.0718 C.3     1  UNL1        0.4236
     10 F           1.0342   -1.8717   -2.4468 F       1  UNL1       -0.1671
     11 F           3.1319   -1.2896   -2.3132 F       1  UNL1       -0.1671
     12 F           2.5902   -3.3255   -2.8894 F       1  UNL1       -0.1671
     13 C          -2.8728    0.0315    0.2655 C.2     1  UNL1        0.2479
     14 O          -3.4596   -1.0141   -0.0187 O.2     1  UNL1       -0.2701
     15 N          -3.5978    1.1862    0.4518 N.am    1  UNL1       -0.3059
     16 C          -5.0571    1.1773    0.5365 C.3     1  UNL1        0.0548
     17 C          -5.7758    1.0530   -0.8369 C.3     1  UNL1       -0.0068
     18 H          -5.4557    1.8686   -1.4959 H       1  UNL1        0.0866
     19 C          -7.3001    1.0563   -0.6708 C.3     1  UNL1       -0.0081
     20 C          -8.0331    0.7458   -1.9755 C.3     1  UNL1       -0.0431
     21 C          -7.5444   -0.5600   -2.5868 C.3     1  UNL1       -0.0124
     22 C          -6.0429   -0.5219   -2.8098 C.3     1  UNL1       -0.0334
     23 N          -5.3674   -0.2173   -1.5278 N.4     1  UNL1        0.2303
     24 O          -1.2127    2.4608    0.1098 O.3     1  UNL1       -0.4823
     25 C          -0.4062    3.4897   -0.5089 C.3     1  UNL1        0.1842
     26 C          -1.2578    4.6390   -1.0426 C.3     1  UNL1        0.4236
     27 F          -2.5768    4.4567   -0.7877 F       1  UNL1       -0.1671
     28 F          -0.8905    5.8132   -0.4817 F       1  UNL1       -0.1671
     29 F          -1.1149    4.7619   -2.3825 F       1  UNL1       -0.1671
     30 H           2.5088   -0.1738    0.3027 H       1  UNL1        0.0655
     31 H           1.4598    1.9858    0.3239 H       1  UNL1        0.0655
     32 H          -1.3290   -2.0920    0.3898 H       1  UNL1        0.0663
     33 H           3.1760   -2.2563   -0.0856 H       1  UNL1        0.0788
     34 H           2.5395   -3.8035   -0.5698 H       1  UNL1        0.0788
     35 H          -3.0929    2.0238    0.7389 H       1  UNL1        0.1492
     36 H          -5.3524    0.3448    1.1864 H       1  UNL1        0.0518
     37 H          -5.3594    2.1067    1.0311 H       1  UNL1        0.0518
     38 H          -7.6223    2.0388   -0.2985 H       1  UNL1        0.0320
     39 H          -7.5946    0.3156    0.0848 H       1  UNL1        0.0320
     40 H          -9.1127    0.6851   -1.7855 H       1  UNL1        0.0269
     41 H          -7.8812    1.5665   -2.6886 H       1  UNL1        0.0269
     42 H          -7.8009   -1.3964   -1.9234 H       1  UNL1        0.0317
     43 H          -8.0578   -0.7390   -3.5411 H       1  UNL1        0.0317
     44 H          -5.6619   -1.4889   -3.1568 H       1  UNL1        0.0814
     45 H          -5.7567    0.2554   -3.5254 H       1  UNL1        0.0814
     46 H          -5.4274   -1.0104   -0.8666 H       1  UNL1        0.2017
     47 H           0.2958    3.8819    0.2338 H       1  UNL1        0.0788
     48 H           0.1558    3.0697   -1.3547 H       1  UNL1        0.0788
     49 H          -4.3454   -0.1882   -1.6713 H       1  UNL1        0.2017
@<TRIPOS>UNITY_ATOM_ATTR
23 1
charge 1
@<TRIPOS>BOND
     1     1     6   ar
     2     1     2   ar
     3     1    30    1
     4     2     3   ar
     5     2    31    1
     6     3     4   ar
     7     3    24    1
     8     4     5   ar
     9     4    13    1
    10     5     6   ar
    11     5    32    1
    12     6     7    1
    13     7     8    1
    14     8     9    1
    15     8    33    1
    16     8    34    1
    17     9    10    1
    18     9    11    1
    19     9    12    1
    20    13    14    2
    21    13    15   am
    22    15    16    1
    23    15    35    1
    24    16    17    1
    25    16    36    1
    26    16    37    1
    27    17    18    1
    28    17    23    1
    29    17    19    1
    30    19    20    1
    31    19    38    1
    32    19    39    1
    33    20    21    1
    34    20    40    1
    35    20    41    1
    36    21    22    1
    37    21    42    1
    38    21    43    1
    39    22    23    1
    40    22    44    1
    41    22    45    1
    42    23    46    1
    43    23    49    1
    44    24    25    1
    45    25    26    1
    46    25    47    1
    47    25    48    1
    48    26    27    1
    49    26    28    1
    50    26    29    1
