@<TRIPOS>MOLECULE
ZINC00968340
 40 43 0 0 0
SMALL
GASTEIGER

@<TRIPOS>ATOM
      1 C           0.8792    0.1098    0.0338 C.3     1  UNL1       -0.0428
      2 C           2.9476    1.4602   -0.4652 C.3     1  UNL1       -0.0278
      3 C           3.7212    1.4522   -1.7902 C.3     1  UNL1        0.0134
      4 C           4.1343    0.1217   -2.2608 C.2     1  UNL1       -0.0298
      5 C           3.8073   -1.0425   -1.6850 C.2     1  UNL1       -0.0096
      6 C           2.9863   -1.1650   -0.4700 C.3     1  UNL1       -0.0088
      7 C           4.3136   -2.2515   -2.4607 C.3     1  UNL1        0.0363
      8 H           3.4483   -2.7798   -2.8808 H       1  UNL1        0.0445
      9 C           5.0333   -1.5573   -3.5936 C.ar    1  UNL1       -0.0283
     10 C           4.9289   -0.1647   -3.4481 C.ar    1  UNL1       -0.0174
     11 C           5.5331    0.6935   -4.3484 C.ar    1  UNL1       -0.0540
     12 C           6.2335    0.1379   -5.4228 C.ar    1  UNL1       -0.0612
     13 C           6.3160   -1.2550   -5.5832 C.ar    1  UNL1       -0.0614
     14 C           5.7148   -2.1168   -4.6657 C.ar    1  UNL1       -0.0571
     15 C           5.1683   -3.2022   -1.6482 C.ar    1  UNL1       -0.0357
     16 C           6.4101   -2.8139   -1.1130 C.ar    1  UNL1       -0.0577
     17 C           7.2007   -3.7279   -0.4140 C.ar    1  UNL1       -0.0615
     18 C           6.7643   -5.0383   -0.2357 C.ar    1  UNL1       -0.0617
     19 C           5.5346   -5.4371   -0.7529 C.ar    1  UNL1       -0.0615
     20 C           4.7419   -4.5264   -1.4540 C.ar    1  UNL1       -0.0577
     21 H           0.5547   -0.7857    0.5727 H       1  UNL1        0.0778
     22 H           0.5205    0.9946    0.5675 H       1  UNL1        0.0778
     23 H           0.5304    0.1022   -1.0007 H       1  UNL1        0.0778
     24 H           2.1138    2.1712   -0.5420 H       1  UNL1        0.0818
     25 H           3.5946    1.8279    0.3387 H       1  UNL1        0.0818
     26 H           3.1054    1.9258   -2.5653 H       1  UNL1        0.0365
     27 H           4.6038    2.0942   -1.6710 H       1  UNL1        0.0365
     28 H           3.5835   -1.5583    0.3590 H       1  UNL1        0.0864
     29 H           2.1585   -1.8607   -0.6477 H       1  UNL1        0.0864
     30 H           5.4778    1.7706   -4.2372 H       1  UNL1        0.0624
     31 H           6.7235    0.7894   -6.1435 H       1  UNL1        0.0618
     32 H           6.8629   -1.6647   -6.4315 H       1  UNL1        0.0618
     33 H           5.7891   -3.1932   -4.7908 H       1  UNL1        0.0621
     34 H           6.7900   -1.8054   -1.2663 H       1  UNL1        0.0621
     35 H           8.1711   -3.4251   -0.0277 H       1  UNL1        0.0618
     36 H           7.3921   -5.7549    0.2897 H       1  UNL1        0.0618
     37 H           5.2045   -6.4662   -0.6288 H       1  UNL1        0.0618
     38 H           3.7996   -4.8735   -1.8728 H       1  UNL1        0.0621
     39 N           2.3822    0.1386    0.0377 N.4     1  UNL1        0.2364
     40 H           2.6228    0.1341    1.0361 H       1  UNL1        0.2034
@<TRIPOS>UNITY_ATOM_ATTR
39 1
charge 1
@<TRIPOS>BOND
     1     1    21    1
     2     1    22    1
     3     1    23    1
     4     1    39    1
     5     2     3    1
     6     2    24    1
     7     2    25    1
     8     2    39    1
     9     3     4    1
    10     3    26    1
    11     3    27    1
    12     4    10    1
    13     4     5    2
    14     5     6    1
    15     5     7    1
    16     6    28    1
    17     6    29    1
    18     6    39    1
    19     7     9    1
    20     9    14   ar
    21     9    10   ar
    22    10    11   ar
    23    11    12   ar
    24    11    30    1
    25    12    13   ar
    26    12    31    1
    27    13    14   ar
    28    13    32    1
    29    14    33    1
    30    15    20   ar
    31    15    16   ar
    32    16    17   ar
    33    16    34    1
    34    17    18   ar
    35    17    35    1
    36    18    19   ar
    37    18    36    1
    38    19    20   ar
    39    19    37    1
    40    20    38    1
    41    39    40    1
    42     7    15    1
    43     7     8    1
