@<TRIPOS>MOLECULE
ZINC00896698
 48 49 0 0 0
SMALL
GASTEIGER

@<TRIPOS>ATOM
      1 C          -0.1719   -0.2036   -3.5623 C.3     1  UNL1       -0.0433
      2 N          -0.7981   -1.0740   -2.5092 N.4     1  UNL1        0.2314
      3 C          -0.1974   -2.4593   -2.5219 C.3     1  UNL1       -0.0433
      4 C          -0.7181   -0.4820   -1.1036 C.3     1  UNL1       -0.0228
      5 C          -1.5488    0.8228   -0.8946 C.3     1  UNL1        0.0529
      6 H          -1.1117    1.5534   -1.5910 H       1  UNL1        0.0429
      7 C          -3.0287    0.6977   -1.2504 C.ar    1  UNL1       -0.0363
      8 C          -3.7235    1.8456   -1.6353 C.ar    1  UNL1       -0.0546
      9 C          -5.1219    1.8550   -1.6546 C.ar    1  UNL1       -0.0197
     10 C          -5.8463    0.6993   -1.3882 C.ar    1  UNL1        0.1201
     11 C          -5.1584   -0.4898   -1.1598 C.ar    1  UNL1       -0.0197
     12 C          -3.7575   -0.4908   -1.0832 C.ar    1  UNL1       -0.0546
     13 O          -7.1969    0.8763   -1.3039 O.3     1  UNL1       -0.4951
     14 C          -8.0140   -0.2776   -1.4189 C.3     1  UNL1        0.0788
     15 C          -1.2806    1.3895    0.5745 C.3     1  UNL1        0.0777
     16 C          -1.6392    2.8815    0.7900 C.3     1  UNL1       -0.0232
     17 C          -3.0524    3.1987    1.2853 C.3     1  UNL1       -0.0504
     18 C          -3.5576    2.2708    2.3813 C.3     1  UNL1       -0.0529
     19 C          -3.2862    0.8006    2.1067 C.3     1  UNL1       -0.0504
     20 C          -1.8332    0.5330    1.7336 C.3     1  UNL1       -0.0232
     21 O           0.1655    1.3282    0.6965 O.3     1  UNL1       -0.3878
     22 H           0.8000    0.1441   -3.2014 H       1  UNL1        0.0777
     23 H          -0.8480    0.6311   -3.7573 H       1  UNL1        0.0777
     24 H          -0.0522   -0.7941   -4.4753 H       1  UNL1        0.0777
     25 H           0.8526   -2.3846   -2.2235 H       1  UNL1        0.0777
     26 H          -0.7610   -3.0773   -1.8194 H       1  UNL1        0.0777
     27 H          -0.2921   -2.8691   -3.5305 H       1  UNL1        0.0777
     28 H          -1.0608   -1.2705   -0.4264 H       1  UNL1        0.0821
     29 H           0.3498   -0.3243   -0.9194 H       1  UNL1        0.0821
     30 H          -3.2065    2.7900   -1.8073 H       1  UNL1        0.0622
     31 H          -5.6520    2.7925   -1.8230 H       1  UNL1        0.0654
     32 H          -5.6859   -1.4155   -0.9477 H       1  UNL1        0.0654
     33 H          -3.2853   -1.4229   -0.7836 H       1  UNL1        0.0622
     34 H          -7.9161   -0.7024   -2.4229 H       1  UNL1        0.0660
     35 H          -7.7962   -1.0244   -0.6494 H       1  UNL1        0.0660
     36 H          -9.0537    0.0352   -1.2803 H       1  UNL1        0.0660
     37 H          -0.9526    3.2979    1.5420 H       1  UNL1        0.0293
     38 H          -1.4262    3.4586   -0.1153 H       1  UNL1        0.0293
     39 H          -3.7646    3.1986    0.4599 H       1  UNL1        0.0266
     40 H          -3.0700    4.2280    1.6636 H       1  UNL1        0.0266
     41 H          -4.6360    2.4209    2.5083 H       1  UNL1        0.0265
     42 H          -3.0893    2.5510    3.3327 H       1  UNL1        0.0265
     43 H          -3.9639    0.4479    1.3332 H       1  UNL1        0.0266
     44 H          -3.5377    0.2198    3.0017 H       1  UNL1        0.0266
     45 H          -1.6966   -0.5349    1.5325 H       1  UNL1        0.0293
     46 H          -1.2244    0.7213    2.6313 H       1  UNL1        0.0293
     47 H           0.4200    1.7318    1.5519 H       1  UNL1        0.2102
     48 H          -1.7932   -1.1722   -2.7586 H       1  UNL1        0.2028
@<TRIPOS>UNITY_ATOM_ATTR
2 1
charge 1
@<TRIPOS>BOND
     1     1     2    1
     2     1    22    1
     3     1    23    1
     4     1    24    1
     5     2     3    1
     6     2     4    1
     7     2    48    1
     8     3    25    1
     9     3    26    1
    10     3    27    1
    11     4     5    1
    12     4    28    1
    13     4    29    1
    14     5     6    1
    15     5     7    1
    16     5    15    1
    17     7    12   ar
    18     7     8   ar
    19     8     9   ar
    20     8    30    1
    21     9    10   ar
    22     9    31    1
    23    10    11   ar
    24    10    13    1
    25    11    12   ar
    26    11    32    1
    27    12    33    1
    28    13    14    1
    29    14    34    1
    30    14    35    1
    31    14    36    1
    32    15    20    1
    33    15    16    1
    34    15    21    1
    35    16    17    1
    36    16    37    1
    37    16    38    1
    38    17    18    1
    39    17    39    1
    40    17    40    1
    41    18    19    1
    42    18    41    1
    43    18    42    1
    44    19    20    1
    45    19    43    1
    46    19    44    1
    47    20    45    1
    48    20    46    1
    49    21    47    1
