@<TRIPOS>MOLECULE
ZINC00537752
 51 53 0 0 0
SMALL
GASTEIGER

@<TRIPOS>ATOM
      1 C           0.9506   -1.7720    2.6330 C.3     1  UNL1       -0.0245
      2 C           0.4301   -2.4267    1.3687 C.3     1  UNL1       -0.0348
      3 N           0.7664   -3.9039    1.3191 N.4     1  UNL1        0.2360
      4 C           0.3445   -4.6990    2.5472 C.3     1  UNL1       -0.0348
      5 C          -1.1560   -4.6532    2.7800 C.3     1  UNL1       -0.0245
      6 C           0.3168   -4.5942    0.0246 C.3     1  UNL1       -0.0154
      7 C           1.0346   -4.0480   -1.2345 C.3     1  UNL1        0.0599
      8 N           2.5010   -4.0741   -1.1337 N.am    1  UNL1       -0.2642
      9 C           3.2494   -2.8541   -1.1445 C.ar    1  UNL1        0.0458
     10 C           2.7936   -1.7871   -1.9415 C.ar    1  UNL1       -0.0383
     11 C           3.4050   -0.5326   -1.8974 C.ar    1  UNL1       -0.0416
     12 C           4.5047   -0.3331   -1.0757 C.ar    1  UNL1        0.0417
     13 C           5.0352   -1.3923   -0.3458 C.ar    1  UNL1       -0.0324
     14 C           4.4083   -2.6512   -0.3585 C.ar    1  UNL1        0.0234
     15 C           4.9714   -3.7203    0.5328 C.2     1  UNL1        0.0778
     16 N           5.0635   -4.9610    0.1855 N.2     1  UNL1       -0.2733
     17 C           4.6163   -5.3786   -1.1358 C.3     1  UNL1        0.1170
     18 C           3.1004   -5.3375   -1.1275 C.2     1  UNL1        0.2414
     19 O           2.4170   -6.3632   -1.0957 O.2     1  UNL1       -0.2732
     20 C           5.4514   -3.3962    1.9171 C.ar    1  UNL1        0.0357
     21 C           6.4355   -4.2063    2.4997 C.ar    1  UNL1       -0.0498
     22 C           6.8615   -3.9717    3.8091 C.ar    1  UNL1       -0.0610
     23 C           6.3044   -2.9316    4.5528 C.ar    1  UNL1       -0.0590
     24 C           5.3206   -2.1250    3.9865 C.ar    1  UNL1       -0.0258
     25 C           4.9039   -2.3599    2.6792 C.ar    1  UNL1        0.1325
     26 F           3.9345   -1.5804    2.1853 F       1  UNL1       -0.2048
     27 CL          5.1891    1.2354   -0.9304 Cl      1  UNL1       -0.0835
     28 H           0.3119   -1.9857    3.4933 H       1  UNL1        0.0281
     29 H           0.9874   -0.6854    2.5100 H       1  UNL1        0.0281
     30 H           1.9550   -2.1225    2.8803 H       1  UNL1        0.0281
     31 H          -0.6542   -2.3161    1.2742 H       1  UNL1        0.0812
     32 H           0.9066   -1.9599    0.5044 H       1  UNL1        0.0812
     33 H           0.6894   -5.7271    2.4002 H       1  UNL1        0.0812
     34 H           0.8899   -4.2911    3.4038 H       1  UNL1        0.0812
     35 H          -1.7095   -5.0965    1.9477 H       1  UNL1        0.0281
     36 H          -1.4080   -5.2205    3.6816 H       1  UNL1        0.0281
     37 H          -1.5208   -3.6328    2.9297 H       1  UNL1        0.0281
     38 H           0.5173   -5.6604    0.1597 H       1  UNL1        0.0830
     39 H          -0.7645   -4.4520   -0.0643 H       1  UNL1        0.0830
     40 H           0.7428   -4.6615   -2.0965 H       1  UNL1        0.0521
     41 H           0.6591   -3.0410   -1.4298 H       1  UNL1        0.0521
     42 H           1.9754   -1.9158   -2.6483 H       1  UNL1        0.0637
     43 H           3.0207    0.2813   -2.5098 H       1  UNL1        0.0633
     44 H           5.9173   -1.2126    0.2658 H       1  UNL1        0.0639
     45 H           5.0339   -4.7767   -1.9512 H       1  UNL1        0.0605
     46 H           4.9348   -6.4116   -1.3145 H       1  UNL1        0.0605
     47 H           6.8772   -5.0293    1.9389 H       1  UNL1        0.0625
     48 H           7.6326   -4.6019    4.2492 H       1  UNL1        0.0618
     49 H           6.6355   -2.7539    5.5733 H       1  UNL1        0.0618
     50 H           4.8749   -1.3172    4.5590 H       1  UNL1        0.0646
     51 H           1.7954   -3.9725    1.3006 H       1  UNL1        0.2034
@<TRIPOS>UNITY_ATOM_ATTR
3 1
charge 1
@<TRIPOS>BOND
     1     1     2    1
     2     1    28    1
     3     1    29    1
     4     1    30    1
     5     2     3    1
     6     2    31    1
     7     2    32    1
     8     3     4    1
     9     3     6    1
    10     3    51    1
    11     4     5    1
    12     4    33    1
    13     4    34    1
    14     5    35    1
    15     5    36    1
    16     5    37    1
    17     6     7    1
    18     6    38    1
    19     6    39    1
    20     7     8    1
    21     7    40    1
    22     7    41    1
    23     8    18   am
    24     8     9    1
    25     9    14   ar
    26     9    10   ar
    27    10    11   ar
    28    10    42    1
    29    11    12   ar
    30    11    43    1
    31    12    13   ar
    32    12    27    1
    33    13    14   ar
    34    13    44    1
    35    14    15    1
    36    15    16    2
    37    15    20    1
    38    16    17    1
    39    17    18    1
    40    17    45    1
    41    17    46    1
    42    18    19    2
    43    20    25   ar
    44    20    21   ar
    45    21    22   ar
    46    21    47    1
    47    22    23   ar
    48    22    48    1
    49    23    24   ar
    50    23    49    1
    51    24    25   ar
    52    24    50    1
    53    25    26    1
