@<TRIPOS>MOLECULE
ZINC03830314
 28 27 0 0 0
SMALL
GASTEIGER

@<TRIPOS>ATOM
      1 C           1.1011    2.3050    0.9358 C.3     1  UNL1       -0.0226
      2 C           0.5824    0.8951    1.2487 C.3     1  UNL1        0.1412
      3 H           1.0067    0.2379    0.4825 H       1  UNL1        0.0786
      4 C          -0.9675    0.7910    1.1578 C.3     1  UNL1        0.0069
      5 N          -1.5519   -0.6547    1.2732 N.4     1  UNL1        0.2395
      6 C          -1.2101   -1.3187    2.6008 C.3     1  UNL1       -0.0417
      7 C          -3.0797   -0.5420    1.2032 C.3     1  UNL1       -0.0417
      8 C          -1.0811   -1.5391    0.1293 C.3     1  UNL1       -0.0417
      9 O           1.1361    0.4209    2.4971 O.3     1  UNL1       -0.4422
     10 C           0.7270    1.0199    3.6367 C.2     1  UNL1        0.3981
     11 O          -0.0704    1.9400    3.7132 O.2     1  UNL1       -0.2267
     12 N           1.2452    0.3828    4.7057 N.am    1  UNL1       -0.2950
     13 H           1.8221    2.2553    0.1108 H       1  UNL1        0.0267
     14 H           1.6286    2.7596    1.7800 H       1  UNL1        0.0267
     15 H           0.3006    2.9783    0.6153 H       1  UNL1        0.0267
     16 H          -1.4712    1.3814    1.9277 H       1  UNL1        0.0851
     17 H          -1.3000    1.1641    0.1804 H       1  UNL1        0.0851
     18 H          -1.4811   -0.6367    3.4108 H       1  UNL1        0.0778
     19 H          -1.7870   -2.2446    2.6848 H       1  UNL1        0.0778
     20 H          -0.1479   -1.5695    2.6124 H       1  UNL1        0.0778
     21 H          -3.3512   -0.0993    0.2408 H       1  UNL1        0.0778
     22 H          -3.5058   -1.5461    1.2938 H       1  UNL1        0.0778
     23 H          -3.4183    0.0894    2.0302 H       1  UNL1        0.0778
     24 H          -1.3628   -1.0640   -0.8146 H       1  UNL1        0.0778
     25 H           0.0023   -1.6600    0.1950 H       1  UNL1        0.0778
     26 H          -1.5662   -2.5153    0.2256 H       1  UNL1        0.0778
     27 H           1.9878   -0.2955    4.5835 H       1  UNL1        0.1482
     28 H           1.0926    0.7748    5.6275 H       1  UNL1        0.1482
@<TRIPOS>UNITY_ATOM_ATTR
5 1
charge 1
@<TRIPOS>BOND
     1     1    13    1
     2     1    14    1
     3     1    15    1
     4     2     4    1
     5     2     9    1
     6     4     5    1
     7     4    16    1
     8     4    17    1
     9     5     6    1
    10     5     7    1
    11     5     8    1
    12     6    18    1
    13     6    19    1
    14     6    20    1
    15     7    21    1
    16     7    22    1
    17     7    23    1
    18     8    24    1
    19     8    25    1
    20     8    26    1
    21     9    10    1
    22    10    11    2
    23    10    12   am
    24    12    27    1
    25    12    28    1
    26     2     3    1
    27     2     1    1
