@<TRIPOS>MOLECULE
ZINC03824921
 76 79 0 0 0
SMALL
GASTEIGER

@<TRIPOS>ATOM
      1 C          -2.8822    4.2451    1.0601 C.3     1  UNL1       -0.0454
      2 C          -4.0438    3.6944    0.2102 C.3     1  UNL1        0.0912
      3 C          -4.4838    4.8561   -0.7113 C.3     1  UNL1       -0.0454
      4 C          -3.6598    2.4315   -0.5863 C.ar    1  UNL1       -0.0310
      5 C          -4.3345    2.1134   -1.7730 C.ar    1  UNL1       -0.0572
      6 C          -4.0670    0.9424   -2.4737 C.ar    1  UNL1       -0.0558
      7 C          -3.1891   -0.0189   -1.9789 C.ar    1  UNL1       -0.0191
      8 C          -2.4620    0.3112   -0.8233 C.ar    1  UNL1       -0.0558
      9 C          -2.6989    1.5143   -0.1336 C.ar    1  UNL1       -0.0572
     10 C          -3.0093   -1.3793   -2.6263 C.3     1  UNL1        0.0804
     11 H          -1.9607   -1.4448   -2.9428 H       1  UNL1        0.0643
     12 C          -3.8870   -1.7178   -3.8539 C.3     1  UNL1       -0.0179
     13 C          -5.4163   -1.8072   -3.6393 C.3     1  UNL1       -0.0099
     14 C          -5.8987   -2.8533   -2.6363 C.3     1  UNL1       -0.0318
     15 N          -7.4287   -2.8127   -2.4847 N.4     1  UNL1        0.2352
     16 C          -7.8887   -4.0154   -1.6844 C.3     1  UNL1       -0.0315
     17 C          -9.3909   -3.9842   -1.4293 C.3     1  UNL1       -0.0063
     18 C          -9.8262   -2.6749   -0.7246 C.3     1  UNL1        0.0058
     19 C          -9.4213   -1.5349   -1.6807 C.3     1  UNL1       -0.0063
     20 C          -7.9116   -1.5057   -1.8776 C.3     1  UNL1       -0.0315
     21 C         -11.3620   -2.6559   -0.3439 C.3     1  UNL1        0.1190
     22 C         -11.6944   -3.7790    0.6621 C.ar    1  UNL1       -0.0115
     23 C         -12.7275   -4.7025    0.4265 C.ar    1  UNL1       -0.0555
     24 C         -13.0758   -5.6612    1.3839 C.ar    1  UNL1       -0.0614
     25 C         -12.3947   -5.7162    2.5966 C.ar    1  UNL1       -0.0617
     26 C         -11.3595   -4.8241    2.8497 C.ar    1  UNL1       -0.0614
     27 C         -11.0144   -3.8629    1.8968 C.ar    1  UNL1       -0.0555
     28 C         -11.8725   -1.3091    0.2301 C.ar    1  UNL1       -0.0115
     29 C         -11.0288   -0.4676    0.9841 C.ar    1  UNL1       -0.0555
     30 C         -11.4700    0.7623    1.4823 C.ar    1  UNL1       -0.0614
     31 C         -12.7791    1.1736    1.2674 C.ar    1  UNL1       -0.0617
     32 C         -13.6549    0.3391    0.5836 C.ar    1  UNL1       -0.0614
     33 C         -13.2141   -0.8961    0.0911 C.ar    1  UNL1       -0.0555
     34 O         -12.0050   -2.9649   -1.5994 O.3     1  UNL1       -0.3790
     35 O          -3.2259   -2.4269   -1.6747 O.3     1  UNL1       -0.3872
     36 C          -5.2493    3.2515    1.1171 C.2     1  UNL1        0.3658
     37 O          -4.9551    2.8802    2.2911 O.co2   1  UNL1       -0.2454
     38 O          -6.3928    3.2544    0.5651 O.co2   1  UNL1       -0.2454
     39 H          -2.0169    4.4869    0.4309 H       1  UNL1        0.0243
     40 H          -2.5430    3.5499    1.8343 H       1  UNL1        0.0243
     41 H          -3.1797    5.1627    1.5815 H       1  UNL1        0.0243
     42 H          -3.7002    5.0915   -1.4417 H       1  UNL1        0.0243
     43 H          -5.4007    4.6489   -1.2725 H       1  UNL1        0.0243
     44 H          -4.6867    5.7642   -0.1322 H       1  UNL1        0.0243
     45 H          -5.1207    2.7659   -2.1500 H       1  UNL1        0.0621
     46 H          -4.5951    0.8174   -3.4116 H       1  UNL1        0.0621
     47 H          -1.7129   -0.3646   -0.4174 H       1  UNL1        0.0621
     48 H          -2.1526    1.6988    0.7807 H       1  UNL1        0.0621
     49 H          -3.6931   -0.9793   -4.6429 H       1  UNL1        0.0295
     50 H          -3.5560   -2.6863   -4.2513 H       1  UNL1        0.0295
     51 H          -5.7886   -0.8299   -3.3446 H       1  UNL1        0.0318
     52 H          -5.8767   -2.0138   -4.6137 H       1  UNL1        0.0318
     53 H          -5.6446   -3.8565   -2.9952 H       1  UNL1        0.0814
     54 H          -5.5057   -2.7081   -1.6292 H       1  UNL1        0.0814
     55 H          -7.3298   -4.0193   -0.7432 H       1  UNL1        0.0814
     56 H          -7.6224   -4.9051   -2.2672 H       1  UNL1        0.0814
     57 H          -9.6547   -4.8565   -0.8224 H       1  UNL1        0.0321
     58 H          -9.9146   -4.0976   -2.3875 H       1  UNL1        0.0321
     59 H          -9.2265   -2.5755    0.1898 H       1  UNL1        0.0339
     60 H          -9.9201   -1.6507   -2.6519 H       1  UNL1        0.0321
     61 H          -9.7215   -0.5568   -1.2965 H       1  UNL1        0.0321
     62 H          -7.6651   -0.7006   -2.5730 H       1  UNL1        0.0814
     63 H          -7.3771   -1.3600   -0.9329 H       1  UNL1        0.0814
     64 H         -13.2901   -4.6813   -0.5044 H       1  UNL1        0.0621
     65 H         -13.8908   -6.3516    1.1885 H       1  UNL1        0.0618
     66 H         -12.6807   -6.4457    3.3495 H       1  UNL1        0.0618
     67 H         -10.8340   -4.8560    3.8016 H       1  UNL1        0.0618
     68 H         -10.2254   -3.1596    2.1487 H       1  UNL1        0.0621
     69 H          -9.9989   -0.7404    1.2027 H       1  UNL1        0.0621
     70 H         -10.7844    1.4012    2.0382 H       1  UNL1        0.0618
     71 H         -13.1165    2.1344    1.6478 H       1  UNL1        0.0618
     72 H         -14.6885    0.6470    0.4398 H       1  UNL1        0.0618
     73 H         -13.9613   -1.5247   -0.3865 H       1  UNL1        0.0621
     74 H         -12.8297   -2.4672   -1.6596 H       1  UNL1        0.2111
     75 H          -3.2490   -2.0210   -0.7883 H       1  UNL1        0.2102
     76 H          -7.8420   -2.8860   -3.4243 H       1  UNL1        0.2033
@<TRIPOS>UNITY_ATOM_ATTR
15 1
charge 1
@<TRIPOS>BOND
     1     1     2    1
     2     1    39    1
     3     1    40    1
     4     1    41    1
     5     2     3    1
     6     2     4    1
     7     2    36    1
     8     3    42    1
     9     3    43    1
    10     3    44    1
    11     4     9   ar
    12     4     5   ar
    13     5     6   ar
    14     5    45    1
    15     6     7   ar
    16     6    46    1
    17     7     8   ar
    18     8     9   ar
    19     8    47    1
    20     9    48    1
    21    10    12    1
    22    10    35    1
    23    12    13    1
    24    12    49    1
    25    12    50    1
    26    13    14    1
    27    13    51    1
    28    13    52    1
    29    14    15    1
    30    14    53    1
    31    14    54    1
    32    15    20    1
    33    15    16    1
    34    15    76    1
    35    16    17    1
    36    16    55    1
    37    16    56    1
    38    17    18    1
    39    17    57    1
    40    17    58    1
    41    18    19    1
    42    18    21    1
    43    18    59    1
    44    19    20    1
    45    19    60    1
    46    19    61    1
    47    20    62    1
    48    20    63    1
    49    21    22    1
    50    21    28    1
    51    21    34    1
    52    22    27   ar
    53    22    23   ar
    54    23    24   ar
    55    23    64    1
    56    24    25   ar
    57    24    65    1
    58    25    26   ar
    59    25    66    1
    60    26    27   ar
    61    26    67    1
    62    27    68    1
    63    28    33   ar
    64    28    29   ar
    65    29    30   ar
    66    29    69    1
    67    30    31   ar
    68    30    70    1
    69    31    32   ar
    70    31    71    1
    71    32    33   ar
    72    32    72    1
    73    33    73    1
    74    34    74    1
    75    35    75    1
    76    36    37   ar
    77    36    38   ar
    78    10    11    1
    79    10     7    1
