@<TRIPOS>MOLECULE
ZINC00000294
 33 33 0 0 0
SMALL
GASTEIGER

@<TRIPOS>ATOM
      1 C           0.6641   -4.4326    1.6247 C.3     1  UNL1       -0.0245
      2 C           0.3772   -3.9404    3.0268 C.3     1  UNL1       -0.0363
      3 N           0.9263   -2.5613    3.2540 N.4     1  UNL1        0.2290
      4 C           0.4658   -1.4358    2.3565 C.3     1  UNL1       -0.0215
      5 H           0.7178   -1.7221    1.3330 H       1  UNL1        0.0851
      6 C          -1.0429   -1.2391    2.4965 C.3     1  UNL1       -0.0213
      7 C           1.1969   -0.1330    2.7581 C.3     1  UNL1        0.0152
      8 C           2.6969   -0.1221    2.5582 C.ar    1  UNL1       -0.0415
      9 C           3.5396    0.2330    3.6226 C.ar    1  UNL1       -0.0584
     10 C           4.9137    0.3561    3.4263 C.ar    1  UNL1       -0.0610
     11 C           5.4708    0.1365    2.1686 C.ar    1  UNL1       -0.0501
     12 C           4.6495   -0.2105    1.0872 C.ar    1  UNL1        0.0551
     13 C           3.2636   -0.3404    1.2950 C.ar    1  UNL1       -0.0467
     14 C           5.2286   -0.4197   -0.2954 C.3     1  UNL1        0.4174
     15 F           6.5683   -0.2085   -0.3726 F       1  UNL1       -0.1659
     16 F           5.0143   -1.6893   -0.7408 F       1  UNL1       -0.1659
     17 F           4.6560    0.3995   -1.2197 F       1  UNL1       -0.1659
     18 H           0.0371   -3.9214    0.8871 H       1  UNL1        0.0281
     19 H           0.4440   -5.5022    1.5522 H       1  UNL1        0.0281
     20 H           1.7136   -4.2828    1.3504 H       1  UNL1        0.0281
     21 H          -0.6927   -3.9232    3.2497 H       1  UNL1        0.0811
     22 H           0.8711   -4.5808    3.7650 H       1  UNL1        0.0811
     23 H           0.7410   -2.3063    4.2327 H       1  UNL1        0.2016
     24 H          -1.3153   -0.9350    3.5122 H       1  UNL1        0.0284
     25 H          -1.3846   -0.4573    1.8091 H       1  UNL1        0.0284
     26 H          -1.6027   -2.1463    2.2485 H       1  UNL1        0.0284
     27 H           0.7875    0.7056    2.1758 H       1  UNL1        0.0368
     28 H           0.9674    0.0918    3.8088 H       1  UNL1        0.0368
     29 H           3.1391    0.4610    4.6072 H       1  UNL1        0.0620
     30 H           5.5605    0.6588    4.2514 H       1  UNL1        0.0618
     31 H           6.5464    0.2630    2.0265 H       1  UNL1        0.0623
     32 H           2.6322   -0.5621    0.4310 H       1  UNL1        0.0626
     33 H           1.9558   -2.6180    3.1870 H       1  UNL1        0.2016
@<TRIPOS>UNITY_ATOM_ATTR
3 1
charge 1
@<TRIPOS>BOND
     1     1     2    1
     2     1    18    1
     3     1    19    1
     4     1    20    1
     5     2     3    1
     6     2    21    1
     7     2    22    1
     8     3     4    1
     9     3    23    1
    10     3    33    1
    11     4     5    1
    12     4     6    1
    13     4     7    1
    14     6    24    1
    15     6    25    1
    16     6    26    1
    17     7     8    1
    18     7    27    1
    19     7    28    1
    20     8    13   ar
    21     8     9   ar
    22     9    10   ar
    23     9    29    1
    24    10    11   ar
    25    10    30    1
    26    11    12   ar
    27    11    31    1
    28    12    13   ar
    29    12    14    1
    30    13    32    1
    31    14    15    1
    32    14    16    1
    33    14    17    1
