@<TRIPOS>MOLECULE
ZINC03817234
 79 83 0 0 0
SMALL
GASTEIGER

@<TRIPOS>ATOM
      1 C           0.1783   -0.2159    0.0727 C.3     1  UNL1       -0.0044
      2 C           0.3327    0.4319   -1.2561 C.ar    1  UNL1        0.1306
      3 N          -0.2329   -0.0742   -2.3254 N.ar    1  UNL1       -0.1346
      4 N           0.0202    0.7377   -3.3712 N.ar    1  UNL1       -0.1341
      5 C           0.7676    1.7415   -2.9686 C.ar    1  UNL1        0.1363
      6 N           1.0605    1.5700   -1.6183 N.ar    1  UNL1       -0.3113
      7 C           1.8289    2.4332   -0.7150 C.3     1  UNL1        0.0475
      8 C           2.8600    3.4475   -1.2907 C.3     1  UNL1        0.0115
      9 C           4.2633    2.8527   -1.6527 C.3     1  UNL1       -0.0185
     10 H           4.5955    3.2036   -2.6321 H       1  UNL1        0.0852
     11 C           5.2804    3.1368   -0.5336 C.3     1  UNL1       -0.0045
     12 C           5.0991    2.0038    0.4802 C.3     1  UNL1       -0.0045
     13 C           3.9987    1.1218   -0.1189 C.3     1  UNL1       -0.0185
     14 H           4.1006    0.0576    0.1110 H       1  UNL1        0.0852
     15 C           2.6260    1.6777    0.3620 C.3     1  UNL1        0.0115
     16 N           4.1950    1.3270   -1.6360 N.4     1  UNL1        0.2397
     17 C           5.4472    0.5226   -2.2198 C.3     1  UNL1       -0.0294
     18 C           5.6201    0.7170   -3.7402 C.3     1  UNL1        0.0101
     19 C           6.9070    0.1313   -4.4457 C.3     1  UNL1        0.0532
     20 H           7.7750    0.5565   -3.9249 H       1  UNL1        0.0550
     21 C           7.1473   -1.3679   -4.6016 C.ar    1  UNL1       -0.0270
     22 C           8.4726   -1.8034   -4.8525 C.ar    1  UNL1       -0.0568
     23 C           8.7544   -3.1016   -5.2751 C.ar    1  UNL1       -0.0614
     24 C           7.7113   -4.0058   -5.4621 C.ar    1  UNL1       -0.0617
     25 C           6.4059   -3.6160   -5.1951 C.ar    1  UNL1       -0.0614
     26 C           6.1249   -2.3097   -4.7767 C.ar    1  UNL1       -0.0568
     27 N           6.8925    0.6488   -5.8292 N.am    1  UNL1       -0.3081
     28 C           7.6425    1.7124   -6.2817 C.2     1  UNL1        0.2166
     29 O           8.5050    2.2470   -5.5971 O.2     1  UNL1       -0.2755
     30 C           7.1423    2.2634   -7.6335 C.3     1  UNL1        0.0359
     31 C           5.6956    2.7512   -7.4394 C.3     1  UNL1       -0.0365
     32 C           5.6663    3.9126   -6.4457 C.3     1  UNL1        0.0114
     33 C           6.5256    5.0742   -6.9112 C.3     1  UNL1        0.2490
     34 C           7.9340    4.6856   -7.3375 C.3     1  UNL1        0.0114
     35 C           7.9571    3.4315   -8.2129 C.3     1  UNL1       -0.0365
     36 F           6.5867    5.9953   -5.9156 F       1  UNL1       -0.2057
     37 F           5.8950    5.6743   -7.9536 F       1  UNL1       -0.2057
     38 C           1.2068    2.8216   -3.9139 C.3     1  UNL1        0.0135
     39 C           1.2697    2.3037   -5.3520 C.3     1  UNL1       -0.0557
     40 C           0.2986    4.0482   -3.8242 C.3     1  UNL1       -0.0557
     41 H           1.0345   -0.8720    0.2684 H       1  UNL1        0.0308
     42 H          -0.7095   -0.8583    0.0823 H       1  UNL1        0.0308
     43 H           0.0562    0.5023    0.8867 H       1  UNL1        0.0308
     44 H           1.0440    3.0204   -0.2150 H       1  UNL1        0.0532
     45 H           2.4651    4.0553   -2.0952 H       1  UNL1        0.0340
     46 H           3.0099    4.2122   -0.5108 H       1  UNL1        0.0340
     47 H           5.1467    4.1218   -0.0735 H       1  UNL1        0.0322
     48 H           6.3015    3.1084   -0.9281 H       1  UNL1        0.0322
     49 H           4.8450    2.3905    1.4747 H       1  UNL1        0.0322
     50 H           6.0272    1.4374    0.6004 H       1  UNL1        0.0322
     51 H           2.7766    2.3889    1.1826 H       1  UNL1        0.0340
     52 H           2.0930    0.8783    0.8553 H       1  UNL1        0.0340
     53 H           6.3289    0.8489   -1.6643 H       1  UNL1        0.0815
     54 H           5.2325   -0.5259   -1.9923 H       1  UNL1        0.0815
     55 H           4.7219    0.3658   -4.2604 H       1  UNL1        0.0338
     56 H           5.6622    1.7986   -3.9143 H       1  UNL1        0.0338
     57 H           9.3028   -1.0997   -4.7942 H       1  UNL1        0.0621
     58 H           9.7786   -3.4004   -5.5100 H       1  UNL1        0.0618
     59 H           7.9290   -5.0091   -5.8311 H       1  UNL1        0.0618
     60 H           5.5951   -4.3244   -5.3722 H       1  UNL1        0.0618
     61 H           5.0830   -2.0328   -4.6588 H       1  UNL1        0.0621
     62 H           6.3840    0.1073   -6.5208 H       1  UNL1        0.1493
     63 H           7.1622    1.4379   -8.3569 H       1  UNL1        0.0394
     64 H           5.2808    3.0755   -8.4021 H       1  UNL1        0.0274
     65 H           5.0486    1.9424   -7.0821 H       1  UNL1        0.0274
     66 H           6.0006    3.5845   -5.4542 H       1  UNL1        0.0323
     67 H           4.6280    4.2470   -6.3140 H       1  UNL1        0.0323
     68 H           8.5643    4.5414   -6.4550 H       1  UNL1        0.0323
     69 H           8.3823    5.5187   -7.8927 H       1  UNL1        0.0323
     70 H           8.9963    3.1288   -8.4064 H       1  UNL1        0.0274
     71 H           7.5322    3.6953   -9.1932 H       1  UNL1        0.0274
     72 H           2.2367    3.0929   -3.6973 H       1  UNL1        0.0374
     73 H           0.2756    2.0711   -5.7488 H       1  UNL1        0.0236
     74 H           1.7330    3.0521   -6.0030 H       1  UNL1        0.0236
     75 H           1.8776    1.3929   -5.4052 H       1  UNL1        0.0236
     76 H           0.1482    4.3750   -2.7888 H       1  UNL1        0.0236
     77 H           0.7368    4.8870   -4.3768 H       1  UNL1        0.0236
     78 H          -0.6916    3.8513   -4.2513 H       1  UNL1        0.0236
     79 H           3.3879    0.9703   -2.1695 H       1  UNL1        0.2039
@<TRIPOS>UNITY_ATOM_ATTR
16 1
charge 1
@<TRIPOS>BOND
     1     1     2    1
     2     1    41    1
     3     1    42    1
     4     1    43    1
     5     2     6   ar
     6     2     3   ar
     7     3     4   ar
     8     4     5   ar
     9     5     6   ar
    10     5    38    1
    11     7    15    1
    12     7     8    1
    13     8     9    1
    14     8    45    1
    15     8    46    1
    16     9    10    1
    17     9    16    1
    18     9    11    1
    19    11    12    1
    20    11    47    1
    21    11    48    1
    22    12    13    1
    23    12    49    1
    24    12    50    1
    25    13    14    1
    26    13    15    1
    27    13    16    1
    28    15    51    1
    29    15    52    1
    30    16    17    1
    31    16    79    1
    32    17    18    1
    33    17    53    1
    34    17    54    1
    35    18    19    1
    36    18    55    1
    37    18    56    1
    38    19    20    1
    39    19    21    1
    40    19    27    1
    41    21    26   ar
    42    21    22   ar
    43    22    23   ar
    44    22    57    1
    45    23    24   ar
    46    23    58    1
    47    24    25   ar
    48    24    59    1
    49    25    26   ar
    50    25    60    1
    51    26    61    1
    52    27    28   am
    53    27    62    1
    54    28    29    2
    55    28    30    1
    56    30    35    1
    57    30    31    1
    58    30    63    1
    59    31    32    1
    60    31    64    1
    61    31    65    1
    62    32    33    1
    63    32    66    1
    64    32    67    1
    65    33    34    1
    66    33    36    1
    67    33    37    1
    68    34    35    1
    69    34    68    1
    70    34    69    1
    71    35    70    1
    72    35    71    1
    73    38    39    1
    74    38    40    1
    75    38    72    1
    76    39    73    1
    77    39    74    1
    78    39    75    1
    79    40    76    1
    80    40    77    1
    81    40    78    1
    82     7    44    1
    83     7     6    1
