@<TRIPOS>MOLECULE
ZINC00970363
 32 34 0 0 0
SMALL
GASTEIGER

@<TRIPOS>ATOM
      1 C2          3.7086   -1.4366    1.2135 C.ar    1    A1        0.1205
      2 N1          2.8347   -2.2937    1.7853 N.ar    1    A1       -0.2188
      3 C6          1.5306   -1.9381    1.8365 C.ar    1    A1        0.1472
      4 C5          1.1435   -0.7186    1.2507 C.ar    1    A1        0.1473
      5 C4          2.1547    0.0685    0.7257 C.ar    1    A1        0.1674
      6 N3          3.4670   -0.2235    0.6739 N.ar    1    A1       -0.2159
      7 N9          1.5284    1.2137    0.3141 N.ar    1    A1       -0.2855
      8 C8          0.1853    1.0410    0.5109 C.ar    1    A1        0.1004
      9 N7         -0.0862   -0.1098    1.0925 N.ar    1    A1       -0.2306
     10 C1*         2.1968    2.4084   -0.1521 C.3     1    A1        0.1667
     11 H1*         3.2666    2.3003    0.0571 H       1    A1        0.0866
     12 C2*         2.0026    2.7976   -1.6301 C.3     1    A1        0.1285
     13 H2*         2.9828    2.9980   -2.0817 H       1    A1        0.0665
     14 C3*         1.1850    4.0817   -1.5461 C.3     1    A1        0.1135
     15 H3*         0.1157    3.8425   -1.4939 H       1    A1        0.0647
     16 C4*         1.7050    4.6705   -0.2498 C.3     1    A1        0.1126
     17 H4*         2.7301    5.0489   -0.3584 H       1    A1        0.0647
     18 O4*         1.7528    3.5441    0.6497 O.3     1    A1       -0.3457
     19 C5*         0.8291    5.7786    0.3213 C.3     1    A1        0.0730
     20 O5*         1.4140    6.2860    1.5183 O.3     1    A1       -0.3924
     21 O3*         1.4089    4.8946   -2.6878 O.3     1    A1       -0.3864
     22 O2*         1.3514    1.8406   -2.4553 O.3     1    A1       -0.3847
     23 N6          0.6417   -2.7928    2.4732 N.pl3   1    A1       -0.3413
     24 H2          4.7436   -1.7680    1.1901 H       1    A1        0.1048
     25 H8         -0.5470    1.7869    0.2307 H       1    A1        0.1030
     26 H5*1        0.7414    6.6101   -0.3847 H       1    A1        0.0584
     27 H5*2       -0.1738    5.4171    0.5684 H       1    A1        0.0584
     28 H5*         1.6257    5.5118    2.0744 H       1    A1        0.2095
     29 H3*         0.7822    5.6406   -2.6610 H       1    A1        0.2100
     30 H2*         1.2720    2.2489   -3.3408 H       1    A1        0.2101
     31 H61        -0.3283   -2.6428    2.2140 H       1    A1        0.1438
     32 H62         0.9824   -3.7403    2.5415 H       1    A1        0.1438
@<TRIPOS>BOND
     1     1     6   ar
     2     1     2   ar
     3     1    24    1
     4     2     3   ar
     5     3     4   ar
     6     3    23    1
     7     4     9   ar
     8     4     5   ar
     9     5     6   ar
    10     5     7   ar
    11     7     8   ar
    12     7    10    1
    13     8     9   ar
    14     8    25    1
    15    10    11    1
    16    10    18    1
    17    10    12    1
    18    12    13    1
    19    12    14    1
    20    12    22    1
    21    14    15    1
    22    14    16    1
    23    14    21    1
    24    16    17    1
    25    16    18    1
    26    16    19    1
    27    19    20    1
    28    19    26    1
    29    19    27    1
    30    20    28    1
    31    21    29    1
    32    22    30    1
    33    23    31    1
    34    23    32    1
