@<TRIPOS>MOLECULE
ZINC00968266
 51 53 0 0 0
SMALL
GASTEIGER

@<TRIPOS>ATOM
      1 C          -4.1570   -3.6639   -0.2502 C.ar    1  UNL1       -0.0617
      2 C          -4.6310   -2.7827   -1.2168 C.ar    1  UNL1       -0.0614
      3 C          -4.1703   -1.4589   -1.2580 C.ar    1  UNL1       -0.0555
      4 C          -3.2222   -0.9972   -0.3281 C.ar    1  UNL1       -0.0117
      5 C          -2.7342   -1.9247    0.6200 C.ar    1  UNL1       -0.0555
      6 C          -3.2011   -3.2362    0.6628 C.ar    1  UNL1       -0.0614
      7 C          -2.6984    0.4544   -0.3488 C.3     1  UNL1        0.1160
      8 C          -2.9213    1.0659    1.0728 C.3     1  UNL1       -0.0108
      9 C          -2.6179    2.5685    1.2266 C.3     1  UNL1       -0.0093
     10 C          -3.1405    3.0773    2.5762 C.3     1  UNL1       -0.0318
     11 N          -2.7079    4.5090    2.8747 N.4     1  UNL1        0.2352
     12 C          -3.1106    5.4961    1.7995 C.3     1  UNL1       -0.0319
     13 C          -2.6298    6.8936    2.1628 C.3     1  UNL1       -0.0123
     14 C          -3.1808    7.3337    3.5097 C.3     1  UNL1       -0.0434
     15 C          -2.7659    6.3428    4.5876 C.3     1  UNL1       -0.0123
     16 C          -3.2145    4.9264    4.2494 C.3     1  UNL1       -0.0319
     17 C          -1.2620    0.4678   -0.8988 C.ar    1  UNL1       -0.0117
     18 C          -0.1379    0.3535   -0.0659 C.ar    1  UNL1       -0.0555
     19 C           1.1477    0.2084   -0.6003 C.ar    1  UNL1       -0.0614
     20 C           1.3397    0.1859   -1.9794 C.ar    1  UNL1       -0.0617
     21 C           0.2471    0.3108   -2.8288 C.ar    1  UNL1       -0.0614
     22 C          -1.0387    0.4365   -2.2968 C.ar    1  UNL1       -0.0555
     23 O          -3.5466    1.2674   -1.1840 O.3     1  UNL1       -0.3793
     24 H          -4.5220   -4.6878   -0.2177 H       1  UNL1        0.0618
     25 H          -5.3665   -3.1224   -1.9430 H       1  UNL1        0.0618
     26 H          -4.5579   -0.7986   -2.0295 H       1  UNL1        0.0621
     27 H          -1.9649   -1.6376    1.3331 H       1  UNL1        0.0621
     28 H          -2.8154   -3.9285    1.4088 H       1  UNL1        0.0618
     29 H          -3.9867    0.9348    1.3173 H       1  UNL1        0.0301
     30 H          -2.3661    0.5200    1.8439 H       1  UNL1        0.0301
     31 H          -1.5402    2.7425    1.1478 H       1  UNL1        0.0318
     32 H          -3.1065    3.1208    0.4179 H       1  UNL1        0.0318
     33 H          -4.2359    3.0554    2.6124 H       1  UNL1        0.0814
     34 H          -2.7435    2.4634    3.3932 H       1  UNL1        0.0814
     35 H          -4.2000    5.4495    1.6966 H       1  UNL1        0.0814
     36 H          -2.6328    5.1875    0.8665 H       1  UNL1        0.0814
     37 H          -2.9391    7.6018    1.3865 H       1  UNL1        0.0317
     38 H          -1.5327    6.9121    2.1924 H       1  UNL1        0.0317
     39 H          -2.8134    8.3358    3.7571 H       1  UNL1        0.0269
     40 H          -4.2751    7.3953    3.4609 H       1  UNL1        0.0269
     41 H          -1.6759    6.3683    4.7082 H       1  UNL1        0.0317
     42 H          -3.1982    6.6463    5.5480 H       1  UNL1        0.0317
     43 H          -2.8075    4.2160    4.9769 H       1  UNL1        0.0814
     44 H          -4.3075    4.8495    4.2352 H       1  UNL1        0.0814
     45 H          -0.2415    0.3131    1.0144 H       1  UNL1        0.0621
     46 H           2.0006    0.0722    0.0597 H       1  UNL1        0.0618
     47 H           2.3355    0.0406   -2.3917 H       1  UNL1        0.0618
     48 H           0.3896    0.2696   -3.9071 H       1  UNL1        0.0618
     49 H          -1.8751    0.4598   -2.9953 H       1  UNL1        0.0621
     50 H          -2.9775    1.8449   -1.7190 H       1  UNL1        0.2111
     51 H          -1.6800    4.5093    2.9203 H       1  UNL1        0.2033
@<TRIPOS>UNITY_ATOM_ATTR
11 1
charge 1
@<TRIPOS>BOND
     1     1     6   ar
     2     1     2   ar
     3     1    24    1
     4     2     3   ar
     5     2    25    1
     6     3     4   ar
     7     3    26    1
     8     4     5   ar
     9     4     7    1
    10     5     6   ar
    11     5    27    1
    12     6    28    1
    13     7     8    1
    14     7    17    1
    15     7    23    1
    16     8     9    1
    17     8    29    1
    18     8    30    1
    19     9    10    1
    20     9    31    1
    21     9    32    1
    22    10    11    1
    23    10    33    1
    24    10    34    1
    25    11    16    1
    26    11    12    1
    27    11    51    1
    28    12    13    1
    29    12    35    1
    30    12    36    1
    31    13    14    1
    32    13    37    1
    33    13    38    1
    34    14    15    1
    35    14    39    1
    36    14    40    1
    37    15    16    1
    38    15    41    1
    39    15    42    1
    40    16    43    1
    41    16    44    1
    42    17    22   ar
    43    17    18   ar
    44    18    19   ar
    45    18    45    1
    46    19    20   ar
    47    19    46    1
    48    20    21   ar
    49    20    47    1
    50    21    22   ar
    51    21    48    1
    52    22    49    1
    53    23    50    1
