@<TRIPOS>MOLECULE
ZINC03830339
 47 48 0 0 0
SMALL
GASTEIGER

@<TRIPOS>ATOM
      1 C           4.1010   -3.0590    2.7727 C.3     1  UNL1       -0.0193
      2 C           2.9484   -4.0624    2.6531 C.3     1  UNL1       -0.0203
      3 C           3.2349   -5.1494    1.6210 C.3     1  UNL1       -0.0193
      4 C           2.7518   -4.7436    4.0222 C.3     1  UNL1       -0.0193
      5 N           1.6402   -3.3593    2.3226 N.4     1  UNL1        0.2327
      6 C           1.4504   -2.4537    1.1351 C.3     1  UNL1       -0.0033
      7 C           1.4436   -3.0726   -0.2790 C.3     1  UNL1        0.1285
      8 H           2.4326   -3.4682   -0.5146 H       1  UNL1        0.0681
      9 C           0.3938   -4.1625   -0.5644 C.3     1  UNL1        0.1204
     10 O          -0.9308   -3.7159   -0.2592 O.3     1  UNL1       -0.4889
     11 C          -1.9769   -4.5214   -0.6557 C.ar    1  UNL1        0.1244
     12 C          -1.8353   -5.7083   -1.3895 C.ar    1  UNL1       -0.0196
     13 C          -2.9429   -6.4872   -1.7326 C.ar    1  UNL1       -0.0576
     14 C          -4.2152   -6.1073   -1.3292 C.ar    1  UNL1       -0.0508
     15 C          -4.3835   -4.9270   -0.5986 C.ar    1  UNL1        0.0240
     16 C          -3.2738   -4.1117   -0.2822 C.ar    1  UNL1        0.0047
     17 C          -3.5303   -2.7824    0.3847 C.3     1  UNL1       -0.0232
     18 C          -4.6450   -2.9209    1.4135 C.3     1  UNL1       -0.0419
     19 C          -5.9390   -3.3535    0.7394 C.3     1  UNL1        0.0108
     20 C          -5.7610   -4.5651   -0.1518 C.2     1  UNL1        0.1635
     21 O          -6.7207   -5.2328   -0.5279 O.2     1  UNL1       -0.2920
     22 O           1.2570   -1.9804   -1.1958 O.3     1  UNL1       -0.3831
     23 H           5.0579   -3.5866    2.8743 H       1  UNL1        0.0287
     24 H           3.9927   -2.4276    3.6626 H       1  UNL1        0.0287
     25 H           4.1879   -2.4045    1.9016 H       1  UNL1        0.0287
     26 H           4.0960   -5.7562    1.9255 H       1  UNL1        0.0287
     27 H           2.3814   -5.8273    1.5138 H       1  UNL1        0.0287
     28 H           3.4848   -4.7406    0.6425 H       1  UNL1        0.0287
     29 H           2.5561   -4.0142    4.8165 H       1  UNL1        0.0287
     30 H           1.9163   -5.4521    4.0029 H       1  UNL1        0.0287
     31 H           3.6512   -5.3035    4.3093 H       1  UNL1        0.0287
     32 H           0.8649   -4.0359    2.3425 H       1  UNL1        0.2020
     33 H           0.4954   -1.9450    1.3065 H       1  UNL1        0.0841
     34 H           2.2147   -1.6682    1.1991 H       1  UNL1        0.0841
     35 H           0.4638   -4.4039   -1.6341 H       1  UNL1        0.0725
     36 H           0.6136   -5.0575    0.0300 H       1  UNL1        0.0725
     37 H          -0.8686   -6.0689   -1.7330 H       1  UNL1        0.0654
     38 H          -2.8177   -7.3949   -2.3238 H       1  UNL1        0.0619
     39 H          -5.0741   -6.7271   -1.5865 H       1  UNL1        0.0625
     40 H          -3.8133   -2.0565   -0.3885 H       1  UNL1        0.0315
     41 H          -2.6340   -2.4013    0.8830 H       1  UNL1        0.0315
     42 H          -4.8006   -1.9681    1.9276 H       1  UNL1        0.0273
     43 H          -4.3576   -3.6595    2.1725 H       1  UNL1        0.0273
     44 H          -6.3404   -2.5422    0.1232 H       1  UNL1        0.0345
     45 H          -6.6764   -3.6008    1.5106 H       1  UNL1        0.0345
     46 H           1.1988   -2.3255   -2.1072 H       1  UNL1        0.2102
     47 H           1.4474   -2.7472    3.1322 H       1  UNL1        0.2020
@<TRIPOS>UNITY_ATOM_ATTR
5 1
charge 1
@<TRIPOS>BOND
     1     1     2    1
     2     1    23    1
     3     1    24    1
     4     1    25    1
     5     2     3    1
     6     2     4    1
     7     2     5    1
     8     3    26    1
     9     3    27    1
    10     3    28    1
    11     4    29    1
    12     4    30    1
    13     4    31    1
    14     5     6    1
    15     5    32    1
    16     5    47    1
    17     6     7    1
    18     6    33    1
    19     6    34    1
    20     7     8    1
    21     7     9    1
    22     7    22    1
    23     9    10    1
    24     9    35    1
    25     9    36    1
    26    10    11    1
    27    11    16   ar
    28    11    12   ar
    29    12    13   ar
    30    12    37    1
    31    13    14   ar
    32    13    38    1
    33    14    15   ar
    34    14    39    1
    35    15    20    1
    36    15    16   ar
    37    16    17    1
    38    17    18    1
    39    17    40    1
    40    17    41    1
    41    18    19    1
    42    18    42    1
    43    18    43    1
    44    19    20    1
    45    19    44    1
    46    19    45    1
    47    20    21    2
    48    22    46    1
