@<TRIPOS>MOLECULE
ZINC01536109
 56 58 0 0 0
SMALL
GASTEIGER

@<TRIPOS>ATOM
      1 C          -2.5991    2.6187    0.9796 C.1     0  UNK0       -0.1192
      2 C          -2.2276    1.4428    0.5564 C.1     0  UNK0       -0.1050
      3 C          -1.7944    0.0719    0.0630 C.3     0  UNK0        0.0160
      4 C          -2.3966   -1.0740    0.9093 C.3     0  UNK0        0.0004
      5 H          -2.1259   -0.9005    1.9618 H       0  UNK0        0.0362
      6 C          -3.9547   -1.0068    0.8341 C.3     0  UNK0       -0.0012
      7 C          -4.6940   -2.0394    1.6446 C.ar    0  UNK0        0.0609
      8 C          -5.8849   -2.5797    1.1881 C.ar    0  UNK0        0.0513
      9 N          -6.4808   -3.6465    1.7703 N.ar    0  UNK0       -0.2325
     10 C          -5.8641   -4.2077    2.8207 C.ar    0  UNK0        0.1851
     11 C          -4.7148   -3.6006    3.3370 C.ar    0  UNK0        0.1476
     12 N          -4.1399   -2.4915    2.7838 N.ar    0  UNK0       -0.2435
     13 C          -4.1761   -4.2571    4.4348 C.ar    0  UNK0        0.1491
     14 N          -4.6638   -5.4006    4.9352 N.ar    0  UNK0       -0.1978
     15 C          -5.7333   -5.9029    4.3264 C.ar    0  UNK0        0.2163
     16 N          -6.3851   -5.3241    3.3226 N.ar    0  UNK0       -0.1932
     17 N          -6.2497   -7.0712    4.8450 N.pl3   0  UNK0       -0.3274
     18 N          -3.1254   -3.6654    5.1623 N.pl3   0  UNK0       -0.3413
     19 C          -1.7353   -2.4061    0.5192 C.ar    0  UNK0       -0.0430
     20 C          -2.4328   -3.4836   -0.0361 C.ar    0  UNK0       -0.0576
     21 C          -1.8029   -4.7153   -0.2472 C.ar    0  UNK0       -0.0494
     22 C          -0.4508   -4.9158    0.0700 C.ar    0  UNK0        0.0367
     23 C           0.2779   -3.8316    0.5568 C.ar    0  UNK0       -0.0494
     24 C          -0.3616   -2.5974    0.7819 C.ar    0  UNK0       -0.0576
     25 C           0.0733   -6.3109   -0.0592 C.2     0  UNK0        0.2447
     26 O          -0.7359   -7.1998   -0.3390 O.2     0  UNK0       -0.2702
     27 N           1.3950   -6.5604    0.1961 N.am    1  GLU1       -0.2982
     28 CA          1.9481   -7.9372    0.2930 C.3     1  GLU1        0.1254
     29 HA          1.1838   -8.5165    0.8300 H       1  GLU1        0.0616
     30 CB          2.1218   -8.6070   -1.0845 C.3     1  GLU1       -0.0137
     31 CG          2.8876   -7.7805   -2.1220 C.3     1  GLU1        0.0514
     32 CD          3.0449   -8.3990   -3.5193 C.2     1  GLU1        0.3561
     33 OE1         2.5862   -9.5614   -3.7013 O.co2   1  GLU1       -0.2464
     34 C           3.2137   -8.0165    1.2188 C.2     1  GLU1        0.3759
     35 O           3.7331   -6.8862    1.5016 O.co2   1  GLU1       -0.2443
     36 H          -2.8987    3.5779    1.3335 H       0  UNK0        0.1228
     37 H          -2.0857   -0.0361   -0.9893 H       0  UNK0        0.0403
     38 H          -0.6988    0.0532    0.0902 H       0  UNK0        0.0403
     39 H          -4.3080   -0.0307    1.1866 H       0  UNK0        0.0335
     40 H          -4.2596   -1.0905   -0.2179 H       0  UNK0        0.0335
     41 H          -6.3791   -2.2052    0.2976 H       0  UNK0        0.0848
     42 H          -5.8752   -7.2253    5.7704 H       0  UNK0        0.1452
     43 H          -7.2509   -7.0996    4.7238 H       0  UNK0        0.1452
     44 H          -2.4801   -3.1928    4.5331 H       0  UNK0        0.1438
     45 H          -2.6953   -4.3738    5.7483 H       0  UNK0        0.1438
     46 H          -3.4867   -3.4327   -0.2836 H       0  UNK0        0.0621
     47 H          -2.3896   -5.5469   -0.6374 H       0  UNK0        0.0625
     48 H           1.3310   -3.9297    0.8041 H       0  UNK0        0.0625
     49 H           0.2333   -1.7871    1.1997 H       0  UNK0        0.0621
     50 H           2.0775   -5.8650    0.4731 H       1  GLU1        0.1498
     51 HB1         2.6147   -9.5787   -0.9578 H       1  GLU1        0.0294
     52 HB2         1.1253   -8.8236   -1.4913 H       1  GLU1        0.0294
     53 HG1         2.3749   -6.8222   -2.2700 H       1  GLU1        0.0380
     54 HG2         3.8918   -7.5588   -1.7427 H       1  GLU1        0.0380
     55 OE2         3.6232   -7.6454   -4.3624 O.co2   1  GLU1       -0.2464
     56 OXT         3.5094   -9.1604    1.6775 O.co2   1  GLU1       -0.2443
@<TRIPOS>BOND
     1     1     2    3
     2     1    36    1
     3     2     3    1
     4     3     4    1
     5     3    37    1
     6     3    38    1
     7     4     5    1
     8     4     6    1
     9     4    19    1
    10     6     7    1
    11     6    39    1
    12     6    40    1
    13     7    12   ar
    14     7     8   ar
    15     8     9   ar
    16     8    41    1
    17     9    10   ar
    18    10    16   ar
    19    10    11   ar
    20    11    12   ar
    21    11    13   ar
    22    13    14   ar
    23    13    18    1
    24    14    15   ar
    25    15    16   ar
    26    15    17    1
    27    17    42    1
    28    17    43    1
    29    18    44    1
    30    18    45    1
    31    19    24   ar
    32    19    20   ar
    33    20    21   ar
    34    20    46    1
    35    21    22   ar
    36    21    47    1
    37    22    23   ar
    38    22    25    1
    39    23    24   ar
    40    23    48    1
    41    24    49    1
    42    25    26    2
    43    25    27   am
    44    27    28    1
    45    27    50    1
    46    28    29    1
    47    28    30    1
    48    28    34    1
    49    30    31    1
    50    30    51    1
    51    30    52    1
    52    31    32    1
    53    31    53    1
    54    31    54    1
    55    32    33   ar
    56    32    55   ar
    57    34    35   ar
    58    34    56   ar
