@<TRIPOS>MOLECULE
ZINC01530930
 37 37 0 0 0
SMALL
GASTEIGER

@<TRIPOS>ATOM
      1 C           5.9151   -0.2441   -2.7456 C.3     1  UNL1       -0.0543
      2 C           4.5699    0.0048   -3.3865 C.3     1  UNL1        0.0063
      3 C           3.6435   -1.1988   -3.4462 C.1     1  UNL1       -0.1022
      4 C           2.8489   -2.2313   -3.4973 C.1     1  UNL1       -0.0976
      5 C           1.9226   -3.4349   -3.5570 C.3     1  UNL1        0.0405
      6 H           0.9175   -3.0752   -3.3015 H       1  UNL1        0.0445
      7 C           1.8739   -3.8783   -5.0329 C.3     1  UNL1       -0.0500
      8 C           2.3249   -4.5924   -2.5788 C.3     1  UNL1        0.1401
      9 C           3.7487   -5.0887   -2.7940 C.2     1  UNL1        0.2369
     10 O           4.6626   -4.4542   -3.3049 O.2     1  UNL1       -0.2742
     11 N           4.0105   -6.3293   -2.2776 N.am    1  UNL1       -0.2388
     12 C           3.1258   -7.3597   -2.3208 C.2     1  UNL1        0.3146
     13 O           3.5378   -8.5100   -2.2424 O.2     1  UNL1       -0.2518
     14 N           1.7993   -7.0316   -2.5338 N.am    1  UNL1       -0.2279
     15 C           1.3324   -5.7444   -2.7588 C.2     1  UNL1        0.2393
     16 O           0.1533   -5.5251   -3.0557 O.2     1  UNL1       -0.2740
     17 C           0.8797   -8.1425   -2.6997 C.3     1  UNL1        0.0124
     18 C           2.2643   -4.1550   -1.0784 C.3     1  UNL1       -0.0114
     19 C           0.8984   -3.7931   -0.5542 C.2     1  UNL1       -0.0896
     20 C           0.2734   -4.4643    0.4232 C.2     1  UNL1       -0.1026
     21 H           5.8140   -0.5884   -1.7126 H       1  UNL1        0.0239
     22 H           6.4852    0.6933   -2.7323 H       1  UNL1        0.0239
     23 H           6.4981   -0.9805   -3.3058 H       1  UNL1        0.0239
     24 H           4.0496    0.8001   -2.8395 H       1  UNL1        0.0395
     25 H           4.7161    0.3697   -4.4101 H       1  UNL1        0.0395
     26 H           2.8655   -4.1541   -5.4076 H       1  UNL1        0.0242
     27 H           1.2042   -4.7272   -5.1942 H       1  UNL1        0.0242
     28 H           1.5051   -3.0592   -5.6625 H       1  UNL1        0.0242
     29 H           4.9758   -6.6271   -2.3424 H       1  UNL1        0.1591
     30 H           1.2075   -8.7511   -3.5492 H       1  UNL1        0.0434
     31 H           0.9120   -8.7615   -1.8006 H       1  UNL1        0.0434
     32 H          -0.1497   -7.8204   -2.8754 H       1  UNL1        0.0434
     33 H           2.6757   -4.9521   -0.4422 H       1  UNL1        0.0322
     34 H           2.9276   -3.2961   -0.9131 H       1  UNL1        0.0322
     35 H           0.3922   -2.9428   -1.0064 H       1  UNL1        0.0567
     36 H          -0.7219   -4.1710    0.7460 H       1  UNL1        0.0532
     37 H           0.7230   -5.3190    0.9192 H       1  UNL1        0.0532
@<TRIPOS>BOND
     1     1     2    1
     2     1    21    1
     3     1    22    1
     4     1    23    1
     5     2     3    1
     6     2    24    1
     7     2    25    1
     8     3     4    3
     9     4     5    1
    10     5     6    1
    11     5     7    1
    12     5     8    1
    13     7    26    1
    14     7    27    1
    15     7    28    1
    16     8    15    1
    17     8     9    1
    18     8    18    1
    19     9    10    2
    20     9    11   am
    21    11    12   am
    22    11    29    1
    23    12    13    2
    24    12    14   am
    25    14    15   am
    26    14    17    1
    27    15    16    2
    28    17    30    1
    29    17    31    1
    30    17    32    1
    31    18    19    1
    32    18    33    1
    33    18    34    1
    34    19    20    2
    35    19    35    1
    36    20    36    1
    37    20    37    1
