@<TRIPOS>MOLECULE
ZINC01530571
 60 63 0 0 0
SMALL
GASTEIGER

@<TRIPOS>ATOM
      1 C          -2.5905   -0.2167   -0.5361 C.ar    1  UNL1       -0.0253
      2 C          -1.6093    0.1599   -1.4178 C.ar    1  UNL1        0.0326
      3 N          -0.6462    1.0556   -1.1209 N.ar    1  UNL1       -0.2228
      4 C          -0.6623    1.6017    0.1091 C.ar    1  UNL1        0.2181
      5 N          -1.5943    1.2993    1.0203 N.ar    1  UNL1       -0.2228
      6 C          -2.5342    0.3939    0.6853 C.ar    1  UNL1        0.0326
      7 N           0.3617    2.4655    0.4710 N.pl3   1  UNL1       -0.2895
      8 C           1.1892    2.9732   -0.6239 C.3     1  UNL1        0.0552
      9 C           2.4814    3.5874   -0.0484 C.3     1  UNL1       -0.0157
     10 N           2.1971    4.6153    1.0549 N.4     1  UNL1        0.2375
     11 C           1.3143    3.9861    2.1391 C.3     1  UNL1       -0.0157
     12 C           0.0215    3.4048    1.5416 C.3     1  UNL1        0.0552
     13 C           1.6381    5.9292    0.5890 C.3     1  UNL1       -0.0317
     14 C           2.6448    6.6824   -0.2590 C.3     1  UNL1       -0.0111
     15 C           2.0489    8.0196   -0.6765 C.3     1  UNL1       -0.0319
     16 C           2.9790    8.7119   -1.6560 C.3     1  UNL1        0.0225
     17 N           2.5237   10.0200   -2.1221 N.am    1  UNL1       -0.2421
     18 C           1.2600   10.1485   -2.7345 C.2     1  UNL1        0.2223
     19 O           0.5121    9.1892   -2.9308 O.2     1  UNL1       -0.2752
     20 C           0.8986   11.5571   -3.3014 C.3     1  UNL1        0.0306
     21 C           2.1356   12.0102   -4.0780 C.3     1  UNL1       -0.0127
     22 C           2.3885   13.2694   -4.9309 C.3     1  UNL1       -0.0465
     23 C           3.6625   12.8159   -5.7683 C.3     1  UNL1       -0.0525
     24 C           3.5463   11.3023   -5.9130 C.3     1  UNL1       -0.0525
     25 C           2.2305   11.0060   -5.2590 C.3     1  UNL1       -0.0465
     26 C           3.1762   12.1819   -2.9525 C.3     1  UNL1        0.0306
     27 C           3.5722   10.8982   -2.3546 C.2     1  UNL1        0.2223
     28 O           4.7597   10.6493   -2.0981 O.2     1  UNL1       -0.2752
     29 H          -3.3460   -0.9466   -0.7858 H       1  UNL1        0.0648
     30 H          -1.5593   -0.2637   -2.4168 H       1  UNL1        0.0831
     31 H          -3.2533    0.1622    1.4678 H       1  UNL1        0.0831
     32 H           1.5007    2.1740   -1.3076 H       1  UNL1        0.0517
     33 H           0.6415    3.7209   -1.2069 H       1  UNL1        0.0517
     34 H           3.0963    2.8132    0.4251 H       1  UNL1        0.0830
     35 H           3.0862    4.0640   -0.8236 H       1  UNL1        0.0830
     36 H           1.1097    4.7553    2.8903 H       1  UNL1        0.0830
     37 H           1.9190    3.1978    2.6005 H       1  UNL1        0.0830
     38 H          -0.6166    4.2069    1.1488 H       1  UNL1        0.0517
     39 H          -0.5196    2.9288    2.3673 H       1  UNL1        0.0517
     40 H           0.7120    5.7413    0.0391 H       1  UNL1        0.0814
     41 H           1.4094    6.5129    1.4877 H       1  UNL1        0.0814
     42 H           3.5817    6.8380    0.2967 H       1  UNL1        0.0317
     43 H           2.8961    6.1154   -1.1616 H       1  UNL1        0.0317
     44 H           1.0712    7.8411   -1.1288 H       1  UNL1        0.0282
     45 H           1.8874    8.6576    0.2002 H       1  UNL1        0.0282
     46 H           3.9470    8.8162   -1.1467 H       1  UNL1        0.0469
     47 H           3.1634    8.0947   -2.5408 H       1  UNL1        0.0469
     48 H           0.6239   12.2062   -2.4636 H       1  UNL1        0.0364
     49 H           0.0151   11.4590   -3.9451 H       1  UNL1        0.0364
     50 H           1.5575   13.5071   -5.6067 H       1  UNL1        0.0271
     51 H           2.6144   14.1749   -4.3531 H       1  UNL1        0.0271
     52 H           3.7069   13.3206   -6.7262 H       1  UNL1        0.0265
     53 H           4.5904   13.0484   -5.2304 H       1  UNL1        0.0265
     54 H           3.5675   10.9688   -6.9518 H       1  UNL1        0.0265
     55 H           4.3323   10.7784   -5.3633 H       1  UNL1        0.0265
     56 H           2.1040    9.9469   -5.0302 H       1  UNL1        0.0271
     57 H           1.4198   11.2373   -5.9755 H       1  UNL1        0.0271
     58 H           2.7568   12.8009   -2.1444 H       1  UNL1        0.0364
     59 H           4.0860   12.7055   -3.2433 H       1  UNL1        0.0364
     60 H           3.0988    4.8074    1.5072 H       1  UNL1        0.2034
@<TRIPOS>UNITY_ATOM_ATTR
10 1
charge 1
@<TRIPOS>BOND
     1     1     6   ar
     2     1     2   ar
     3     1    29    1
     4     2     3   ar
     5     2    30    1
     6     3     4   ar
     7     4     5   ar
     8     4     7    1
     9     5     6   ar
    10     6    31    1
    11     7    12    1
    12     7     8    1
    13     8     9    1
    14     8    32    1
    15     8    33    1
    16     9    10    1
    17     9    34    1
    18     9    35    1
    19    10    11    1
    20    10    13    1
    21    10    60    1
    22    11    12    1
    23    11    36    1
    24    11    37    1
    25    12    38    1
    26    12    39    1
    27    13    14    1
    28    13    40    1
    29    13    41    1
    30    14    15    1
    31    14    42    1
    32    14    43    1
    33    15    16    1
    34    15    44    1
    35    15    45    1
    36    16    17    1
    37    16    46    1
    38    16    47    1
    39    17    27   am
    40    17    18   am
    41    18    19    2
    42    18    20    1
    43    20    21    1
    44    20    48    1
    45    20    49    1
    46    21    25    1
    47    21    22    1
    48    21    26    1
    49    22    23    1
    50    22    50    1
    51    22    51    1
    52    23    24    1
    53    23    52    1
    54    23    53    1
    55    24    25    1
    56    24    54    1
    57    24    55    1
    58    25    56    1
    59    25    57    1
    60    26    27    1
    61    26    58    1
    62    26    59    1
    63    27    28    2
