@<TRIPOS>MOLECULE
ZINC01530710
 19 19 0 0 0
SMALL
GASTEIGER

@<TRIPOS>ATOM
      1 C           0.9584   -0.1700    0.0729 C.3     1  UNL1       -0.0163
      2 C           0.4189   -1.3339   -0.7371 C.3     1  UNL1        0.1851
      3 C           1.1357   -2.6401   -0.4994 C.2     1  UNL1        0.2675
      4 O           2.3477   -2.8006   -0.4377 O.2     1  UNL1       -0.2707
      5 N           0.1771   -3.5964   -0.4471 N.am    1  UNL1       -0.2073
      6 C          -1.0324   -3.0228   -0.2877 C.2     1  UNL1        0.4101
      7 O          -2.0953   -3.5926   -0.0990 O.2     1  UNL1       -0.2258
      8 O          -0.9193   -1.6589   -0.3341 O.3     1  UNL1       -0.4345
      9 C           0.4399   -5.0125   -0.4561 C.3     1  UNL1        0.0142
     10 C           0.4152   -1.0439   -2.2378 C.3     1  UNL1       -0.0163
     11 H           0.7541   -0.3022    1.1411 H       1  UNL1        0.0273
     12 H           0.4724    0.7664   -0.2245 H       1  UNL1        0.0273
     13 H           2.0389   -0.0500   -0.0586 H       1  UNL1        0.0273
     14 H           0.8852   -5.2604   -1.4266 H       1  UNL1        0.0434
     15 H           1.1625   -5.2565    0.3243 H       1  UNL1        0.0434
     16 H          -0.4799   -5.5836   -0.3231 H       1  UNL1        0.0434
     17 H          -0.2373   -0.1949   -2.4699 H       1  UNL1        0.0273
     18 H           1.4235   -0.8258   -2.6037 H       1  UNL1        0.0273
     19 H           0.0316   -1.8984   -2.8072 H       1  UNL1        0.0273
@<TRIPOS>BOND
     1     1     2    1
     2     1    11    1
     3     1    12    1
     4     1    13    1
     5     2     8    1
     6     2     3    1
     7     2    10    1
     8     3     4    2
     9     3     5   am
    10     5     6   am
    11     5     9    1
    12     6     7    2
    13     6     8    1
    14     9    14    1
    15     9    15    1
    16     9    16    1
    17    10    17    1
    18    10    18    1
    19    10    19    1
