@<TRIPOS>MOLECULE
ZINC03814422
 52 55 0 0 0
SMALL
GASTEIGER

@<TRIPOS>ATOM
      1 C           2.0332    0.0767   -1.5361 C.3     1  UNL1       -0.0556
      2 C           2.1666   -0.4931   -0.0976 C.3     1  UNL1       -0.0072
      3 C           3.2102    0.3527    0.6790 C.3     1  UNL1       -0.0367
      4 C           4.6449    0.2443    0.1556 C.3     1  UNL1        0.0107
      5 C           4.9251   -1.0022   -0.6519 C.2     1  UNL1        0.1561
      6 O           5.9036   -1.0857   -1.3935 O.2     1  UNL1       -0.2927
      7 C           4.0221   -2.1432   -0.4980 C.2     1  UNL1       -0.0194
      8 C           2.7298   -1.9514   -0.2296 C.2     1  UNL1       -0.0601
      9 C           1.7816   -3.1373   -0.2070 C.3     1  UNL1       -0.0305
     10 C           0.3500   -2.9246    0.3193 C.3     1  UNL1       -0.0459
     11 C          -0.1407   -1.5175   -0.0418 C.3     1  UNL1       -0.0337
     12 H          -0.0392   -1.4377   -1.1259 H       1  UNL1        0.0307
     13 C           0.8072   -0.5555    0.7000 C.3     1  UNL1       -0.0288
     14 H           1.1153   -1.0730    1.6277 H       1  UNL1        0.0312
     15 C           0.1349    0.6973    1.3266 C.3     1  UNL1       -0.0486
     16 C          -1.2403    1.2072    0.8254 C.3     1  UNL1       -0.0445
     17 C          -2.0327    0.2374   -0.0885 C.3     1  UNL1       -0.0004
     18 C          -1.5994   -1.2222    0.2414 C.3     1  UNL1       -0.0298
     19 H          -1.7535   -1.3820    1.3214 H       1  UNL1        0.0310
     20 C          -2.5946   -2.1350   -0.4937 C.3     1  UNL1       -0.0468
     21 C          -3.7294   -1.2140   -0.9536 C.3     1  UNL1       -0.0235
     22 C          -3.6005    0.0276   -0.0225 C.3     1  UNL1        0.0689
     23 C          -4.2882   -0.3737    1.2992 C.3     1  UNL1       -0.0356
     24 O          -4.3076    1.1374   -0.5586 O.3     1  UNL1       -0.3883
     25 C          -1.7496    0.8374   -1.5133 C.3     1  UNL1       -0.0567
     26 H           2.7246   -0.4057   -2.2390 H       1  UNL1        0.0238
     27 H           2.2261    1.1510   -1.5796 H       1  UNL1        0.0238
     28 H           1.0574   -0.0867   -1.9812 H       1  UNL1        0.0238
     29 H           2.9296    1.4154    0.6732 H       1  UNL1        0.0278
     30 H           3.2120    0.0548    1.7370 H       1  UNL1        0.0278
     31 H           5.3407    0.2419    1.0043 H       1  UNL1        0.0345
     32 H           4.8759    1.1166   -0.4674 H       1  UNL1        0.0345
     33 H           4.4520   -3.1302   -0.6879 H       1  UNL1        0.0652
     34 H           1.7000   -3.5039   -1.2375 H       1  UNL1        0.0310
     35 H           2.2438   -3.9429    0.3771 H       1  UNL1        0.0310
     36 H          -0.3013   -3.7002   -0.0958 H       1  UNL1        0.0271
     37 H           0.3328   -3.0724    1.4083 H       1  UNL1        0.0271
     38 H           0.8413    1.5310    1.3986 H       1  UNL1        0.0268
     39 H          -0.0541    0.4307    2.3806 H       1  UNL1        0.0268
     40 H          -0.9929    2.1363    0.2898 H       1  UNL1        0.0272
     41 H          -1.8476    1.5518    1.6690 H       1  UNL1        0.0272
     42 H          -2.1474   -2.6723   -1.3343 H       1  UNL1        0.0269
     43 H          -2.9773   -2.8865    0.2080 H       1  UNL1        0.0269
     44 H          -3.5975   -0.9712   -2.0126 H       1  UNL1        0.0293
     45 H          -4.7099   -1.6973   -0.9116 H       1  UNL1        0.0293
     46 H          -5.3241   -0.0079    1.3137 H       1  UNL1        0.0257
     47 H          -4.3709   -1.4629    1.4175 H       1  UNL1        0.0257
     48 H          -3.7793    0.0141    2.1812 H       1  UNL1        0.0257
     49 H          -4.4015    1.7955    0.1521 H       1  UNL1        0.2102
     50 H          -2.3903    0.4840   -2.3201 H       1  UNL1        0.0236
     51 H          -1.9398    1.9233   -1.5022 H       1  UNL1        0.0236
     52 H          -0.7242    0.7081   -1.8334 H       1  UNL1        0.0236
@<TRIPOS>BOND
     1     1    26    1
     2     1    27    1
     3     1    28    1
     4     2     8    1
     5     2    13    1
     6     2     3    1
     7     3     4    1
     8     4     5    1
     9     5     7    1
    10     7     8    2
    11     8     9    1
    12     9    10    1
    13    10    11    1
    14    11    18    1
    15    11    13    1
    16    13    15    1
    17    15    16    1
    18    16    17    1
    19    17    22    1
    20    17    18    1
    21    18    20    1
    22    20    21    1
    23    21    22    1
    24    23    46    1
    25    23    47    1
    26    23    48    1
    27    24    49    1
    28    25    50    1
    29    25    51    1
    30    25    52    1
    31     2     1    1
    32     3    29    1
    33     3    30    1
    34     4    31    1
    35     4    32    1
    36     5     6    2
    37     7    33    1
    38     9    34    1
    39     9    35    1
    40    10    36    1
    41    10    37    1
    42    11    12    1
    43    13    14    1
    44    15    38    1
    45    15    39    1
    46    16    40    1
    47    16    41    1
    48    17    25    1
    49    18    19    1
    50    20    42    1
    51    20    43    1
    52    21    44    1
    53    21    45    1
    54    22    23    1
    55    22    24    1
