@<TRIPOS>MOLECULE
ZINC03810860
 51 54 0 0 0
SMALL
GASTEIGER

@<TRIPOS>ATOM
      1 C          -1.0846    1.2767    0.2105 C.ar    1  UNL1       -0.0533
      2 C           0.2845    1.4068    0.4740 C.ar    1  UNL1       -0.0199
      3 C           1.0617    0.2660    0.6272 C.ar    1  UNL1        0.1169
      4 C           0.5003   -0.9936    0.4954 C.ar    1  UNL1       -0.0199
      5 C          -0.8667   -1.1100    0.2285 C.ar    1  UNL1       -0.0533
      6 C          -1.7096    0.0177    0.0943 C.ar    1  UNL1       -0.0257
      7 C          -3.2855   -0.1074   -0.1399 C.3     1  UNL1        0.0671
      8 H          -3.7214    0.8465   -0.4743 H       1  UNL1        0.0561
      9 C          -4.0930   -0.7619    1.0309 C.3     1  UNL1        0.0592
     10 H          -3.3929   -1.2625    1.7011 H       1  UNL1        0.0416
     11 C          -4.6436   -1.7122   -0.0479 C.2     1  UNL1        0.2255
     12 O          -5.5013   -2.5639   -0.0878 O.2     1  UNL1       -0.2749
     13 N          -3.7935   -1.2018   -0.9785 N.am    1  UNL1       -0.2630
     14 C          -3.7539   -1.3386   -2.3676 C.ar    1  UNL1        0.0371
     15 C          -2.7225   -0.7385   -3.1041 C.ar    1  UNL1       -0.0375
     16 C          -2.6865   -0.8475   -4.4964 C.ar    1  UNL1       -0.0247
     17 C          -3.6957   -1.5355   -5.1552 C.ar    1  UNL1        0.1235
     18 C          -4.7237   -2.1406   -4.4453 C.ar    1  UNL1       -0.0247
     19 C          -4.7369   -2.0628   -3.0507 C.ar    1  UNL1       -0.0375
     20 F          -3.6778   -1.6138   -6.4917 F       1  UNL1       -0.2055
     21 C          -5.1224    0.0796    1.7801 C.3     1  UNL1       -0.0372
     22 C          -5.8498   -0.6987    2.9026 C.3     1  UNL1       -0.0219
     23 C          -4.9279   -1.1492    4.0531 C.3     1  UNL1        0.0802
     24 H          -4.3307   -0.2865    4.3752 H       1  UNL1        0.0643
     25 C          -5.6190   -1.7731    5.2461 C.ar    1  UNL1       -0.0190
     26 C          -5.3721   -1.2810    6.5414 C.ar    1  UNL1       -0.0534
     27 C          -5.8674   -1.9497    7.6626 C.ar    1  UNL1       -0.0261
     28 C          -6.6101   -3.1122    7.4976 C.ar    1  UNL1        0.1234
     29 C          -6.8873   -3.6061    6.2303 C.ar    1  UNL1       -0.0261
     30 C          -6.3960   -2.9375    5.1063 C.ar    1  UNL1       -0.0534
     31 F          -7.0415   -3.7774    8.5773 F       1  UNL1       -0.2055
     32 O          -4.0378   -2.1534    3.5784 O.3     1  UNL1       -0.3872
     33 O           2.3905    0.3433    0.9178 O.3     1  UNL1       -0.5068
     34 H          -1.6820    2.1809    0.0986 H       1  UNL1        0.0622
     35 H           0.7160    2.3980    0.5625 H       1  UNL1        0.0654
     36 H           1.1177   -1.8828    0.6007 H       1  UNL1        0.0654
     37 H          -1.2936   -2.1083    0.1313 H       1  UNL1        0.0622
     38 H          -1.9145   -0.2048   -2.6131 H       1  UNL1        0.0637
     39 H          -1.8783   -0.4002   -5.0661 H       1  UNL1        0.0647
     40 H          -5.5094   -2.6676   -4.9771 H       1  UNL1        0.0647
     41 H          -5.5581   -2.5388   -2.5158 H       1  UNL1        0.0637
     42 H          -4.6356    0.9617    2.2124 H       1  UNL1        0.0274
     43 H          -5.8753    0.4541    1.0740 H       1  UNL1        0.0274
     44 H          -6.6297   -0.0417    3.3112 H       1  UNL1        0.0294
     45 H          -6.3586   -1.5624    2.4586 H       1  UNL1        0.0294
     46 H          -4.7619   -0.3921    6.6859 H       1  UNL1        0.0622
     47 H          -5.6504   -1.5912    8.6639 H       1  UNL1        0.0646
     48 H          -7.4532   -4.5261    6.1236 H       1  UNL1        0.0646
     49 H          -6.5705   -3.3620    4.1190 H       1  UNL1        0.0622
     50 H          -3.1677   -1.9790    3.9781 H       1  UNL1        0.2102
     51 H           2.6257    1.2745    1.0605 H       1  UNL1        0.2921
@<TRIPOS>BOND
     1     1     6   ar
     2     1     2   ar
     3     1    34    1
     4     2     3   ar
     5     2    35    1
     6     3     4   ar
     7     3    33    1
     8     4     5   ar
     9     4    36    1
    10     5     6   ar
    11     5    37    1
    12     6     7    1
    13     7     8    1
    14     7    13    1
    15     7     9    1
    16     9    10    1
    17     9    11    1
    18     9    21    1
    19    11    12    2
    20    11    13   am
    21    13    14    1
    22    14    19   ar
    23    14    15   ar
    24    15    16   ar
    25    15    38    1
    26    16    17   ar
    27    16    39    1
    28    17    18   ar
    29    17    20    1
    30    18    19   ar
    31    18    40    1
    32    19    41    1
    33    21    22    1
    34    21    42    1
    35    21    43    1
    36    22    23    1
    37    22    44    1
    38    22    45    1
    39    23    24    1
    40    23    25    1
    41    23    32    1
    42    25    30   ar
    43    25    26   ar
    44    26    27   ar
    45    26    46    1
    46    27    28   ar
    47    27    47    1
    48    28    29   ar
    49    28    31    1
    50    29    30   ar
    51    29    48    1
    52    30    49    1
    53    32    50    1
    54    33    51    1
