@<TRIPOS>MOLECULE
ZINC00389747
 46 50 0 0 0
SMALL
GASTEIGER

@<TRIPOS>ATOM
      1 C           4.1227   -4.0597    2.5781 C.2     1  UNL1       -0.0977
      2 C           3.8336   -3.0377    1.7420 C.2     1  UNL1       -0.0465
      3 C           3.2898   -3.2373    0.3753 C.3     1  UNL1       -0.0129
      4 N           1.9247   -2.6419    0.2568 N.4     1  UNL1        0.2425
      5 C           1.5244   -2.2517   -1.1469 C.3     1  UNL1       -0.0302
      6 C           0.1196   -2.6514   -1.5675 C.3     1  UNL1        0.0040
      7 C          -0.9292   -2.7750   -0.4352 C.3     1  UNL1        0.0820
      8 C          -1.2573   -4.2289   -0.3610 C.ar    1  UNL1        0.0146
      9 C          -0.5312   -5.1910    0.3073 C.ar    1  UNL1       -0.0343
     10 C          -0.9506   -6.5128    0.1905 C.ar    1  UNL1       -0.0544
     11 C          -2.0344   -6.8274   -0.6482 C.ar    1  UNL1       -0.0162
     12 C          -2.6930   -5.8223   -1.3624 C.ar    1  UNL1        0.1588
     13 C          -2.3398   -4.5136   -1.1575 C.ar    1  UNL1        0.1669
     14 O          -2.8788   -3.3739   -1.7039 O.3     1  UNL1       -0.4764
     15 C          -2.3331   -2.3097   -0.8670 C.3     1  UNL1        0.1704
     16 H          -2.2820   -1.3882   -1.4596 H       1  UNL1        0.0824
     17 C          -3.2809   -2.0162    0.3135 C.2     1  UNL1        0.1745
     18 O          -4.5038   -2.1069    0.2162 O.2     1  UNL1       -0.2934
     19 C          -2.6641   -1.4974    1.5934 C.3     1  UNL1        0.0124
     20 C          -1.4971   -2.3871    2.0174 C.3     1  UNL1       -0.0109
     21 C          -0.4079   -2.3398    0.9397 C.3     1  UNL1        0.1226
     22 C           0.8472   -3.2328    1.2004 C.3     1  UNL1        0.0139
     23 H           1.2289   -3.0285    2.2073 H       1  UNL1        0.0883
     24 C           0.7106   -4.7709    1.0161 C.3     1  UNL1        0.0187
     25 O           0.0642   -0.9671    0.8697 O.3     1  UNL1       -0.3819
     26 O          -3.5971   -6.1725   -2.3108 O.3     1  UNL1       -0.5033
     27 H           3.9568   -5.0952    2.3080 H       1  UNL1        0.0534
     28 H           4.5590   -3.8661    3.5561 H       1  UNL1        0.0534
     29 H           4.0085   -2.0223    2.0764 H       1  UNL1        0.0619
     30 H           3.2379   -4.2986    0.1009 H       1  UNL1        0.0861
     31 H           3.9319   -2.7539   -0.3667 H       1  UNL1        0.0861
     32 H           2.2595   -2.6595   -1.8499 H       1  UNL1        0.0815
     33 H           1.6182   -1.1579   -1.1885 H       1  UNL1        0.0815
     34 H          -0.2190   -1.9291   -2.3223 H       1  UNL1        0.0328
     35 H           0.2186   -3.5949   -2.1234 H       1  UNL1        0.0328
     36 H          -0.4245   -7.3171    0.7019 H       1  UNL1        0.0622
     37 H          -2.3457   -7.8628   -0.7602 H       1  UNL1        0.0655
     38 H          -2.3544   -0.4587    1.4271 H       1  UNL1        0.0344
     39 H          -3.4265   -1.4900    2.3789 H       1  UNL1        0.0344
     40 H          -1.8524   -3.4084    2.1920 H       1  UNL1        0.0299
     41 H          -1.1033   -2.0173    2.9718 H       1  UNL1        0.0299
     42 H           0.7643   -5.2607    1.9942 H       1  UNL1        0.0369
     43 H           1.5315   -5.1775    0.4207 H       1  UNL1        0.0369
     44 H           0.0060   -0.5553    1.7575 H       1  UNL1        0.2105
     45 H          -3.0691   -6.3688   -3.1065 H       1  UNL1        0.2923
     46 H           2.0221   -1.7064    0.6739 H       1  UNL1        0.2041
@<TRIPOS>UNITY_ATOM_ATTR
4 1
charge 1
@<TRIPOS>BOND
     1     1     2    2
     2     1    27    1
     3     1    28    1
     4     2     3    1
     5     2    29    1
     6     3     4    1
     7     3    30    1
     8     3    31    1
     9     4    22    1
    10     4     5    1
    11     4    46    1
    12     5     6    1
    13     5    32    1
    14     5    33    1
    15     6     7    1
    16     6    34    1
    17     6    35    1
    18     7    15    1
    19     7    21    1
    20     7     8    1
    21     8    13   ar
    22     8     9   ar
    23     9    24    1
    24     9    10   ar
    25    10    11   ar
    26    10    36    1
    27    11    12   ar
    28    11    37    1
    29    12    13   ar
    30    12    26    1
    31    13    14    1
    32    14    15    1
    33    15    16    1
    34    15    17    1
    35    17    18    2
    36    17    19    1
    37    19    20    1
    38    19    38    1
    39    19    39    1
    40    20    21    1
    41    20    40    1
    42    20    41    1
    43    21    22    1
    44    21    25    1
    45    22    23    1
    46    22    24    1
    47    24    42    1
    48    24    43    1
    49    25    44    1
    50    26    45    1
