@<TRIPOS>MOLECULE
ZINC03781664
 32 33 0 0 0
SMALL
GASTEIGER

@<TRIPOS>ATOM
      1 C           0.9492   -1.9400    5.4893 C.3     1  UNL1       -0.0605
      2 C           0.2383   -2.9854    4.6439 C.3     1  UNL1       -0.0154
      3 C          -1.2506   -2.7180    4.4546 C.3     1  UNL1       -0.0337
      4 N          -1.5326   -1.4368    3.7264 N.4     1  UNL1        0.2294
      5 C          -0.9376   -1.2243    2.3460 C.3     1  UNL1       -0.0177
      6 H           0.1514   -1.2103    2.4735 H       1  UNL1        0.0854
      7 C          -1.3442   -2.3745    1.4001 C.3     1  UNL1       -0.0040
      8 C          -0.7265   -2.1963    0.0029 C.3     1  UNL1       -0.0045
      9 C          -0.9264   -0.8066   -0.4840 C.ar    1  UNL1        0.0541
     10 C          -1.2060    0.2536    0.3489 C.ar    1  UNL1        0.0195
     11 S          -1.3740    1.6802   -0.5636 S.2     1  UNL1       -0.0571
     12 C          -1.0847    0.7767   -2.0035 C.ar    1  UNL1        0.1560
     13 N          -0.8436   -0.5013   -1.8191 N.ar    1  UNL1       -0.2298
     14 N          -1.1095    1.3480   -3.2130 N.pl3   1  UNL1       -0.3375
     15 C          -1.4006    0.1663    1.8216 C.3     1  UNL1        0.0235
     16 H           0.8586   -0.9379    5.0616 H       1  UNL1        0.0232
     17 H           2.0157   -2.1779    5.5561 H       1  UNL1        0.0232
     18 H           0.5441   -1.9217    6.5059 H       1  UNL1        0.0232
     19 H           0.7401   -3.0764    3.6750 H       1  UNL1        0.0314
     20 H           0.3507   -3.9587    5.1363 H       1  UNL1        0.0314
     21 H          -1.7342   -3.5258    3.8970 H       1  UNL1        0.0814
     22 H          -1.7563   -2.6316    5.4220 H       1  UNL1        0.0814
     23 H          -2.5576   -1.3512    3.6561 H       1  UNL1        0.2016
     24 H          -1.0203   -3.3451    1.7899 H       1  UNL1        0.0323
     25 H          -2.4385   -2.4090    1.3162 H       1  UNL1        0.0323
     26 H           0.3503   -2.4027    0.0483 H       1  UNL1        0.0330
     27 H          -1.1722   -2.9148   -0.6935 H       1  UNL1        0.0330
     28 H          -1.0124    2.3514   -3.2984 H       1  UNL1        0.1442
     29 H          -0.7207    0.8139   -3.9820 H       1  UNL1        0.1442
     30 H          -2.4655    0.3160    2.0425 H       1  UNL1        0.0374
     31 H          -0.8439    0.9566    2.3387 H       1  UNL1        0.0374
     32 H          -1.2445   -0.6558    4.3327 H       1  UNL1        0.2016
@<TRIPOS>UNITY_ATOM_ATTR
4 1
charge 1
@<TRIPOS>BOND
     1     1     2    1
     2     1    16    1
     3     1    17    1
     4     1    18    1
     5     2     3    1
     6     2    19    1
     7     2    20    1
     8     3     4    1
     9     3    21    1
    10     3    22    1
    11     4    23    1
    12     4    32    1
    13     5    15    1
    14     5     7    1
    15     7     8    1
    16     7    24    1
    17     7    25    1
    18     8     9    1
    19     8    26    1
    20     8    27    1
    21     9    13   ar
    22     9    10   ar
    23    10    11   ar
    24    10    15    1
    25    11    12   ar
    26    12    13   ar
    27    12    14    1
    28    14    28    1
    29    14    29    1
    30    15    30    1
    31    15    31    1
    32     5     6    1
    33     5     4    1
