@<TRIPOS>MOLECULE
ZINC01530688
 45 48 0 0 0
SMALL
GASTEIGER

@<TRIPOS>ATOM
      1 C           1.5320   -5.0631    3.8230 C.3     1  UNL1       -0.0449
      2 N           0.8442   -4.1619    2.8506 N.4     1  UNL1        0.2248
      3 C           1.1323   -2.7138    3.0647 C.3     1  UNL1       -0.0339
      4 C           0.4425   -1.8510    2.0102 C.3     1  UNL1       -0.0115
      5 C          -1.1038   -1.8836    2.0502 C.3     1  UNL1       -0.0345
      6 C          -1.8147   -0.9838    0.9963 C.3     1  UNL1        0.0214
      7 C          -1.3857    0.5237    1.1945 C.3     1  UNL1       -0.0385
      8 C          -2.0576    1.4644    0.1546 C.3     1  UNL1       -0.0411
      9 C          -2.9618    0.6417   -0.7762 C.3     1  UNL1        0.0098
     10 C          -2.0557   -0.4139   -1.4054 C.ar    1  UNL1       -0.0359
     11 C          -1.5150   -1.3441   -0.4766 C.ar    1  UNL1       -0.0331
     12 C          -0.8777   -2.4807   -0.9667 C.ar    1  UNL1       -0.0574
     13 C          -0.6381   -2.6046   -2.3371 C.ar    1  UNL1       -0.0615
     14 C          -1.0634   -1.6111   -3.2268 C.ar    1  UNL1       -0.0615
     15 C          -1.7970   -0.5228   -2.7662 C.ar    1  UNL1       -0.0577
     16 C          -3.9583   -0.0784    0.1381 C.ar    1  UNL1       -0.0359
     17 C          -3.3566   -0.9427    1.1018 C.ar    1  UNL1       -0.0331
     18 C          -4.1661   -1.6541    1.9840 C.ar    1  UNL1       -0.0574
     19 C          -5.5542   -1.5094    1.9021 C.ar    1  UNL1       -0.0615
     20 C          -6.1363   -0.6632    0.9478 C.ar    1  UNL1       -0.0615
     21 C          -5.3391    0.0590    0.0602 C.ar    1  UNL1       -0.0577
     22 H           2.5849   -4.7799    3.8789 H       1  UNL1        0.0777
     23 H           1.4303   -6.0842    3.4500 H       1  UNL1        0.0777
     24 H           1.0381   -4.9553    4.7906 H       1  UNL1        0.0777
     25 H           1.1292   -4.4294    1.8989 H       1  UNL1        0.2011
     26 H           0.8088   -2.4536    4.0783 H       1  UNL1        0.0814
     27 H           2.2182   -2.5927    2.9855 H       1  UNL1        0.0814
     28 H           0.7876   -0.8248    2.1742 H       1  UNL1        0.0317
     29 H           0.8189   -2.1430    1.0261 H       1  UNL1        0.0317
     30 H          -1.4513   -2.9175    1.9332 H       1  UNL1        0.0279
     31 H          -1.4136   -1.5682    3.0561 H       1  UNL1        0.0279
     32 H          -0.3018    0.6459    1.0951 H       1  UNL1        0.0277
     33 H          -1.6525    0.8634    2.2049 H       1  UNL1        0.0277
     34 H          -1.2817    1.9837   -0.4221 H       1  UNL1        0.0275
     35 H          -2.6359    2.2380    0.6753 H       1  UNL1        0.0275
     36 H          -3.4617    1.2599   -1.5269 H       1  UNL1        0.0397
     37 H          -0.5765   -3.2920   -0.3152 H       1  UNL1        0.0621
     38 H          -0.1268   -3.4810   -2.7245 H       1  UNL1        0.0618
     39 H          -0.8499   -1.7102   -4.2891 H       1  UNL1        0.0618
     40 H          -2.1730    0.2183   -3.4673 H       1  UNL1        0.0621
     41 H          -3.7530   -2.3217    2.7316 H       1  UNL1        0.0621
     42 H          -6.1990   -2.0629    2.5815 H       1  UNL1        0.0618
     43 H          -7.2189   -0.5716    0.8971 H       1  UNL1        0.0618
     44 H          -5.7978    0.7071   -0.6804 H       1  UNL1        0.0621
     45 H          -0.1662   -4.3409    2.9085 H       1  UNL1        0.2011
@<TRIPOS>UNITY_ATOM_ATTR
2 1
charge 1
@<TRIPOS>BOND
     1     1     2    1
     2     1    22    1
     3     1    23    1
     4     1    24    1
     5     2     3    1
     6     2    25    1
     7     2    45    1
     8     3     4    1
     9     3    26    1
    10     3    27    1
    11     4     5    1
    12     4    28    1
    13     4    29    1
    14     5    30    1
    15     5    31    1
    16     6     5    1
    17     6    11    1
    18     6    17    1
    19     6     7    1
    20     7     8    1
    21     7    32    1
    22     7    33    1
    23     8     9    1
    24     8    34    1
    25     8    35    1
    26     9    10    1
    27     9    16    1
    28     9    36    1
    29    10    15   ar
    30    10    11   ar
    31    11    12   ar
    32    12    13   ar
    33    12    37    1
    34    13    14   ar
    35    13    38    1
    36    14    15   ar
    37    14    39    1
    38    15    40    1
    39    16    21   ar
    40    16    17   ar
    41    17    18   ar
    42    18    19   ar
    43    18    41    1
    44    19    20   ar
    45    19    42    1
    46    20    21   ar
    47    20    43    1
    48    21    44    1
