@<TRIPOS>MOLECULE
ZINC00004413
 41 41 0 0 0
SMALL
GASTEIGER

@<TRIPOS>ATOM
      1 C           5.9477  -10.4777   -0.0569 C.3     1  UNL1       -0.0492
      2 C           6.2414   -9.4780    1.0490 C.3     1  UNL1        0.0147
      3 N           7.4828   -8.7430    0.8325 N.am    1  UNL1       -0.2704
      4 C           8.7303   -9.3474    1.2748 C.3     1  UNL1        0.0063
      5 C           7.4685   -7.6104    0.0229 C.2     1  UNL1        0.4079
      6 O           6.4484   -7.1734   -0.4991 O.2     1  UNL1       -0.2258
      7 O           8.7269   -7.0190   -0.0937 O.3     1  UNL1       -0.4114
      8 C           8.8724   -5.8507   -0.8680 C.ar    1  UNL1        0.1337
      9 C          10.0415   -5.7471   -1.6154 C.ar    1  UNL1       -0.0192
     10 C          10.2478   -4.6212   -2.4068 C.ar    1  UNL1       -0.0578
     11 C           9.2922   -3.6013   -2.4379 C.ar    1  UNL1       -0.0530
     12 C           8.1309   -3.6677   -1.6428 C.ar    1  UNL1        0.0034
     13 C           7.9442   -4.8031   -0.8387 C.ar    1  UNL1       -0.0107
     14 C           7.2311   -2.4425   -1.5659 C.3     1  UNL1        0.0017
     15 H           7.2848   -1.8997   -2.5181 H       1  UNL1        0.0901
     16 C           7.7840   -1.5635   -0.4346 C.3     1  UNL1       -0.0172
     17 N           5.7342   -2.6978   -1.3405 N.4     1  UNL1        0.2361
     18 C           4.9201   -1.4254   -1.2801 C.3     1  UNL1       -0.0428
     19 C           5.1264   -3.6305   -2.3647 C.3     1  UNL1       -0.0428
     20 H           5.8980   -9.9860   -1.0340 H       1  UNL1        0.0245
     21 H           4.9857  -10.9674    0.1258 H       1  UNL1        0.0245
     22 H           6.7212  -11.2498   -0.1080 H       1  UNL1        0.0245
     23 H           5.4174   -8.7581    1.1040 H       1  UNL1        0.0463
     24 H           6.2908   -9.9800    2.0217 H       1  UNL1        0.0463
     25 H           9.3211   -9.6358    0.4004 H       1  UNL1        0.0429
     26 H           9.2949   -8.6158    1.8591 H       1  UNL1        0.0429
     27 H           8.5406  -10.2281    1.8952 H       1  UNL1        0.0429
     28 H          10.7934   -6.5316   -1.5772 H       1  UNL1        0.0654
     29 H          11.1643   -4.5278   -2.9866 H       1  UNL1        0.0619
     30 H           9.4962   -2.7275   -3.0564 H       1  UNL1        0.0622
     31 H           7.0895   -4.8810   -0.1746 H       1  UNL1        0.0659
     32 H           7.3078   -0.5811   -0.3985 H       1  UNL1        0.0288
     33 H           7.6599   -2.0458    0.5420 H       1  UNL1        0.0288
     34 H           8.8558   -1.3775   -0.5729 H       1  UNL1        0.0288
     35 H           5.1021   -0.8495   -2.1921 H       1  UNL1        0.0778
     36 H           3.8622   -1.6912   -1.1960 H       1  UNL1        0.0778
     37 H           5.2060   -0.8630   -0.3893 H       1  UNL1        0.0778
     38 H           5.6103   -4.6046   -2.2986 H       1  UNL1        0.0778
     39 H           4.0647   -3.7453   -2.1233 H       1  UNL1        0.0778
     40 H           5.2499   -3.1850   -3.3548 H       1  UNL1        0.0778
     41 H           5.6396   -3.1630   -0.4304 H       1  UNL1        0.2034
@<TRIPOS>UNITY_ATOM_ATTR
17 1
charge 1
@<TRIPOS>BOND
     1     1     2    1
     2     1    20    1
     3     1    21    1
     4     1    22    1
     5     2     3    1
     6     2    23    1
     7     2    24    1
     8     3     4    1
     9     3     5   am
    10     4    25    1
    11     4    26    1
    12     4    27    1
    13     5     6    2
    14     5     7    1
    15     7     8    1
    16     8    13   ar
    17     8     9   ar
    18     9    10   ar
    19     9    28    1
    20    10    11   ar
    21    10    29    1
    22    11    12   ar
    23    11    30    1
    24    12    13   ar
    25    13    31    1
    26    14    16    1
    27    14    17    1
    28    16    32    1
    29    16    33    1
    30    16    34    1
    31    17    18    1
    32    17    19    1
    33    17    41    1
    34    18    35    1
    35    18    36    1
    36    18    37    1
    37    19    38    1
    38    19    39    1
    39    19    40    1
    40    14    15    1
    41    14    12    1
