@<TRIPOS>MOLECULE
ZINC03871541
 23 25 0 0 0
SMALL
GASTEIGER

@<TRIPOS>ATOM
      1 C          -2.0961    1.4040   -0.0045 C.ar    1  UNL1       -0.0234
      2 C          -3.3302    0.7534   -0.0049 C.ar    1  UNL1       -0.0389
      3 C          -3.3880   -0.6413   -0.0032 C.ar    1  UNL1        0.0598
      4 C          -2.2046   -1.3940   -0.0010 C.ar    1  UNL1        0.0683
      5 C          -0.9553   -0.7415   -0.0027 C.ar    1  UNL1        0.0402
      6 C          -0.9066    0.6683   -0.0008 C.ar    1  UNL1        0.0989
      7 N           0.3278    1.3269   -0.0035 N.pl3   1  UNL1       -0.2072
      8 C           1.5143    0.6788   -0.0153 C.2     1  UNL1        0.3703
      9 N           2.6976    1.2202    0.0142 N.am    1  UNL1       -0.0049
     10 C           3.6031    0.1649    0.0013 C.2     1  UNL1        0.3408
     11 O           4.8224    0.2666    0.0095 O.2     1  UNL1       -0.2508
     12 C           2.8459   -1.1732   -0.0113 C.3     1  UNL1        0.1549
     13 N           1.4910   -0.6755   -0.0658 N.pl3   1  UNL1       -0.2118
     14 C           0.3376   -1.5261    0.0148 C.3     1  UNL1        0.0907
     15 CL         -2.2641   -3.1299    0.0083 Cl      1  UNL1       -0.0815
     16 CL         -4.9556   -1.3714   -0.0014 Cl      1  UNL1       -0.0820
     17 H          -2.0729    2.4916   -0.0058 H       1  UNL1        0.0651
     18 H          -4.2453    1.3415   -0.0056 H       1  UNL1        0.0634
     19 H           0.3548    2.3358    0.0239 H       1  UNL1        0.2510
     20 H           3.1037   -1.7492   -0.9026 H       1  UNL1        0.0749
     21 H           3.0447   -1.7233    0.9119 H       1  UNL1        0.0749
     22 H           0.3871   -2.1108    0.9406 H       1  UNL1        0.0687
     23 H           0.3559   -2.2128   -0.8390 H       1  UNL1        0.0687
@<TRIPOS>BOND
     1     1     6   ar
     2     1     2   ar
     3     1    17    1
     4     2     3   ar
     5     2    18    1
     6     3     4   ar
     7     3    16    1
     8     4     5   ar
     9     4    15    1
    10     5    14    1
    11     5     6   ar
    12     6     7    1
    13     7     8    1
    14     7    19    1
    15     8    13    1
    16     8     9    2
    17     9    10    1
    18    10    11    2
    19    10    12    1
    20    12    13    1
    21    12    20    1
    22    12    21    1
    23    13    14    1
    24    14    22    1
    25    14    23    1
