@<TRIPOS>MOLECULE
ZINC00006226
 19 19 0 0 0
SMALL
GASTEIGER

@<TRIPOS>ATOM
      1 C           1.2405    0.0318    0.0023 C.3     1  UNL1       -0.0206
      2 C           0.6782   -0.5819    1.2634 C.ar    1  UNL1        0.0610
      3 C           1.0288   -1.8614    1.5271 C.ar    1  UNL1        0.1831
      4 C           0.5159   -2.5286    2.7565 C.ar    1  UNL1        0.2231
      5 O           0.8234   -3.6935    3.0019 O.2     1  UNL1       -0.2839
      6 C          -0.3531   -1.7468    3.6510 C.ar    1  UNL1        0.0049
      7 C          -0.6343   -0.4924    3.2878 C.ar    1  UNL1        0.0083
      8 N          -0.1822    0.1389    2.1285 N.ar    1  UNL1       -0.3506
      9 C          -0.5743    1.5409    1.9282 C.3     1  UNL1        0.0117
     10 O           1.8576   -2.6071    0.7043 O.3     1  UNL1       -0.5021
     11 H           0.9836    1.0777   -0.1543 H       1  UNL1        0.0293
     12 H           0.8825   -0.5182   -0.8758 H       1  UNL1        0.0293
     13 H           2.3358   -0.0118    0.0157 H       1  UNL1        0.0293
     14 H          -0.7190   -2.2114    4.5548 H       1  UNL1        0.0671
     15 H          -1.2671    0.1263    3.9196 H       1  UNL1        0.0810
     16 H          -1.6498    1.6587    2.1075 H       1  UNL1        0.0456
     17 H          -0.0378    2.1818    2.6368 H       1  UNL1        0.0456
     18 H          -0.3975    1.9204    0.9218 H       1  UNL1        0.0456
     19 H           1.9224   -3.4792    1.1488 H       1  UNL1        0.2924
@<TRIPOS>BOND
     1     1     2    1
     2     1    11    1
     3     1    12    1
     4     1    13    1
     5     2     8   ar
     6     2     3   ar
     7     3     4   ar
     8     3    10    1
     9     4     5    2
    10     4     6   ar
    11     6     7   ar
    12     6    14    1
    13     7     8   ar
    14     7    15    1
    15     8     9    1
    16     9    16    1
    17     9    17    1
    18     9    18    1
    19    10    19    1
