@<TRIPOS>MOLECULE
ZINC00538337
 58 62 0 0 0
SMALL
GASTEIGER

@<TRIPOS>ATOM
      1 C         -12.5378   -0.7325   -0.5204 C.ar    1  UNL1       -0.0351
      2 C         -13.9013   -0.9267   -0.3126 C.ar    1  UNL1       -0.0245
      3 C         -14.3906   -1.0230    0.9849 C.ar    1  UNL1        0.1235
      4 C         -13.5460   -0.9381    2.0829 C.ar    1  UNL1       -0.0245
      5 C         -12.1784   -0.7428    1.8803 C.ar    1  UNL1       -0.0351
      6 C         -11.6690   -0.6234    0.5740 C.ar    1  UNL1        0.0468
      7 N         -10.2703   -0.4229    0.3740 N.ar    1  UNL1       -0.3156
      8 C          -9.2991   -0.9005    1.2320 C.ar    1  UNL1        0.0144
      9 C          -8.0507   -0.5967    0.7373 C.ar    1  UNL1       -0.0183
     10 C          -8.2610    0.1725   -0.4468 C.ar    1  UNL1        0.0050
     11 C          -9.6400    0.2672   -0.6623 C.ar    1  UNL1        0.0541
     12 C         -10.1468    1.0315   -1.7383 C.ar    1  UNL1       -0.0359
     13 C          -9.2516    1.6571   -2.6143 C.ar    1  UNL1       -0.0414
     14 C          -7.8857    1.5597   -2.4091 C.ar    1  UNL1        0.0417
     15 C          -7.3750    0.8280   -1.3372 C.ar    1  UNL1       -0.0339
     16 CL         -6.8002    2.3813   -3.4622 Cl      1  UNL1       -0.0835
     17 C          -6.7299   -0.9380    1.3499 C.3     1  UNL1       -0.0043
     18 C          -6.5373   -0.2327    2.6895 C.3     1  UNL1       -0.0055
     19 C          -5.1070   -0.4116    3.1586 C.3     1  UNL1       -0.0313
     20 N          -4.7467   -1.8680    3.2393 N.4     1  UNL1        0.2364
     21 C          -5.0745   -2.6834    2.0074 C.3     1  UNL1       -0.0313
     22 C          -6.5061   -2.4379    1.5504 C.3     1  UNL1       -0.0055
     23 C          -3.3044   -2.1196    3.6772 C.3     1  UNL1       -0.0157
     24 C          -2.9656   -1.5574    5.0759 C.3     1  UNL1        0.0563
     25 N          -3.8057   -1.9845    6.1877 N.am    1  UNL1       -0.2791
     26 C          -3.5868   -1.5104    7.5458 C.3     1  UNL1        0.0319
     27 C          -4.9437   -1.7630    8.1919 C.3     1  UNL1        0.0289
     28 N          -5.4591   -2.8622    7.4182 N.am    1  UNL1       -0.2977
     29 C          -4.8689   -2.8757    6.1741 C.2     1  UNL1        0.3025
     30 O          -5.2996   -3.4643    5.1966 O.2     1  UNL1       -0.2526
     31 F         -15.7036   -1.2177    1.1815 F       1  UNL1       -0.2055
     32 H         -12.1755   -0.7258   -1.5431 H       1  UNL1        0.0639
     33 H         -14.5840   -1.0174   -1.1454 H       1  UNL1        0.0647
     34 H         -13.9576   -1.0210    3.0842 H       1  UNL1        0.0647
     35 H         -11.5431   -0.6488    2.7553 H       1  UNL1        0.0639
     36 H          -9.5710   -1.4695    2.1109 H       1  UNL1        0.0816
     37 H         -11.2097    1.1739   -1.8955 H       1  UNL1        0.0639
     38 H          -9.6422    2.2390   -3.4457 H       1  UNL1        0.0633
     39 H          -6.3026    0.7876   -1.1816 H       1  UNL1        0.0639
     40 H          -5.9491   -0.5839    0.6639 H       1  UNL1        0.0353
     41 H          -6.7618    0.8373    2.5966 H       1  UNL1        0.0323
     42 H          -7.2331   -0.6321    3.4403 H       1  UNL1        0.0323
     43 H          -4.4020    0.0649    2.4692 H       1  UNL1        0.0815
     44 H          -4.9954    0.0235    4.1553 H       1  UNL1        0.0815
     45 H          -4.9348   -3.7387    2.2688 H       1  UNL1        0.0815
     46 H          -4.3559   -2.4031    1.2312 H       1  UNL1        0.0815
     47 H          -7.2103   -2.8422    2.2893 H       1  UNL1        0.0323
     48 H          -6.6871   -2.9840    0.6164 H       1  UNL1        0.0323
     49 H          -3.1540   -3.2050    3.6687 H       1  UNL1        0.0830
     50 H          -2.6590   -1.6672    2.9162 H       1  UNL1        0.0830
     51 H          -1.9302   -1.8188    5.3232 H       1  UNL1        0.0518
     52 H          -3.0140   -0.4626    5.0544 H       1  UNL1        0.0518
     53 H          -2.8045   -2.1271    8.0028 H       1  UNL1        0.0480
     54 H          -3.2966   -0.4570    7.5628 H       1  UNL1        0.0480
     55 H          -4.9069   -2.0026    9.2536 H       1  UNL1        0.0478
     56 H          -5.6101   -0.9103    8.0206 H       1  UNL1        0.0478
     57 H          -6.3805   -3.2674    7.5358 H       1  UNL1        0.1503
     58 H          -5.3165   -2.3135    3.9862 H       1  UNL1        0.2034
@<TRIPOS>UNITY_ATOM_ATTR
20 1
charge 1
@<TRIPOS>BOND
     1     1     6   ar
     2     1     2   ar
     3     1    32    1
     4     2     3   ar
     5     2    33    1
     6     3     4   ar
     7     3    31    1
     8     4     5   ar
     9     4    34    1
    10     5     6   ar
    11     5    35    1
    12     6     7    1
    13     7    11   ar
    14     7     8   ar
    15     8     9   ar
    16     8    36    1
    17     9    10   ar
    18    10    15   ar
    19    10    11   ar
    20    11    12   ar
    21    12    13   ar
    22    12    37    1
    23    13    14   ar
    24    13    38    1
    25    14    15   ar
    26    14    16    1
    27    15    39    1
    28    17    22    1
    29    17    18    1
    30    18    19    1
    31    18    41    1
    32    18    42    1
    33    19    20    1
    34    19    43    1
    35    19    44    1
    36    20    21    1
    37    21    22    1
    38    21    45    1
    39    21    46    1
    40    22    47    1
    41    22    48    1
    42    23    24    1
    43    23    49    1
    44    23    50    1
    45    24    25    1
    46    24    51    1
    47    24    52    1
    48    25    29   am
    49    25    26    1
    50    26    27    1
    51    26    53    1
    52    26    54    1
    53    27    28    1
    54    27    55    1
    55    27    56    1
    56    28    29   am
    57    28    57    1
    58    29    30    2
    59    17    40    1
    60    17     9    1
    61    20    58    1
    62    20    23    1
