@<TRIPOS>MOLECULE
ZINC01482184
 20 21 0 0 0
SMALL
GASTEIGER

@<TRIPOS>ATOM
      1 C          -3.0543   -0.0069    0.0164 C.3     1  UNL1        0.0370
      2 N          -1.6292    0.2408    0.0073 N.ar    1  UNL1       -0.1987
      3 C          -0.7617   -0.8363    0.0015 C.ar    1  UNL1        0.3532
      4 O          -1.0196   -2.0314    0.0004 O.2     1  UNL1       -0.2443
      5 N           0.5514   -0.4112   -0.0025 N.ar    1  UNL1       -0.2319
      6 C           1.6964   -1.1644   -0.0070 C.ar    1  UNL1        0.1070
      7 N           2.7765   -0.4127   -0.0080 N.ar    1  UNL1       -0.2283
      8 C           2.3010    0.8980   -0.0037 C.ar    1  UNL1        0.1713
      9 C           0.9178    0.9034   -0.0004 C.ar    1  UNL1        0.1971
     10 N          -0.0305    1.8636    0.0050 N.ar    1  UNL1       -0.1102
     11 N          -1.2455    1.5606    0.0099 N.ar    1  UNL1       -0.0597
     12 C           3.1740    2.0654   -0.0019 C.2     1  UNL1        0.2636
     13 O           2.7848    3.2266    0.0012 O.2     1  UNL1       -0.2686
     14 N           4.5057    1.7654   -0.0030 N.am    1  UNL1       -0.3240
     15 H          -3.3198   -0.5983   -0.8651 H       1  UNL1        0.0475
     16 H          -3.3109   -0.5783    0.9136 H       1  UNL1        0.0475
     17 H          -3.6113    0.9343    0.0084 H       1  UNL1        0.0475
     18 H           1.6705   -2.2472   -0.0087 H       1  UNL1        0.1034
     19 H           4.8084    0.7987   -0.0035 H       1  UNL1        0.1453
     20 H           5.1761    2.5188    0.0007 H       1  UNL1        0.1453
@<TRIPOS>BOND
     1     1     2    1
     2     1    15    1
     3     1    16    1
     4     1    17    1
     5     2    11   ar
     6     2     3   ar
     7     3     4    2
     8     3     5   ar
     9     5     9   ar
    10     5     6   ar
    11     6     7   ar
    12     6    18    1
    13     7     8   ar
    14     8     9   ar
    15     8    12    1
    16     9    10   ar
    17    10    11   ar
    18    12    13    2
    19    12    14   am
    20    14    19    1
    21    14    20    1
