@<TRIPOS>MOLECULE
ZINC01530706
 51 52 0 0 0
SMALL
GASTEIGER

@<TRIPOS>ATOM
      1 C          -1.0427   -3.0779   -2.3874 C.3     1  UNL1       -0.0585
      2 C           0.0624   -2.4750   -1.5355 C.3     1  UNL1        0.0042
      3 C           0.9374   -1.4332   -2.2496 C.2     1  UNL1        0.1480
      4 O           0.3965   -0.4743   -2.8252 O.2     1  UNL1       -0.2961
      5 C           2.4998   -1.5853   -2.2413 C.3     1  UNL1        0.0837
      6 C           3.1414   -0.3513   -3.0381 C.3     1  UNL1        0.0105
      7 C           2.8706    1.1278   -2.6685 C.3     1  UNL1       -0.0227
      8 H           1.8015    1.3500   -2.6645 H       1  UNL1        0.0849
      9 C           3.4500    1.6173   -1.3469 C.3     1  UNL1       -0.0215
     10 C           4.9189    1.9954   -4.0631 C.3     1  UNL1       -0.0431
     11 C           2.6408    2.0256   -5.0795 C.3     1  UNL1       -0.0431
     12 C           3.1501   -1.6560   -0.8195 C.ar    1  UNL1       -0.0296
     13 C           4.5535   -1.7977   -0.7071 C.ar    1  UNL1       -0.0573
     14 C           5.1791   -2.0278    0.5240 C.ar    1  UNL1       -0.0615
     15 C           4.4189   -2.1444    1.6795 C.ar    1  UNL1       -0.0617
     16 C           3.0409   -1.9879    1.6090 C.ar    1  UNL1       -0.0615
     17 C           2.4207   -1.7155    0.3822 C.ar    1  UNL1       -0.0573
     18 C           2.8094   -2.9093   -3.0504 C.ar    1  UNL1       -0.0296
     19 C           2.9397   -4.1511   -2.3915 C.ar    1  UNL1       -0.0573
     20 C           3.1981   -5.3321   -3.0951 C.ar    1  UNL1       -0.0615
     21 C           3.3371   -5.3110   -4.4757 C.ar    1  UNL1       -0.0617
     22 C           3.1923   -4.1112   -5.1579 C.ar    1  UNL1       -0.0615
     23 C           2.9115   -2.9325   -4.4573 C.ar    1  UNL1       -0.0573
     24 H          -1.9935   -2.5695   -2.1888 H       1  UNL1        0.0234
     25 H          -1.1919   -4.1338   -2.1200 H       1  UNL1        0.0234
     26 H          -0.8366   -3.0194   -3.4593 H       1  UNL1        0.0234
     27 H          -0.3959   -1.9963   -0.6709 H       1  UNL1        0.0339
     28 H           0.6851   -3.2937   -1.1625 H       1  UNL1        0.0339
     29 H           4.2237   -0.5092   -3.0950 H       1  UNL1        0.0336
     30 H           2.7794   -0.4193   -4.0629 H       1  UNL1        0.0336
     31 H           4.5308    1.4641   -1.2862 H       1  UNL1        0.0284
     32 H           3.2581    2.6910   -1.2204 H       1  UNL1        0.0284
     33 H           2.9802    1.1153   -0.4992 H       1  UNL1        0.0284
     34 H           5.2074    0.9612   -4.2565 H       1  UNL1        0.0777
     35 H           5.1442    2.6083   -4.9421 H       1  UNL1        0.0777
     36 H           5.4463    2.4050   -3.1989 H       1  UNL1        0.0777
     37 H           1.5848    2.1584   -4.8340 H       1  UNL1        0.0777
     38 H           2.9768    2.8554   -5.7097 H       1  UNL1        0.0777
     39 H           2.8242    1.0742   -5.5836 H       1  UNL1        0.0777
     40 H           5.1877   -1.7992   -1.5903 H       1  UNL1        0.0621
     41 H           6.2579   -2.1600    0.5733 H       1  UNL1        0.0618
     42 H           4.8942   -2.3705    2.6321 H       1  UNL1        0.0618
     43 H           2.4389   -2.1017    2.5102 H       1  UNL1        0.0618
     44 H           1.3450   -1.5988    0.4254 H       1  UNL1        0.0621
     45 H           2.8414   -4.2327   -1.3103 H       1  UNL1        0.0621
     46 H           3.2907   -6.2739   -2.5583 H       1  UNL1        0.0618
     47 H           3.5454   -6.2278   -5.0218 H       1  UNL1        0.0618
     48 H           3.2860   -4.0921   -6.2424 H       1  UNL1        0.0618
     49 H           2.7714   -2.0524   -5.0748 H       1  UNL1        0.0621
     50 N           3.4352    2.0724   -3.7961 N.4     1  UNL1        0.2329
     51 H           3.2746    3.0263   -3.4442 H       1  UNL1        0.2030
@<TRIPOS>UNITY_ATOM_ATTR
50 1
charge 1
@<TRIPOS>BOND
     1     1     2    1
     2     1    24    1
     3     1    25    1
     4     1    26    1
     5     2     3    1
     6     2    27    1
     7     2    28    1
     8     3     4    2
     9     3     5    1
    10     5     6    1
    11     5    12    1
    12     5    18    1
    13     6     7    1
    14     6    29    1
    15     6    30    1
    16     7     8    1
    17     7     9    1
    18     7    50    1
    19     9    31    1
    20     9    32    1
    21     9    33    1
    22    10    34    1
    23    10    35    1
    24    10    36    1
    25    10    50    1
    26    11    37    1
    27    11    38    1
    28    11    39    1
    29    11    50    1
    30    12    17   ar
    31    12    13   ar
    32    13    14   ar
    33    13    40    1
    34    14    15   ar
    35    14    41    1
    36    15    16   ar
    37    15    42    1
    38    16    17   ar
    39    16    43    1
    40    17    44    1
    41    18    23   ar
    42    18    19   ar
    43    19    20   ar
    44    19    45    1
    45    20    21   ar
    46    20    46    1
    47    21    22   ar
    48    21    47    1
    49    22    23   ar
    50    22    48    1
    51    23    49    1
    52    50    51    1
