@<TRIPOS>MOLECULE
ZINC01482077
 69 72 0 0 0
SMALL
GASTEIGER

@<TRIPOS>ATOM
      1 C          -7.7134    0.5729   -1.8312 C.3     1  UNL1       -0.0474
      2 C          -7.8712   -0.8772   -2.3435 C.3     1  UNL1        0.0675
      3 C          -7.7042   -0.9447   -3.8623 C.ar    1  UNL1       -0.0206
      4 C          -8.6733   -0.4444   -4.7396 C.ar    1  UNL1       -0.0534
      5 C          -8.4816   -0.5048   -6.1256 C.ar    1  UNL1       -0.0196
      6 C          -7.3137   -1.0512   -6.6605 C.ar    1  UNL1        0.1208
      7 C          -6.3404   -1.5542   -5.8032 C.ar    1  UNL1       -0.0075
      8 C          -6.5369   -1.5014   -4.4210 C.ar    1  UNL1        0.0449
      9 C          -5.4386   -1.9483   -3.5279 C.2     1  UNL1        0.2533
     10 O          -4.5492   -2.6906   -3.9163 O.2     1  UNL1       -0.2696
     11 N          -5.5309   -1.3982   -2.2723 N.am    1  UNL1       -0.2371
     12 C          -6.7323   -1.6178   -1.6305 C.2     1  UNL1        0.2320
     13 O          -6.8468   -2.1798   -0.5449 O.2     1  UNL1       -0.2742
     14 C          -4.3599   -1.1149   -1.4743 C.3     1  UNL1        0.0266
     15 C          -3.1346   -0.6422   -2.2684 C.3     1  UNL1       -0.0113
     16 C          -3.3425    0.4237   -3.3298 C.ar    1  UNL1       -0.0458
     17 C          -2.8756    0.1924   -4.6369 C.ar    1  UNL1       -0.0567
     18 C          -2.8674    1.2135   -5.5906 C.ar    1  UNL1       -0.0346
     19 C          -3.3385    2.4815   -5.2460 C.ar    1  UNL1        0.1125
     20 C          -3.8793    2.7064   -3.9775 C.ar    1  UNL1       -0.0346
     21 C          -3.8919    1.6773   -3.0266 C.ar    1  UNL1       -0.0567
     22 S          -3.0121    3.8639   -6.3486 S.O2    1  UNL1        0.0993
     23 O          -2.9263    5.0652   -5.5297 O.2     1  UNL1       -0.1463
     24 O          -1.7987    3.4771   -7.0667 O.2     1  UNL1       -0.1463
     25 N          -4.2100    3.9280   -7.4307 N.2     1  UNL1       -0.1295
     26 C          -5.4405    4.0958   -7.0840 C.2     1  UNL1        0.0684
     27 O          -6.0237    4.2230   -6.0025 O.co2   1  UNL1       -0.8484
     28 N          -6.4722    4.1407   -7.9609 N.pl3   1  UNL1       -0.3365
     29 C          -6.3907    4.5097   -9.3545 C.3     1  UNL1        0.0210
     30 C          -7.4151    3.6451  -10.1016 C.3     1  UNL1       -0.0346
     31 C          -7.6064    4.0686  -11.5514 C.3     1  UNL1       -0.0514
     32 C          -7.9426    5.5505  -11.6581 C.3     1  UNL1       -0.0529
     33 C          -6.8749    6.4038  -10.9821 C.3     1  UNL1       -0.0514
     34 C          -6.6868    6.0068   -9.5189 C.3     1  UNL1       -0.0346
     35 O          -7.0329   -1.1768   -7.9930 O.3     1  UNL1       -0.4951
     36 C          -7.7001   -0.2615   -8.8541 C.3     1  UNL1        0.0788
     37 C          -9.2375   -1.4247   -1.9042 C.3     1  UNL1       -0.0474
     38 H          -6.7545    1.0077   -2.1376 H       1  UNL1        0.0243
     39 H          -7.7275    0.5956   -0.7325 H       1  UNL1        0.0243
     40 H          -8.5057    1.2330   -2.1924 H       1  UNL1        0.0243
     41 H          -9.5830    0.0150   -4.3611 H       1  UNL1        0.0622
     42 H          -9.2645   -0.1098   -6.7641 H       1  UNL1        0.0654
     43 H          -5.4083   -1.9374   -6.2122 H       1  UNL1        0.0662
     44 H          -4.6632   -0.3090   -0.7905 H       1  UNL1        0.0473
     45 H          -4.1172   -1.9772   -0.8440 H       1  UNL1        0.0473
     46 H          -2.3956   -0.2496   -1.5591 H       1  UNL1        0.0329
     47 H          -2.6608   -1.5197   -2.7241 H       1  UNL1        0.0329
     48 H          -2.4780   -0.7820   -4.9151 H       1  UNL1        0.0621
     49 H          -2.4532    1.0349   -6.5794 H       1  UNL1        0.0637
     50 H          -4.2725    3.6915   -3.7282 H       1  UNL1        0.0637
     51 H          -4.2965    1.8899   -2.0414 H       1  UNL1        0.0621
     52 H          -7.2964    4.4368   -7.4506 H       1  UNL1        0.1467
     53 H          -5.3943    4.2948   -9.7609 H       1  UNL1        0.0497
     54 H          -7.0973    2.5962  -10.0707 H       1  UNL1        0.0283
     55 H          -8.3849    3.6878   -9.5870 H       1  UNL1        0.0283
     56 H          -8.4097    3.4738  -12.0007 H       1  UNL1        0.0266
     57 H          -6.6929    3.8557  -12.1192 H       1  UNL1        0.0266
     58 H          -8.9164    5.7412  -11.1896 H       1  UNL1        0.0265
     59 H          -8.0337    5.8332  -12.7125 H       1  UNL1        0.0265
     60 H          -7.1569    7.4611  -11.0443 H       1  UNL1        0.0266
     61 H          -5.9244    6.2941  -11.5182 H       1  UNL1        0.0266
     62 H          -7.5937    6.2753   -8.9608 H       1  UNL1        0.0283
     63 H          -5.8730    6.5991   -9.0823 H       1  UNL1        0.0283
     64 H          -8.7742   -0.4682   -8.8935 H       1  UNL1        0.0660
     65 H          -7.5069    0.7744   -8.5591 H       1  UNL1        0.0660
     66 H          -7.3054   -0.4078   -9.8644 H       1  UNL1        0.0660
     67 H          -9.3021   -1.5494   -0.8178 H       1  UNL1        0.0243
     68 H         -10.0494   -0.7473   -2.1950 H       1  UNL1        0.0243
     69 H          -9.4417   -2.3997   -2.3614 H       1  UNL1        0.0243
@<TRIPOS>UNITY_ATOM_ATTR
27 1
charge -1
@<TRIPOS>BOND
     1     1     2    1
     2     1    38    1
     3     1    39    1
     4     1    40    1
     5     2    12    1
     6     2     3    1
     7     2    37    1
     8     3     8   ar
     9     3     4   ar
    10     4     5   ar
    11     4    41    1
    12     5     6   ar
    13     5    42    1
    14     6     7   ar
    15     6    35    1
    16     7     8   ar
    17     7    43    1
    18     8     9    1
    19     9    10    2
    20     9    11   am
    21    11    12   am
    22    11    14    1
    23    12    13    2
    24    14    15    1
    25    14    44    1
    26    14    45    1
    27    15    16    1
    28    15    46    1
    29    15    47    1
    30    16    21   ar
    31    16    17   ar
    32    17    18   ar
    33    17    48    1
    34    18    19   ar
    35    18    49    1
    36    19    20   ar
    37    19    22    1
    38    20    21   ar
    39    20    50    1
    40    21    51    1
    41    22    23    2
    42    22    24    2
    43    22    25    1
    44    25    26    2
    45    26    27    1
    46    26    28    1
    47    28    29    1
    48    28    52    1
    49    29    34    1
    50    29    30    1
    51    29    53    1
    52    30    31    1
    53    30    54    1
    54    30    55    1
    55    31    32    1
    56    31    56    1
    57    31    57    1
    58    32    33    1
    59    32    58    1
    60    32    59    1
    61    33    34    1
    62    33    60    1
    63    33    61    1
    64    34    62    1
    65    34    63    1
    66    35    36    1
    67    36    64    1
    68    36    65    1
    69    36    66    1
    70    37    67    1
    71    37    68    1
    72    37    69    1
