@<TRIPOS>MOLECULE
ZINC00643153
 65 69 0 0 0
SMALL
GASTEIGER

@<TRIPOS>ATOM
      1 C          -4.1232   10.9477    3.2238 C.3     1  UNL1        0.0124
      2 C          -3.2615   11.3324    4.3969 C.2     1  UNL1        0.2126
      3 O          -3.3643   12.4593    4.8840 O.2     1  UNL1       -0.2759
      4 N          -2.4065   10.3777    4.9217 N.am    1  UNL1       -0.2987
      5 C          -1.8024   10.6406    6.2323 C.3     1  UNL1        0.0304
      6 C          -2.5055    9.7608    7.2856 C.3     1  UNL1        0.0280
      7 N          -2.3137    8.3190    6.9558 N.pl3   1  UNL1       -0.3269
      8 C          -2.8512    8.0012    5.5991 C.3     1  UNL1        0.0280
      9 C          -2.3105    8.9687    4.5108 C.3     1  UNL1        0.0304
     10 C          -1.2057    7.6245    7.4459 C.ar    1  UNL1        0.0300
     11 C          -0.9772    6.2715    7.1421 C.ar    1  UNL1       -0.0372
     12 C           0.1926    5.5940    7.5380 C.ar    1  UNL1       -0.0182
     13 C           1.1716    6.2505    8.2732 C.ar    1  UNL1        0.1207
     14 C           0.8913    7.5307    8.7349 C.ar    1  UNL1       -0.0182
     15 C          -0.2730    8.1992    8.3228 C.ar    1  UNL1       -0.0372
     16 O           2.3529    5.5780    8.4836 O.3     1  UNL1       -0.4893
     17 C           3.4804    6.4455    8.6868 C.3     1  UNL1        0.1179
     18 C           4.8301    5.7108    8.6538 C.3     1  UNL1        0.1195
     19 H           5.6058    6.4688    8.8087 H       1  UNL1        0.0654
     20 C           5.1218    4.9402    7.3926 C.3     1  UNL1        0.0808
     21 O           4.8035    3.5807    7.6823 O.3     1  UNL1       -0.3408
     22 C           4.8791    3.4416    9.1257 C.3     1  UNL1        0.2150
     23 O           4.9295    4.7530    9.7116 O.3     1  UNL1       -0.3344
     24 C           3.5411    2.7442    9.5390 C.3     1  UNL1        0.0762
     25 N           3.3311    1.3971    8.9661 N.pl3   1  UNL1       -0.2922
     26 C           3.1095    0.2318    9.6816 C.2     1  UNL1        0.0136
     27 C           2.9362   -0.7636    8.7602 C.2     1  UNL1        0.0167
     28 N           3.0339   -0.1692    7.5259 N.2     1  UNL1       -0.3542
     29 C           3.2424    1.1457    7.6505 C.2     1  UNL1        0.0641
     30 C           6.1659    2.7024    9.5420 C.ar    1  UNL1        0.0311
     31 C           7.1335    2.3626    8.5587 C.ar    1  UNL1       -0.0507
     32 C           8.3669    1.8014    8.9018 C.ar    1  UNL1       -0.0429
     33 C           8.6713    1.5515   10.2326 C.ar    1  UNL1        0.0424
     34 C           7.7358    1.8409   11.2188 C.ar    1  UNL1       -0.0246
     35 C           6.5019    2.4117   10.8782 C.ar    1  UNL1        0.0506
     36 CL          5.4532    2.7519   12.2073 Cl      1  UNL1       -0.0830
     37 CL         10.2027    0.9052   10.6613 Cl      1  UNL1       -0.0835
     38 H          -4.5700   11.8523    2.7977 H       1  UNL1        0.0323
     39 H          -4.9289   10.2937    3.5687 H       1  UNL1        0.0323
     40 H          -3.5419   10.4662    2.4360 H       1  UNL1        0.0323
     41 H          -0.7357   10.3980    6.1595 H       1  UNL1        0.0480
     42 H          -1.8858   11.6956    6.5084 H       1  UNL1        0.0480
     43 H          -3.5838    9.9686    7.2577 H       1  UNL1        0.0479
     44 H          -2.1926   10.0172    8.3005 H       1  UNL1        0.0479
     45 H          -3.9425    8.1034    5.6445 H       1  UNL1        0.0479
     46 H          -2.6564    6.9742    5.2794 H       1  UNL1        0.0479
     47 H          -2.8373    8.7887    3.5717 H       1  UNL1        0.0480
     48 H          -1.2473    8.7662    4.3345 H       1  UNL1        0.0480
     49 H          -1.7176    5.7000    6.5896 H       1  UNL1        0.0637
     50 H           0.3299    4.5598    7.2391 H       1  UNL1        0.0655
     51 H           1.5569    8.0595    9.4096 H       1  UNL1        0.0655
     52 H          -0.3983    9.2066    8.7060 H       1  UNL1        0.0637
     53 H           3.4938    7.2160    7.9048 H       1  UNL1        0.0723
     54 H           3.3875    6.9127    9.6739 H       1  UNL1        0.0723
     55 H           6.1909    4.9845    7.1562 H       1  UNL1        0.0588
     56 H           4.5696    5.2831    6.5132 H       1  UNL1        0.0588
     57 H           3.3983    2.7002   10.6190 H       1  UNL1        0.0525
     58 H           2.6969    3.3360    9.1715 H       1  UNL1        0.0525
     59 H           3.0959    0.2670   10.7578 H       1  UNL1        0.0798
     60 H           2.7401   -1.8185    8.8201 H       1  UNL1        0.0820
     61 H           3.3100    1.8603    6.8372 H       1  UNL1        0.0982
     62 H           6.9539    2.5648    7.5040 H       1  UNL1        0.0623
     63 H           9.1016    1.5823    8.1273 H       1  UNL1        0.0632
     64 H           7.9830    1.6416   12.2612 H       1  UNL1        0.0647
     65 H           2.9418   -0.6443    6.6315 H       1  UNL1        0.1660
@<TRIPOS>BOND
     1     1     2    1
     2     1    38    1
     3     1    39    1
     4     1    40    1
     5     2     3    2
     6     2     4   am
     7     4     9    1
     8     4     5    1
     9     5     6    1
    10     5    41    1
    11     5    42    1
    12     6     7    1
    13     6    43    1
    14     6    44    1
    15     7     8    1
    16     7    10    1
    17     8     9    1
    18     8    45    1
    19     8    46    1
    20     9    47    1
    21     9    48    1
    22    10    15   ar
    23    10    11   ar
    24    11    12   ar
    25    11    49    1
    26    12    13   ar
    27    12    50    1
    28    13    14   ar
    29    13    16    1
    30    14    15   ar
    31    14    51    1
    32    15    52    1
    33    16    17    1
    34    17    18    1
    35    17    53    1
    36    17    54    1
    37    18    19    1
    38    18    23    1
    39    18    20    1
    40    20    21    1
    41    20    55    1
    42    20    56    1
    43    21    22    1
    44    22    23    1
    45    22    24    1
    46    22    30    1
    47    24    25    1
    48    24    57    1
    49    24    58    1
    50    25    29    1
    51    25    26    1
    52    26    27    2
    53    26    59    1
    54    27    28    1
    55    27    60    1
    56    28    29    2
    57    28    65    1
    58    29    61    1
    59    30    35   ar
    60    30    31   ar
    61    31    32   ar
    62    31    62    1
    63    32    33   ar
    64    32    63    1
    65    33    34   ar
    66    33    37    1
    67    34    35   ar
    68    34    64    1
    69    35    36    1
