@<TRIPOS>MOLECULE
ZINC03813024
 66 69 0 0 0
SMALL
GASTEIGER

@<TRIPOS>ATOM
      1 C         -12.0276    1.5835  -10.8084 C.3     1  UNL1        0.0086
      2 N         -11.1287    0.5016  -10.3397 N.3     1  UNL1       -0.1827
      3 C         -11.9228   -0.6354   -9.8126 C.3     1  UNL1        0.0086
      4 S          -9.9181    0.0301  -11.4466 S.O2    1  UNL1        0.0604
      5 O          -9.1274   -1.0293  -10.8578 O.2     1  UNL1       -0.1529
      6 O         -10.5255   -0.1585  -12.7522 O.2     1  UNL1       -0.1529
      7 C          -8.8586    1.4577  -11.5481 C.ar    1  UNL1        0.1073
      8 C          -9.0846    2.4496  -12.5041 C.ar    1  UNL1       -0.0342
      9 C          -8.2434    3.5622  -12.5572 C.ar    1  UNL1       -0.0443
     10 C          -7.1560    3.6693  -11.6804 C.ar    1  UNL1        0.0342
     11 C          -6.8813    2.6266  -10.7720 C.ar    1  UNL1        0.0497
     12 C          -7.7526    1.5315  -10.7012 C.ar    1  UNL1       -0.0129
     13 N          -5.8025    2.7001   -9.8560 N.pl3   1  UNL1       -0.2981
     14 C          -5.4010    3.9468   -9.3162 C.ar    1  UNL1        0.0479
     15 C          -5.0584    4.0421   -7.9588 C.ar    1  UNL1       -0.0393
     16 C          -4.7839    5.2825   -7.3707 C.ar    1  UNL1       -0.0599
     17 C          -4.8232    6.4470   -8.1335 C.ar    1  UNL1       -0.0606
     18 C          -5.1852    6.3745   -9.4841 C.ar    1  UNL1       -0.0462
     19 C          -5.5055    5.1421  -10.0628 C.ar    1  UNL1        0.0341
     20 S          -6.1089    5.1196  -11.7523 S.3     1  UNL1       -0.0857
     21 C          -4.7383    1.6937  -10.1197 C.3     1  UNL1        0.0221
     22 C          -3.7048    2.1370  -11.1756 C.3     1  UNL1        0.0036
     23 C          -2.6373    1.0915  -11.5615 C.3     1  UNL1       -0.0304
     24 N          -3.1788   -0.1925  -12.1788 N.4     1  UNL1        0.2353
     25 C          -2.1602   -1.3300  -12.2089 C.3     1  UNL1       -0.0316
     26 C          -1.3359   -1.3836  -13.4943 C.3     1  UNL1       -0.0094
     27 C          -2.1701   -1.2940  -14.7808 C.3     1  UNL1       -0.0294
     28 C          -2.9923   -0.0064  -14.6834 C.3     1  UNL1       -0.0094
     29 C          -3.9323   -0.0247  -13.4852 C.3     1  UNL1       -0.0316
     30 C          -3.0294   -2.5560  -15.0499 C.3     1  UNL1       -0.0265
     31 C          -3.8403   -2.4716  -16.3494 C.3     1  UNL1        0.0445
     32 O          -4.6904   -3.5971  -16.5024 O.3     1  UNL1       -0.3950
     33 H         -12.7189    1.8684  -10.0097 H       1  UNL1        0.0408
     34 H         -12.6151    1.2555  -11.6716 H       1  UNL1        0.0408
     35 H         -11.4620    2.4815  -11.0658 H       1  UNL1        0.0408
     36 H         -12.4851   -1.1272  -10.6129 H       1  UNL1        0.0408
     37 H         -11.2798   -1.3629   -9.3101 H       1  UNL1        0.0408
     38 H         -12.6395   -0.2762   -9.0620 H       1  UNL1        0.0408
     39 H          -9.9271    2.3797  -13.1896 H       1  UNL1        0.0637
     40 H          -8.4522    4.3548  -13.2735 H       1  UNL1        0.0630
     41 H          -7.5937    0.7612   -9.9477 H       1  UNL1        0.0656
     42 H          -5.0956    3.1603   -7.3252 H       1  UNL1        0.0636
     43 H          -4.5749    5.3454   -6.3014 H       1  UNL1        0.0618
     44 H          -4.6145    7.4121   -7.6789 H       1  UNL1        0.0618
     45 H          -5.2531    7.2956  -10.0565 H       1  UNL1        0.0629
     46 H          -4.2335    1.4353   -9.1805 H       1  UNL1        0.0470
     47 H          -5.2027    0.7631  -10.4637 H       1  UNL1        0.0470
     48 H          -4.2076    2.4994  -12.0770 H       1  UNL1        0.0332
     49 H          -3.1625    3.0034  -10.7753 H       1  UNL1        0.0332
     50 H          -1.9282    1.5134  -12.2811 H       1  UNL1        0.0815
     51 H          -2.0855    0.7987  -10.6619 H       1  UNL1        0.0815
     52 H          -2.7279   -2.2553  -12.0749 H       1  UNL1        0.0814
     53 H          -1.5025   -1.2149  -11.3366 H       1  UNL1        0.0814
     54 H          -0.7291   -2.2988  -13.5009 H       1  UNL1        0.0319
     55 H          -0.6200   -0.5506  -13.4865 H       1  UNL1        0.0319
     56 H          -1.4711   -1.1997  -15.6230 H       1  UNL1        0.0305
     57 H          -2.3116    0.8512  -14.6132 H       1  UNL1        0.0319
     58 H          -3.5662    0.1536  -15.6020 H       1  UNL1        0.0319
     59 H          -4.5242    0.8908  -13.4329 H       1  UNL1        0.0814
     60 H          -4.6343   -0.8620  -13.5404 H       1  UNL1        0.0814
     61 H          -2.3796   -3.4402  -15.1019 H       1  UNL1        0.0290
     62 H          -3.7144   -2.7610  -14.2191 H       1  UNL1        0.0290
     63 H          -4.5016   -1.6030  -16.3488 H       1  UNL1        0.0557
     64 H          -3.1812   -2.3955  -17.2198 H       1  UNL1        0.0557
     65 H          -4.3361   -4.3598  -16.0172 H       1  UNL1        0.2094
     66 H          -3.8857   -0.5340  -11.5168 H       1  UNL1        0.2033
@<TRIPOS>UNITY_ATOM_ATTR
24 1
charge 1
@<TRIPOS>BOND
     1     1     2    1
     2     1    33    1
     3     1    34    1
     4     1    35    1
     5     2     3    1
     6     2     4    1
     7     3    36    1
     8     3    37    1
     9     3    38    1
    10     4     5    2
    11     4     6    2
    12     4     7    1
    13     7    12   ar
    14     7     8   ar
    15     8     9   ar
    16     8    39    1
    17     9    10   ar
    18     9    40    1
    19    10    20    1
    20    10    11   ar
    21    11    12   ar
    22    11    13    1
    23    12    41    1
    24    13    14    1
    25    13    21    1
    26    14    19   ar
    27    14    15   ar
    28    15    16   ar
    29    15    42    1
    30    16    17   ar
    31    16    43    1
    32    17    18   ar
    33    17    44    1
    34    18    19   ar
    35    18    45    1
    36    19    20    1
    37    21    22    1
    38    21    46    1
    39    21    47    1
    40    22    23    1
    41    22    48    1
    42    22    49    1
    43    23    50    1
    44    23    51    1
    45    24    29    1
    46    24    25    1
    47    25    26    1
    48    25    52    1
    49    25    53    1
    50    26    27    1
    51    26    54    1
    52    26    55    1
    53    27    28    1
    54    28    29    1
    55    28    57    1
    56    28    58    1
    57    29    59    1
    58    29    60    1
    59    30    31    1
    60    30    61    1
    61    30    62    1
    62    31    32    1
    63    31    63    1
    64    31    64    1
    65    32    65    1
    66    24    66    1
    67    24    23    1
    68    27    56    1
    69    27    30    1
