@<TRIPOS>MOLECULE
ZINC00002279
 31 33 0 0 0
SMALL
GASTEIGER

@<TRIPOS>ATOM
      1 C          -3.8273    4.3463   -1.6302 C.ar    1  UNL1       -0.0617
      2 C          -2.5033    3.9306   -1.4868 C.ar    1  UNL1       -0.0611
      3 C          -2.2208    2.6567   -0.9894 C.ar    1  UNL1       -0.0509
      4 C          -3.2639    1.7882   -0.6391 C.ar    1  UNL1        0.0237
      5 C          -4.5919    2.2197   -0.7700 C.ar    1  UNL1       -0.0509
      6 C          -4.8700    3.4928   -1.2711 C.ar    1  UNL1       -0.0611
      7 C          -2.9338    0.4482   -0.0702 C.2     1  UNL1        0.2093
      8 O          -1.9010    0.3503    0.5928 O.2     1  UNL1       -0.2851
      9 C          -3.8337   -0.6644   -0.2989 C.ar    1  UNL1        0.0899
     10 C          -4.6475   -0.9691   -1.3928 C.ar    1  UNL1       -0.0327
     11 C          -5.3710   -2.1679   -1.1170 C.ar    1  UNL1       -0.0395
     12 C          -4.9655   -2.5692    0.1256 C.ar    1  UNL1        0.0333
     13 N          -4.0390   -1.6825    0.5780 N.ar    1  UNL1       -0.3405
     14 C          -3.5509   -1.9883    1.9083 C.3     1  UNL1        0.0248
     15 C          -4.5123   -3.0854    2.3918 C.3     1  UNL1       -0.0164
     16 C          -5.2166   -3.6499    1.1283 C.3     1  UNL1        0.1023
     17 H          -4.7092   -4.5661    0.8023 H       1  UNL1        0.0479
     18 C          -6.7169   -3.9219    1.3711 C.2     1  UNL1        0.3648
     19 O          -7.3848   -2.9950    1.9156 O.co2   1  UNL1       -0.2456
     20 O          -7.1019   -5.0807    1.0321 O.co2   1  UNL1       -0.2456
     21 H          -4.0482    5.3395   -2.0112 H       1  UNL1        0.0618
     22 H          -1.6908    4.6007   -1.7548 H       1  UNL1        0.0618
     23 H          -1.1869    2.3407   -0.8689 H       1  UNL1        0.0625
     24 H          -5.4188    1.5802   -0.4649 H       1  UNL1        0.0625
     25 H          -5.9028    3.8184   -1.3691 H       1  UNL1        0.0618
     26 H          -4.7287   -0.3846   -2.2995 H       1  UNL1        0.0640
     27 H          -6.1061   -2.6606   -1.7387 H       1  UNL1        0.0636
     28 H          -3.5942   -1.0899    2.5292 H       1  UNL1        0.0492
     29 H          -2.5242   -2.3529    1.8109 H       1  UNL1        0.0492
     30 H          -3.9753   -3.8727    2.9324 H       1  UNL1        0.0294
     31 H          -5.2258   -2.6553    3.1052 H       1  UNL1        0.0294
@<TRIPOS>BOND
     1     1     6   ar
     2     1     2   ar
     3     1    21    1
     4     2     3   ar
     5     2    22    1
     6     3     4   ar
     7     3    23    1
     8     4     5   ar
     9     4     7    1
    10     5     6   ar
    11     5    24    1
    12     6    25    1
    13     7     8    2
    14     7     9    1
    15     9    13   ar
    16     9    10   ar
    17    10    11   ar
    18    10    26    1
    19    11    12   ar
    20    11    27    1
    21    12    16    1
    22    12    13   ar
    23    13    14    1
    24    14    15    1
    25    14    28    1
    26    14    29    1
    27    15    16    1
    28    15    30    1
    29    15    31    1
    30    16    17    1
    31    16    18    1
    32    18    19   ar
    33    18    20   ar
