@<TRIPOS>MOLECULE
ZINC01698105
 54 57 0 0 0
SMALL
GASTEIGER

@<TRIPOS>ATOM
      1 C          -5.9881    0.7407   -0.2067 C.ar    1  UNL1       -0.0599
      2 C          -6.0699   -0.6389   -0.1863 C.ar    1  UNL1       -0.0606
      3 C          -4.9033   -1.3756   -0.0393 C.ar    1  UNL1       -0.0462
      4 C          -3.6467   -0.7444    0.0903 C.ar    1  UNL1        0.0347
      5 C          -3.5321    0.6568    0.0834 C.ar    1  UNL1        0.0596
      6 C          -4.7423    1.3721   -0.0807 C.ar    1  UNL1       -0.0387
      7 N          -2.2635    1.3664    0.1534 N.am    1  UNL1       -0.1877
      8 C          -1.0136    0.6376    0.0773 C.ar    1  UNL1        0.1483
      9 C          -0.9290   -0.7564    0.0765 C.ar    1  UNL1        0.0535
     10 C           0.3356   -1.3692   -0.0083 C.ar    1  UNL1       -0.0432
     11 C           1.4879   -0.6064   -0.0923 C.ar    1  UNL1       -0.0424
     12 C           1.3372    0.7567   -0.0598 C.ar    1  UNL1        0.0298
     13 N           0.1377    1.3677    0.0510 N.ar    1  UNL1       -0.2384
     14 S          -2.2879   -1.8570    0.2530 S.3     1  UNL1       -0.0841
     15 C          -2.2375    2.7705    0.2962 C.2     1  UNL1        0.4129
     16 O          -3.0791    3.4455    0.8905 O.2     1  UNL1       -0.2255
     17 O          -1.1973    3.3871   -0.3469 O.3     1  UNL1       -0.4475
     18 C          -1.1670    4.8172   -0.3237 C.3     1  UNL1        0.1173
     19 C          -0.6904    5.3610    1.0274 C.3     1  UNL1        0.0821
     20 O          -0.5949    6.7906    1.1084 O.3     1  UNL1       -0.3712
     21 C          -1.7714    7.5218    0.7601 C.3     1  UNL1        0.0876
     22 C          -2.8993    7.3359    1.7815 C.3     1  UNL1       -0.0079
     23 C          -2.0199    9.1116    3.3563 C.3     1  UNL1       -0.0318
     24 C          -1.5979    9.4011    4.7882 C.3     1  UNL1       -0.0123
     25 C          -2.6849    9.0148    5.7782 C.3     1  UNL1       -0.0434
     26 C          -3.0312    7.5415    5.6194 C.3     1  UNL1       -0.0123
     27 C          -3.4796    7.2310    4.2001 C.3     1  UNL1       -0.0318
     28 H          -6.8894    1.3364   -0.3365 H       1  UNL1        0.0618
     29 H          -7.0279   -1.1411   -0.2959 H       1  UNL1        0.0618
     30 H          -4.9771   -2.4630   -0.0363 H       1  UNL1        0.0629
     31 H          -4.7664    2.4547   -0.1517 H       1  UNL1        0.0637
     32 H           0.4262   -2.4545   -0.0033 H       1  UNL1        0.0630
     33 H           2.4670   -1.0653   -0.1683 H       1  UNL1        0.0633
     34 H           2.1946    1.4206   -0.1236 H       1  UNL1        0.0830
     35 H          -0.4833    5.1501   -1.1121 H       1  UNL1        0.0721
     36 H          -2.1549    5.1989   -0.6010 H       1  UNL1        0.0721
     37 H          -1.3128    5.0033    1.8532 H       1  UNL1        0.0594
     38 H           0.3113    4.9661    1.2339 H       1  UNL1        0.0594
     39 H          -1.4857    8.5772    0.7052 H       1  UNL1        0.0613
     40 H          -2.1085    7.2695   -0.2489 H       1  UNL1        0.0613
     41 H          -3.7585    7.9754    1.5561 H       1  UNL1        0.0837
     42 H          -3.2226    6.2902    1.8003 H       1  UNL1        0.0837
     43 H          -2.8703    9.7304    3.0513 H       1  UNL1        0.0814
     44 H          -1.1719    9.2950    2.6916 H       1  UNL1        0.0814
     45 H          -1.3661   10.4671    4.8904 H       1  UNL1        0.0317
     46 H          -0.6772    8.8514    5.0206 H       1  UNL1        0.0317
     47 H          -2.3490    9.2151    6.8011 H       1  UNL1        0.0269
     48 H          -3.5784    9.6280    5.6054 H       1  UNL1        0.0269
     49 H          -2.1589    6.9281    5.8762 H       1  UNL1        0.0317
     50 H          -3.8281    7.2742    6.3223 H       1  UNL1        0.0317
     51 H          -3.6304    6.1538    4.0730 H       1  UNL1        0.0814
     52 H          -4.4065    7.7607    3.9519 H       1  UNL1        0.0814
     53 N          -2.4308    7.6647    3.1994 N.4     1  UNL1        0.2369
     54 H          -1.5829    7.0946    3.3487 H       1  UNL1        0.2034
@<TRIPOS>UNITY_ATOM_ATTR
53 1
charge 1
@<TRIPOS>BOND
     1     1     6   ar
     2     1     2   ar
     3     1    28    1
     4     2     3   ar
     5     2    29    1
     6     3     4   ar
     7     3    30    1
     8     4    14    1
     9     4     5   ar
    10     5     6   ar
    11     5     7    1
    12     6    31    1
    13     7     8    1
    14     7    15   am
    15     8    13   ar
    16     8     9   ar
    17     9    10   ar
    18     9    14    1
    19    10    11   ar
    20    10    32    1
    21    11    12   ar
    22    11    33    1
    23    12    13   ar
    24    12    34    1
    25    15    16    2
    26    15    17    1
    27    17    18    1
    28    18    19    1
    29    18    35    1
    30    18    36    1
    31    19    20    1
    32    19    37    1
    33    19    38    1
    34    20    21    1
    35    21    22    1
    36    21    39    1
    37    21    40    1
    38    22    41    1
    39    22    42    1
    40    22    53    1
    41    23    24    1
    42    23    43    1
    43    23    44    1
    44    23    53    1
    45    24    25    1
    46    24    45    1
    47    24    46    1
    48    25    26    1
    49    25    47    1
    50    25    48    1
    51    26    27    1
    52    26    49    1
    53    26    50    1
    54    27    51    1
    55    27    52    1
    56    27    53    1
    57    53    54    1
