@<TRIPOS>MOLECULE
ZINC03806063
 68 70 0 0 0
SMALL
GASTEIGER

@<TRIPOS>ATOM
      1 C           0.1800   -2.3794    1.1105 C.3     1  UNL1       -0.0213
      2 C          -0.5274   -1.6089   -0.0107 C.3     1  UNL1       -0.0214
      3 H          -0.0449   -0.6308   -0.1455 H       1  UNL1        0.0851
      4 C          -2.0439   -1.4437    0.2929 C.3     1  UNL1        0.0153
      5 C          -2.4959   -0.8059    1.6230 C.ar    1  UNL1       -0.0410
      6 C          -2.2742    0.5362    1.9286 C.ar    1  UNL1       -0.0533
      7 C          -2.9005    1.0956    3.0569 C.ar    1  UNL1       -0.0239
      8 C          -3.7653    0.3991    3.9398 C.ar    1  UNL1        0.0452
      9 C          -3.9285   -0.9719    3.6965 C.ar    1  UNL1        0.0580
     10 C          -3.2842   -1.5443    2.5448 C.ar    1  UNL1       -0.0445
     11 C          -4.7219   -1.8880    4.5829 C.2     1  UNL1        0.2433
     12 O          -4.8668   -1.7241    5.7868 O.2     1  UNL1       -0.2704
     13 N          -5.2750   -3.0106    4.0169 N.am    1  UNL1       -0.3253
     14 N          -4.3411    1.3004    4.8521 N.pl3   1  UNL1       -0.3287
     15 C          -3.4939    2.4999    4.8275 C.3     1  UNL1        0.0162
     16 C          -2.8568    2.5459    3.4411 C.3     1  UNL1       -0.0101
     17 C          -5.1461    1.0037    6.0505 C.3     1  UNL1        0.0143
     18 C          -5.6947    2.2775    6.7278 C.3     1  UNL1       -0.0139
     19 C          -6.6102    1.9888    7.9131 C.3     1  UNL1        0.0456
     20 O          -7.0856    3.2180    8.4591 O.3     1  UNL1       -0.3950
     21 C          -0.6216   -1.8165   -2.6854 C.3     1  UNL1        0.0016
     22 C          -0.0508   -2.5830   -3.9429 C.3     1  UNL1        0.1293
     23 O          -0.7194   -3.8167   -4.2984 O.3     1  UNL1       -0.4830
     24 C          -0.0028   -4.9775   -4.5440 C.ar    1  UNL1        0.1622
     25 C           1.2881   -5.1867   -4.0454 C.ar    1  UNL1       -0.0163
     26 C           1.8826   -6.4531   -4.0700 C.ar    1  UNL1       -0.0581
     27 C           1.1676   -7.5528   -4.5154 C.ar    1  UNL1       -0.0581
     28 C          -0.0829   -7.3618   -5.0807 C.ar    1  UNL1       -0.0163
     29 C          -0.6041   -6.0662   -5.2362 C.ar    1  UNL1        0.1623
     30 O          -1.6126   -5.8467   -6.1553 O.3     1  UNL1       -0.4794
     31 C          -1.6570   -6.7830   -7.2882 C.3     1  UNL1        0.1843
     32 C          -0.3709   -7.0020   -8.1201 C.3     1  UNL1        0.4236
     33 F           0.5537   -6.0371   -7.9307 F       1  UNL1       -0.1671
     34 F           0.2069   -8.1927   -7.8266 F       1  UNL1       -0.1671
     35 F          -0.6535   -7.0303   -9.4453 F       1  UNL1       -0.1671
     36 H          -0.0715   -1.9829    2.1006 H       1  UNL1        0.0284
     37 H           1.2683   -2.3101    1.0083 H       1  UNL1        0.0284
     38 H          -0.0944   -3.4398    1.0983 H       1  UNL1        0.0284
     39 H          -2.4910   -0.8373   -0.5052 H       1  UNL1        0.0368
     40 H          -2.5144   -2.4318    0.2114 H       1  UNL1        0.0368
     41 H          -1.6892    1.1835    1.2827 H       1  UNL1        0.0624
     42 H          -3.4068   -2.6098    2.3584 H       1  UNL1        0.0628
     43 H          -5.2794   -3.2315    3.0354 H       1  UNL1        0.1453
     44 H          -5.8551   -3.5731    4.6290 H       1  UNL1        0.1453
     45 H          -4.0655    3.4186    5.0008 H       1  UNL1        0.0467
     46 H          -2.7282    2.4277    5.6118 H       1  UNL1        0.0467
     47 H          -1.8467    2.9611    3.4777 H       1  UNL1        0.0329
     48 H          -3.4801    3.1244    2.7518 H       1  UNL1        0.0329
     49 H          -6.0110    0.3965    5.7613 H       1  UNL1        0.0464
     50 H          -4.5432    0.4592    6.7859 H       1  UNL1        0.0464
     51 H          -4.8705    2.9071    7.0868 H       1  UNL1        0.0302
     52 H          -6.2411    2.8900    5.9990 H       1  UNL1        0.0302
     53 H          -7.4838    1.4077    7.6048 H       1  UNL1        0.0557
     54 H          -6.0901    1.4419    8.7055 H       1  UNL1        0.0557
     55 H          -6.3307    3.6790    8.8638 H       1  UNL1        0.2094
     56 H          -1.7110   -1.7626   -2.7157 H       1  UNL1        0.0848
     57 H          -0.1921   -0.8070   -2.6760 H       1  UNL1        0.0848
     58 H          -0.2305   -1.9198   -4.8005 H       1  UNL1        0.0751
     59 H           1.0367   -2.6555   -3.8735 H       1  UNL1        0.0751
     60 H           1.8975   -4.3928   -3.6367 H       1  UNL1        0.0655
     61 H           2.9030   -6.5879   -3.7178 H       1  UNL1        0.0619
     62 H           1.5996   -8.5510   -4.4801 H       1  UNL1        0.0619
     63 H          -0.6003   -8.2444   -5.4526 H       1  UNL1        0.0655
     64 H          -2.0528   -7.7515   -6.9509 H       1  UNL1        0.0788
     65 H          -2.4217   -6.3946   -7.9701 H       1  UNL1        0.0788
     66 N          -0.2573   -2.4259   -1.3404 N.4     1  UNL1        0.2316
     67 H           0.7514   -2.6207   -1.3533 H       1  UNL1        0.2017
     68 H          -0.7150   -3.3558   -1.2675 H       1  UNL1        0.2017
@<TRIPOS>UNITY_ATOM_ATTR
66 1
charge 1
@<TRIPOS>BOND
     1     1    36    1
     2     1    37    1
     3     1    38    1
     4     2     4    1
     5     2    66    1
     6     4     5    1
     7     4    39    1
     8     4    40    1
     9     5    10   ar
    10     5     6   ar
    11     6     7   ar
    12     6    41    1
    13     7    16    1
    14     7     8   ar
    15     8     9   ar
    16     8    14    1
    17     9    10   ar
    18     9    11    1
    19    10    42    1
    20    11    12    2
    21    11    13   am
    22    13    43    1
    23    13    44    1
    24    14    15    1
    25    14    17    1
    26    15    16    1
    27    15    45    1
    28    15    46    1
    29    16    47    1
    30    16    48    1
    31    17    18    1
    32    17    49    1
    33    17    50    1
    34    18    19    1
    35    18    51    1
    36    18    52    1
    37    19    20    1
    38    19    53    1
    39    19    54    1
    40    20    55    1
    41    21    22    1
    42    21    56    1
    43    21    57    1
    44    21    66    1
    45    22    23    1
    46    22    58    1
    47    22    59    1
    48    23    24    1
    49    24    29   ar
    50    24    25   ar
    51    25    26   ar
    52    25    60    1
    53    26    27   ar
    54    26    61    1
    55    27    28   ar
    56    27    62    1
    57    28    29   ar
    58    28    63    1
    59    29    30    1
    60    30    31    1
    61    31    32    1
    62    31    64    1
    63    31    65    1
    64    32    33    1
    65    32    34    1
    66    32    35    1
    67    66    67    1
    68    66    68    1
    69     2     3    1
    70     2     1    1
