@<TRIPOS>MOLECULE
ZINC00538507
 44 46 0 0 0
SMALL
GASTEIGER

@<TRIPOS>ATOM
      1 C          -3.4455    1.4406    0.0639 C.3     1  UNL1       -0.0433
      2 N          -3.0002    0.2943   -0.8137 N.4     1  UNL1        0.2309
      3 C          -2.3346    0.8141   -2.0588 C.3     1  UNL1       -0.0433
      4 C          -2.1785   -0.7159   -0.0160 C.3     1  UNL1       -0.0309
      5 C          -1.7169   -1.8877   -0.8754 C.3     1  UNL1        0.0036
      6 C          -0.9909   -2.9819   -0.0659 C.3     1  UNL1        0.0221
      7 N          -1.8412   -3.5769    1.0026 N.pl3   1  UNL1       -0.2981
      8 C          -1.1177   -3.6561    2.2418 C.ar    1  UNL1        0.0479
      9 C          -1.0075   -2.5019    3.0373 C.ar    1  UNL1       -0.0393
     10 C          -0.4075   -2.5542    4.2997 C.ar    1  UNL1       -0.0599
     11 C           0.1106   -3.7518    4.7806 C.ar    1  UNL1       -0.0606
     12 C           0.0229   -4.9024    4.0052 C.ar    1  UNL1       -0.0462
     13 C          -0.6046   -4.8679    2.7507 C.ar    1  UNL1        0.0341
     14 S          -0.7516   -6.3982    1.8581 S.3     1  UNL1       -0.0857
     15 C          -2.2157   -6.0427    0.9110 C.ar    1  UNL1        0.0341
     16 C          -2.5513   -4.7281    0.5285 C.ar    1  UNL1        0.0484
     17 C          -3.6921   -4.5457   -0.2639 C.ar    1  UNL1       -0.0276
     18 C          -4.4876   -5.6240   -0.6833 C.ar    1  UNL1        0.0566
     19 C          -4.1601   -6.9137   -0.2526 C.ar    1  UNL1       -0.0490
     20 C          -3.0275   -7.1219    0.5353 C.ar    1  UNL1       -0.0457
     21 C          -5.6855   -5.3865   -1.5686 C.3     1  UNL1        0.4175
     22 F          -5.7983   -4.0797   -1.9542 F       1  UNL1       -0.1659
     23 F          -5.6345   -6.1047   -2.7207 F       1  UNL1       -0.1659
     24 F          -6.8610   -5.6989   -0.9652 F       1  UNL1       -0.1659
     25 H          -2.5590    1.9857    0.3990 H       1  UNL1        0.0777
     26 H          -3.9977    1.0264    0.9130 H       1  UNL1        0.0777
     27 H          -4.1021    2.0871   -0.5236 H       1  UNL1        0.0777
     28 H          -1.3397    1.1803   -1.7986 H       1  UNL1        0.0777
     29 H          -2.2865   -0.0015   -2.7859 H       1  UNL1        0.0777
     30 H          -2.9517    1.6184   -2.4713 H       1  UNL1        0.0777
     31 H          -1.3267   -0.1731    0.4091 H       1  UNL1        0.0815
     32 H          -2.8372   -1.0532    0.7898 H       1  UNL1        0.0815
     33 H          -2.5608   -2.3017   -1.4333 H       1  UNL1        0.0332
     34 H          -1.0105   -1.5254   -1.6321 H       1  UNL1        0.0332
     35 H          -0.6373   -3.7584   -0.7599 H       1  UNL1        0.0470
     36 H          -0.0796   -2.5290    0.3503 H       1  UNL1        0.0470
     37 H          -1.4369   -1.5638    2.7110 H       1  UNL1        0.0636
     38 H          -0.3691   -1.6649    4.9235 H       1  UNL1        0.0618
     39 H           0.5622   -3.7985    5.7696 H       1  UNL1        0.0618
     40 H           0.4178   -5.8382    4.3975 H       1  UNL1        0.0629
     41 H          -4.0054   -3.5417   -0.5313 H       1  UNL1        0.0642
     42 H          -4.7844   -7.7638   -0.5242 H       1  UNL1        0.0623
     43 H          -2.7883   -8.1323    0.8645 H       1  UNL1        0.0629
     44 H          -3.8613   -0.1844   -1.1135 H       1  UNL1        0.2028
@<TRIPOS>UNITY_ATOM_ATTR
2 1
charge 1
@<TRIPOS>BOND
     1     1     2    1
     2     1    25    1
     3     1    26    1
     4     1    27    1
     5     2     3    1
     6     2     4    1
     7     2    44    1
     8     3    28    1
     9     3    29    1
    10     3    30    1
    11     4     5    1
    12     4    31    1
    13     4    32    1
    14     5     6    1
    15     5    33    1
    16     5    34    1
    17     6     7    1
    18     6    35    1
    19     6    36    1
    20     7    16    1
    21     7     8    1
    22     8    13   ar
    23     8     9   ar
    24     9    10   ar
    25     9    37    1
    26    10    11   ar
    27    10    38    1
    28    11    12   ar
    29    11    39    1
    30    12    13   ar
    31    12    40    1
    32    13    14    1
    33    14    15    1
    34    15    20   ar
    35    15    16   ar
    36    16    17   ar
    37    17    18   ar
    38    17    41    1
    39    18    19   ar
    40    18    21    1
    41    19    20   ar
    42    19    42    1
    43    20    43    1
    44    21    22    1
    45    21    23    1
    46    21    24    1
