@<TRIPOS>MOLECULE
ZINC01530948
 29 31 0 0 0
SMALL
GASTEIGER

@<TRIPOS>ATOM
      1 C          -2.6935    0.6478   -0.0158 C.ar    1  UNL1       -0.0610
      2 C          -2.6707   -0.7613    0.0569 C.ar    1  UNL1       -0.0610
      3 C          -1.4593   -1.4641    0.0541 C.ar    1  UNL1       -0.0489
      4 C          -0.2989   -0.7205   -0.0284 C.ar    1  UNL1        0.0494
      5 C          -0.3282    0.6575   -0.1183 C.ar    1  UNL1        0.0494
      6 C          -1.5066    1.3770   -0.1087 C.ar    1  UNL1       -0.0489
      7 C           1.0492    1.1203   -0.2150 C.2     1  UNL1        0.2545
      8 O           1.3568    2.2825   -0.3911 O.2     1  UNL1       -0.2695
      9 N           1.8513    0.0194   -0.1166 N.am    1  UNL1       -0.2220
     10 C           1.1081   -1.1283   -0.0220 C.2     1  UNL1        0.2545
     11 O           1.4826   -2.2789    0.0889 O.2     1  UNL1       -0.2695
     12 C           3.3078    0.0310   -0.1382 C.3     1  UNL1        0.1109
     13 H           3.6435   -1.0151   -0.1498 H       1  UNL1        0.0602
     14 C           3.9748    0.6806    1.0731 C.3     1  UNL1       -0.0170
     15 C           3.9971    2.1980    1.0141 C.3     1  UNL1        0.0265
     16 C           4.4714    2.7153   -0.3235 C.2     1  UNL1        0.2193
     17 O           4.8977    3.8591   -0.4648 O.2     1  UNL1       -0.2754
     18 N           4.3805    1.8651   -1.3971 N.am    1  UNL1       -0.2548
     19 C           3.7843    0.6281   -1.4583 C.2     1  UNL1        0.2402
     20 O           3.5676    0.0925   -2.5446 O.2     1  UNL1       -0.2733
     21 H          -3.6478    1.1720   -0.0027 H       1  UNL1        0.0618
     22 H          -3.6107   -1.3068    0.1184 H       1  UNL1        0.0618
     23 H          -1.4310   -2.5475    0.1129 H       1  UNL1        0.0625
     24 H          -1.5040    2.4609   -0.1677 H       1  UNL1        0.0625
     25 H           5.0177    0.3368    1.1113 H       1  UNL1        0.0293
     26 H           3.4997    0.3483    2.0033 H       1  UNL1        0.0293
     27 H           4.6832    2.5730    1.7822 H       1  UNL1        0.0359
     28 H           3.0162    2.6230    1.2381 H       1  UNL1        0.0359
     29 H           4.6327    2.2715   -2.2876 H       1  UNL1        0.1575
@<TRIPOS>BOND
     1     1     6   ar
     2     1     2   ar
     3     1    21    1
     4     2     3   ar
     5     2    22    1
     6     3     4   ar
     7     3    23    1
     8     4    10    1
     9     4     5   ar
    10     5     6   ar
    11     5     7    1
    12     6    24    1
    13     7     8    2
    14     7     9   am
    15     9    10   am
    16     9    12    1
    17    10    11    2
    18    12    13    1
    19    12    19    1
    20    12    14    1
    21    14    15    1
    22    14    25    1
    23    14    26    1
    24    15    16    1
    25    15    27    1
    26    15    28    1
    27    16    17    2
    28    16    18   am
    29    18    19   am
    30    18    29    1
    31    19    20    2
