@<TRIPOS>MOLECULE
ZINC01530752
 58 59 0 0 0
SMALL
GASTEIGER

@<TRIPOS>ATOM
      1 C          -0.7437    0.1054    0.3536 C.3     1  UNL1       -0.0244
      2 C           0.7627    0.1644    0.1826 C.3     1  UNL1       -0.0339
      3 N           1.3245   -1.1495   -0.3159 N.4     1  UNL1        0.2437
      4 C           0.7923   -1.6018   -1.6617 C.3     1  UNL1       -0.0339
      5 C           1.0941   -0.6092   -2.7738 C.3     1  UNL1       -0.0244
      6 C           2.8310   -1.1984   -0.2950 C.3     1  UNL1        0.0310
      7 C           3.3771   -1.0162    1.1118 C.1     1  UNL1       -0.0495
      8 C           3.8455   -0.8599    2.3185 C.1     1  UNL1       -0.0562
      9 C           4.3378   -0.7580    3.7070 C.3     1  UNL1        0.1531
     10 O           3.3761   -0.1116    4.5454 O.3     1  UNL1       -0.4495
     11 C           2.2885   -0.8535    4.8968 C.2     1  UNL1        0.3449
     12 O           2.1214   -2.0325    4.5836 O.2     1  UNL1       -0.2471
     13 C           1.2391   -0.0296    5.7014 C.3     1  UNL1        0.1902
     14 C           1.0760    1.3963    5.1407 C.ar    1  UNL1       -0.0051
     15 C           0.7346    2.4917    5.9453 C.ar    1  UNL1       -0.0553
     16 C           0.7066    3.7879    5.4239 C.ar    1  UNL1       -0.0614
     17 C           0.9960    4.0178    4.0824 C.ar    1  UNL1       -0.0617
     18 C           1.2822    2.9472    3.2502 C.ar    1  UNL1       -0.0614
     19 C           1.2926    1.6555    3.7724 C.ar    1  UNL1       -0.0553
     20 C           1.6038   -0.1101    7.2245 C.3     1  UNL1        0.0026
     21 C           1.5674   -1.5437    7.8104 C.3     1  UNL1       -0.0467
     22 C           1.9358   -1.5569    9.2961 C.3     1  UNL1       -0.0527
     23 C           3.2927   -0.9090    9.5428 C.3     1  UNL1       -0.0530
     24 C           3.3240    0.5132    9.0010 C.3     1  UNL1       -0.0527
     25 C           2.9703    0.5433    7.5214 C.3     1  UNL1       -0.0467
     26 O          -0.0486   -0.6461    5.5043 O.3     1  UNL1       -0.3730
     27 H          -1.2616   -0.0279   -0.6000 H       1  UNL1        0.0281
     28 H          -1.1038    1.0438    0.7880 H       1  UNL1        0.0281
     29 H          -1.0345   -0.7072    1.0269 H       1  UNL1        0.0281
     30 H           1.0749    0.9638   -0.4950 H       1  UNL1        0.0812
     31 H           1.2115    0.3504    1.1543 H       1  UNL1        0.0812
     32 H           1.2498   -2.5742   -1.8774 H       1  UNL1        0.0812
     33 H          -0.2830   -1.7645   -1.5532 H       1  UNL1        0.0812
     34 H           2.1701   -0.4954   -2.9368 H       1  UNL1        0.0281
     35 H           0.6594   -0.9622   -3.7141 H       1  UNL1        0.0281
     36 H           0.6716    0.3795   -2.5740 H       1  UNL1        0.0281
     37 H           3.1433   -2.1738   -0.6821 H       1  UNL1        0.0959
     38 H           3.2092   -0.3991   -0.9396 H       1  UNL1        0.0959
     39 H           4.5978   -1.7337    4.1274 H       1  UNL1        0.0838
     40 H           5.2388   -0.1385    3.7334 H       1  UNL1        0.0838
     41 H           0.5195    2.3732    7.0043 H       1  UNL1        0.0621
     42 H           0.4851    4.6268    6.0788 H       1  UNL1        0.0618
     43 H           1.0002    5.0318    3.6907 H       1  UNL1        0.0618
     44 H           1.5282    3.1160    2.2055 H       1  UNL1        0.0618
     45 H           1.5366    0.8357    3.1093 H       1  UNL1        0.0621
     46 H           0.8280    0.4297    7.7851 H       1  UNL1        0.0337
     47 H           0.5676   -1.9798    7.7024 H       1  UNL1        0.0269
     48 H           2.2633   -2.1968    7.2719 H       1  UNL1        0.0269
     49 H           1.9484   -2.5885    9.6650 H       1  UNL1        0.0265
     50 H           1.1673   -1.0220    9.8678 H       1  UNL1        0.0265
     51 H           4.0767   -1.5043    9.0575 H       1  UNL1        0.0265
     52 H           3.5135   -0.8987   10.6155 H       1  UNL1        0.0265
     53 H           4.3230    0.9414    9.1402 H       1  UNL1        0.0265
     54 H           2.6209    1.1431    9.5587 H       1  UNL1        0.0265
     55 H           3.7635    0.0190    6.9776 H       1  UNL1        0.0269
     56 H           2.9892    1.5825    7.1802 H       1  UNL1        0.0269
     57 H           0.0679   -1.6053    5.6408 H       1  UNL1        0.2113
     58 H           1.0318   -1.8605    0.3684 H       1  UNL1        0.2043
@<TRIPOS>UNITY_ATOM_ATTR
3 1
charge 1
@<TRIPOS>BOND
     1     1     2    1
     2     1    27    1
     3     1    28    1
     4     1    29    1
     5     2     3    1
     6     2    30    1
     7     2    31    1
     8     3     4    1
     9     3     6    1
    10     3    58    1
    11     4     5    1
    12     4    32    1
    13     4    33    1
    14     5    34    1
    15     5    35    1
    16     5    36    1
    17     6     7    1
    18     6    37    1
    19     6    38    1
    20     7     8    3
    21     8     9    1
    22     9    10    1
    23     9    39    1
    24     9    40    1
    25    10    11    1
    26    11    12    2
    27    13    20    1
    28    13    26    1
    29    14    19   ar
    30    14    15   ar
    31    15    16   ar
    32    15    41    1
    33    16    17   ar
    34    16    42    1
    35    17    18   ar
    36    17    43    1
    37    18    19   ar
    38    18    44    1
    39    19    45    1
    40    20    25    1
    41    20    21    1
    42    20    46    1
    43    21    22    1
    44    21    47    1
    45    21    48    1
    46    22    23    1
    47    22    49    1
    48    22    50    1
    49    23    24    1
    50    23    51    1
    51    23    52    1
    52    24    25    1
    53    24    53    1
    54    24    54    1
    55    25    55    1
    56    25    56    1
    57    26    57    1
    58    13    14    1
    59    13    11    1
