@<TRIPOS>MOLECULE
ZINC01855421
 48 50 0 0 0
SMALL
GASTEIGER

@<TRIPOS>ATOM
      1 C          -0.1424    1.1443   -1.9386 C.3     1  UNL1       -0.0219
      2 C          -0.3339   -0.2153   -1.2776 C.3     1  UNL1       -0.0284
      3 C          -1.8012   -0.4431   -0.9264 C.3     1  UNL1       -0.0219
      4 C           1.9443   -0.1943   -0.1198 C.3     1  UNL1       -0.0334
      5 C           2.5875   -0.2099    1.2660 C.3     1  UNL1       -0.0110
      6 C           2.4548   -1.5590    1.9941 C.3     1  UNL1       -0.0261
      7 C           3.1689   -1.6687    3.3766 C.3     1  UNL1        0.0977
      8 C           2.4901   -0.7631    4.4186 C.ar    1  UNL1       -0.0204
      9 C           2.4976    0.6223    4.5120 C.ar    1  UNL1       -0.0567
     10 C           1.7229    1.2265    5.5039 C.ar    1  UNL1       -0.0614
     11 C           0.9809    0.4501    6.4064 C.ar    1  UNL1       -0.0612
     12 C           1.0217   -0.9451    6.3499 C.ar    1  UNL1       -0.0537
     13 C           1.7819   -1.5460    5.3593 C.ar    1  UNL1       -0.0131
     14 C           2.0097   -2.9468    5.0830 C.ar    1  UNL1       -0.0131
     15 C           2.8384   -3.0643    3.9463 C.ar    1  UNL1       -0.0204
     16 C           3.2154   -4.3101    3.4584 C.ar    1  UNL1       -0.0567
     17 C           2.7471   -5.4462    4.1195 C.ar    1  UNL1       -0.0614
     18 C           1.9269   -5.3321    5.2529 C.ar    1  UNL1       -0.0612
     19 C           1.5572   -4.0769    5.7450 C.ar    1  UNL1       -0.0537
     20 C           4.6935   -1.4633    3.2735 C.2     1  UNL1        0.2254
     21 O           5.2837   -1.3723    2.1999 O.2     1  UNL1       -0.2747
     22 N           5.3970   -1.3998    4.4421 N.am    1  UNL1       -0.3283
     23 H          -0.8210    1.2561   -2.7911 H       1  UNL1        0.0284
     24 H           0.8743    1.2609   -2.3263 H       1  UNL1        0.0284
     25 H          -0.3393    1.9648   -1.2401 H       1  UNL1        0.0284
     26 H           0.0255   -1.0204   -1.9276 H       1  UNL1        0.0845
     27 H          -2.4225   -0.4187   -1.8277 H       1  UNL1        0.0284
     28 H          -1.9459   -1.4172   -0.4479 H       1  UNL1        0.0284
     29 H          -2.1727    0.3283   -0.2420 H       1  UNL1        0.0284
     30 H           2.2880   -1.0196   -0.7505 H       1  UNL1        0.0814
     31 H           2.1669    0.7610   -0.6023 H       1  UNL1        0.0814
     32 H           3.6432    0.0448    1.1367 H       1  UNL1        0.0317
     33 H           2.1396    0.5907    1.8586 H       1  UNL1        0.0317
     34 H           1.3870   -1.7773    2.1316 H       1  UNL1        0.0283
     35 H           2.8394   -2.3411    1.3248 H       1  UNL1        0.0283
     36 H           3.0911    1.2368    3.8426 H       1  UNL1        0.0621
     37 H           1.6976    2.3113    5.5871 H       1  UNL1        0.0618
     38 H           0.3809    0.9405    7.1709 H       1  UNL1        0.0618
     39 H           0.4651   -1.5343    7.0724 H       1  UNL1        0.0624
     40 H           3.8553   -4.4106    2.5872 H       1  UNL1        0.0621
     41 H           3.0200   -6.4366    3.7567 H       1  UNL1        0.0618
     42 H           1.5780   -6.2321    5.7565 H       1  UNL1        0.0618
     43 H           0.9306   -4.0045    6.6285 H       1  UNL1        0.0624
     44 H           4.9821   -1.6261    5.3385 H       1  UNL1        0.1450
     45 H           6.4058   -1.3250    4.3910 H       1  UNL1        0.1450
     46 N           0.4546   -0.2985    0.0025 N.4     1  UNL1        0.2288
     47 H           0.1156    0.4208    0.6569 H       1  UNL1        0.2016
     48 H           0.2302   -1.2001    0.4451 H       1  UNL1        0.2016
@<TRIPOS>UNITY_ATOM_ATTR
46 1
charge 1
@<TRIPOS>BOND
     1     1     2    1
     2     1    23    1
     3     1    24    1
     4     1    25    1
     5     2     3    1
     6     2    26    1
     7     2    46    1
     8     3    27    1
     9     3    28    1
    10     3    29    1
    11     4     5    1
    12     4    30    1
    13     4    31    1
    14     4    46    1
    15     5     6    1
    16     5    32    1
    17     5    33    1
    18     6     7    1
    19     6    34    1
    20     6    35    1
    21     7    15    1
    22     7     8    1
    23     7    20    1
    24     8    13   ar
    25     8     9   ar
    26     9    10   ar
    27     9    36    1
    28    10    11   ar
    29    10    37    1
    30    11    12   ar
    31    11    38    1
    32    12    13   ar
    33    12    39    1
    34    13    14    1
    35    14    19   ar
    36    14    15   ar
    37    15    16   ar
    38    16    17   ar
    39    16    40    1
    40    17    18   ar
    41    17    41    1
    42    18    19   ar
    43    18    42    1
    44    19    43    1
    45    20    21    2
    46    20    22   am
    47    22    44    1
    48    22    45    1
    49    46    47    1
    50    46    48    1
