@<TRIPOS>MOLECULE
ZINC00057522
 39 41 0 0 0
SMALL
GASTEIGER

@<TRIPOS>ATOM
      1 C          -6.2787    4.1272    1.1423 C.3     1  UNL1       -0.0397
      2 C          -5.3564    3.2443    0.3546 C.ar    1  UNL1       -0.0487
      3 C          -5.8753    2.3695   -0.6019 C.ar    1  UNL1       -0.0587
      4 C          -5.0209    1.5531   -1.3367 C.ar    1  UNL1       -0.0598
      5 C          -3.6377    1.6101   -1.1301 C.ar    1  UNL1       -0.0402
      6 C          -3.0845    2.4878   -0.1879 C.ar    1  UNL1        0.0369
      7 C          -3.9680    3.2850    0.5615 C.ar    1  UNL1       -0.0373
      8 N          -1.6707    2.5542    0.0556 N.am    1  UNL1       -0.2682
      9 C          -0.8436    1.3727   -0.1845 C.3     1  UNL1        0.0090
     10 C          -1.0434    3.7371    0.4839 C.2     1  UNL1        0.2402
     11 S           0.3392    3.8314    1.4343 S.2     1  UNL1        0.0067
     12 O          -1.6691    4.9137    0.0225 O.3     1  UNL1       -0.4350
     13 C          -1.0295    6.1215   -0.3804 C.ar    1  UNL1        0.1313
     14 C          -1.7245    7.3087   -0.1643 C.ar    1  UNL1       -0.0187
     15 C          -1.1749    8.5119   -0.6167 C.ar    1  UNL1       -0.0506
     16 C           0.0664    8.5356   -1.2815 C.ar    1  UNL1       -0.0177
     17 C           0.6345    9.7342   -1.7468 C.ar    1  UNL1       -0.0540
     18 C           1.8736    9.7338   -2.3934 C.ar    1  UNL1       -0.0612
     19 C           2.5629    8.5400   -2.5783 C.ar    1  UNL1       -0.0612
     20 C           2.0081    7.3395   -2.1339 C.ar    1  UNL1       -0.0539
     21 C           0.7593    7.3179   -1.4929 C.ar    1  UNL1       -0.0144
     22 C           0.1844    6.1137   -1.0655 C.ar    1  UNL1       -0.0115
     23 H          -6.8535    4.7661    0.4637 H       1  UNL1        0.0278
     24 H          -6.9689    3.5225    1.7390 H       1  UNL1        0.0278
     25 H          -5.7248    4.7806    1.8242 H       1  UNL1        0.0278
     26 H          -6.9481    2.3229   -0.7801 H       1  UNL1        0.0620
     27 H          -5.4291    0.8764   -2.0832 H       1  UNL1        0.0618
     28 H          -3.0161    0.9809   -1.7584 H       1  UNL1        0.0636
     29 H          -3.5838    3.9311    1.3478 H       1  UNL1        0.0639
     30 H          -0.0681    1.6340   -0.9134 H       1  UNL1        0.0433
     31 H          -0.3591    1.0701    0.7486 H       1  UNL1        0.0433
     32 H          -1.3999    0.5095   -0.5512 H       1  UNL1        0.0433
     33 H          -2.6861    7.3001    0.3391 H       1  UNL1        0.0654
     34 H          -1.7238    9.4364   -0.4491 H       1  UNL1        0.0625
     35 H           0.1144   10.6785   -1.6120 H       1  UNL1        0.0624
     36 H           2.3001   10.6676   -2.7515 H       1  UNL1        0.0618
     37 H           3.5327    8.5391   -3.0699 H       1  UNL1        0.0618
     38 H           2.5629    6.4162   -2.2842 H       1  UNL1        0.0624
     39 H           0.6891    5.1770   -1.2739 H       1  UNL1        0.0660
@<TRIPOS>BOND
     1     1     2    1
     2     1    23    1
     3     1    24    1
     4     1    25    1
     5     2     7   ar
     6     2     3   ar
     7     3     4   ar
     8     3    26    1
     9     4     5   ar
    10     4    27    1
    11     5     6   ar
    12     5    28    1
    13     6     7   ar
    14     6     8    1
    15     7    29    1
    16     8     9    1
    17     8    10    1
    18     9    30    1
    19     9    31    1
    20     9    32    1
    21    10    11    2
    22    10    12    1
    23    12    13    1
    24    13    22   ar
    25    13    14   ar
    26    14    15   ar
    27    14    33    1
    28    15    16   ar
    29    15    34    1
    30    16    21   ar
    31    16    17   ar
    32    17    18   ar
    33    17    35    1
    34    18    19   ar
    35    18    36    1
    36    19    20   ar
    37    19    37    1
    38    20    21   ar
    39    20    38    1
    40    21    22   ar
    41    22    39    1
