@<TRIPOS>MOLECULE
ZINC01850374
 46 48 0 0 0
SMALL
GASTEIGER

@<TRIPOS>ATOM
      1 C           1.0959   -1.4243   -0.1109 C.3     1  UNL1       -0.0585
      2 C           0.3042   -0.1402   -0.0042 C.3     1  UNL1       -0.0143
      3 C          -1.0692   -0.1557   -0.6611 C.3     1  UNL1       -0.0011
      4 H          -1.4221   -1.1068   -1.0566 H       1  UNL1        0.0357
      5 C          -0.9606   -0.0454    0.8456 C.3     1  UNL1        0.0689
      6 H          -1.1818    0.9276    1.2789 H       1  UNL1        0.0425
      7 C          -1.4001   -1.1658    1.7227 C.2     1  UNL1        0.3116
      8 O          -1.6528   -2.2835    1.2958 O.2     1  UNL1       -0.2505
      9 O          -1.4510   -0.7766    3.0254 O.3     1  UNL1       -0.4596
     10 C          -1.8758   -1.7911    3.9504 C.3     1  UNL1        0.1176
     11 C          -3.3799   -1.8899    3.9714 C.ar    1  UNL1       -0.0068
     12 C          -4.0290   -3.0723    3.5939 C.ar    1  UNL1       -0.0551
     13 C          -5.4228   -3.1302    3.5491 C.ar    1  UNL1       -0.0579
     14 C          -6.1774   -1.9939    3.8414 C.ar    1  UNL1       -0.0193
     15 C          -5.5418   -0.8037    4.1926 C.ar    1  UNL1        0.1288
     16 C          -4.1500   -0.7723    4.3202 C.ar    1  UNL1       -0.0129
     17 O          -6.3629    0.2748    4.4363 O.3     1  UNL1       -0.4560
     18 C          -5.9305    1.5465    4.1294 C.ar    1  UNL1        0.1284
     19 C          -6.4407    2.5716    4.9278 C.ar    1  UNL1       -0.0193
     20 C          -6.0505    3.8934    4.7081 C.ar    1  UNL1       -0.0583
     21 C          -5.1486    4.1938    3.6873 C.ar    1  UNL1       -0.0615
     22 C          -4.6676    3.1786    2.8621 C.ar    1  UNL1       -0.0583
     23 C          -5.0807    1.8608    3.0636 C.ar    1  UNL1       -0.0193
     24 C          -1.4927    0.9925   -1.4822 C.2     1  UNL1       -0.0499
     25 C          -2.7238    1.5040   -1.6234 C.2     1  UNL1        0.1029
     26 CL         -2.9897    2.8384   -2.6911 Cl      1  UNL1       -0.0708
     27 CL         -4.0878    0.8697   -0.7824 Cl      1  UNL1       -0.0708
     28 C           1.1767    1.0928   -0.0644 C.3     1  UNL1       -0.0585
     29 H           0.4975   -2.3182    0.0825 H       1  UNL1        0.0235
     30 H           1.5047   -1.5215   -1.1227 H       1  UNL1        0.0235
     31 H           1.9307   -1.4233    0.5965 H       1  UNL1        0.0235
     32 H          -1.3961   -2.7512    3.7250 H       1  UNL1        0.0749
     33 H          -1.5249   -1.4938    4.9449 H       1  UNL1        0.0749
     34 H          -3.4519   -3.9511    3.3130 H       1  UNL1        0.0621
     35 H          -5.9189   -4.0535    3.2611 H       1  UNL1        0.0619
     36 H          -7.2618   -2.0339    3.7786 H       1  UNL1        0.0654
     37 H          -3.6480    0.1349    4.6474 H       1  UNL1        0.0658
     38 H          -7.1413    2.3388    5.7255 H       1  UNL1        0.0654
     39 H          -6.4477    4.6875    5.3345 H       1  UNL1        0.0619
     40 H          -4.8303    5.2206    3.5277 H       1  UNL1        0.0618
     41 H          -3.9742    3.4115    2.0580 H       1  UNL1        0.0619
     42 H          -4.7197    1.0883    2.3905 H       1  UNL1        0.0654
     43 H          -0.7036    1.4455   -2.0797 H       1  UNL1        0.0598
     44 H           1.5483    1.2489   -1.0826 H       1  UNL1        0.0235
     45 H           0.6431    1.9973    0.2487 H       1  UNL1        0.0235
     46 H           2.0423    0.9824    0.5967 H       1  UNL1        0.0235
@<TRIPOS>BOND
     1     1     2    1
     2     1    29    1
     3     1    30    1
     4     1    31    1
     5     2     5    1
     6     2     3    1
     7     2    28    1
     8     3     5    1
     9     7     8    2
    10     7     9    1
    11     9    10    1
    12    10    11    1
    13    10    32    1
    14    10    33    1
    15    11    16   ar
    16    11    12   ar
    17    12    13   ar
    18    12    34    1
    19    13    14   ar
    20    13    35    1
    21    14    15   ar
    22    14    36    1
    23    15    16   ar
    24    15    17    1
    25    16    37    1
    26    17    18    1
    27    18    23   ar
    28    18    19   ar
    29    19    20   ar
    30    19    38    1
    31    20    21   ar
    32    20    39    1
    33    21    22   ar
    34    21    40    1
    35    22    23   ar
    36    22    41    1
    37    23    42    1
    38    24    25    2
    39    24    43    1
    40    25    26    1
    41    25    27    1
    42    28    44    1
    43    28    45    1
    44    28    46    1
    45     3    24    1
    46     3     4    1
    47     5     7    1
    48     5     6    1
