@<TRIPOS>MOLECULE
ZINC00001681
 40 41 0 0 0
SMALL
GASTEIGER

@<TRIPOS>ATOM
      1 C           3.3471    0.3100    0.3076 C.3     1  UNL1       -0.0306
      2 C           1.9930   -0.3674    0.2120 C.3     1  UNL1        0.0897
      3 O           2.0920   -1.6313    0.8877 O.3     1  UNL1       -0.4643
      4 C           2.5356   -2.6698    0.1296 C.2     1  UNL1        0.3181
      5 O           2.6329   -2.6593   -1.0894 O.2     1  UNL1       -0.2498
      6 C           2.9668   -3.8603    1.0072 C.3     1  UNL1        0.1021
      7 C           2.6628   -5.1417    0.1722 C.3     1  UNL1        0.0075
      8 C           2.8216   -6.4332    0.9636 C.3     1  UNL1       -0.0308
      9 C           2.2910   -5.2105    3.0659 C.3     1  UNL1       -0.0308
     10 C           2.0662   -3.9326    2.2770 C.3     1  UNL1        0.0075
     11 C           0.4971   -6.5948    1.9490 C.3     1  UNL1       -0.0431
     12 C           4.4646   -3.6964    1.3589 C.ar    1  UNL1       -0.0302
     13 C           5.4821   -4.2496    0.5569 C.ar    1  UNL1       -0.0575
     14 C           6.8329   -4.1084    0.8936 C.ar    1  UNL1       -0.0615
     15 C           7.2043   -3.3947    2.0223 C.ar    1  UNL1       -0.0617
     16 C           6.2253   -2.7994    2.8101 C.ar    1  UNL1       -0.0615
     17 C           4.8753   -2.9354    2.4721 C.ar    1  UNL1       -0.0575
     18 H           3.6559    0.3902    1.3553 H       1  UNL1        0.0262
     19 H           3.3198    1.3095   -0.1373 H       1  UNL1        0.0262
     20 H           4.1137   -0.2836   -0.2005 H       1  UNL1        0.0262
     21 H           1.2359    0.2266    0.7339 H       1  UNL1        0.0694
     22 H           1.6650   -0.4807   -0.8274 H       1  UNL1        0.0694
     23 H           3.2800   -5.1978   -0.7312 H       1  UNL1        0.0331
     24 H           1.6377   -5.0827   -0.2180 H       1  UNL1        0.0331
     25 H           3.8556   -6.5890    1.2904 H       1  UNL1        0.0815
     26 H           2.5156   -7.3061    0.3765 H       1  UNL1        0.0815
     27 H           1.6504   -5.2593    3.9527 H       1  UNL1        0.0815
     28 H           3.3285   -5.3236    3.3966 H       1  UNL1        0.0815
     29 H           2.2137   -3.0788    2.9461 H       1  UNL1        0.0331
     30 H           1.0098   -3.8665    1.9819 H       1  UNL1        0.0331
     31 H          -0.0502   -6.3238    2.8533 H       1  UNL1        0.0777
     32 H           0.1843   -5.9668    1.1164 H       1  UNL1        0.0777
     33 H           0.3401   -7.6496    1.7162 H       1  UNL1        0.0777
     34 H           5.2697   -4.7851   -0.3626 H       1  UNL1        0.0621
     35 H           7.5996   -4.5460    0.2556 H       1  UNL1        0.0618
     36 H           8.2555   -3.2772    2.2755 H       1  UNL1        0.0618
     37 H           6.5147   -2.2134    3.6787 H       1  UNL1        0.0618
     38 H           4.1649   -2.4046    3.1014 H       1  UNL1        0.0621
     39 N           1.9722   -6.4032    2.2064 N.4     1  UNL1        0.2331
     40 H           2.2563   -7.2227    2.7632 H       1  UNL1        0.2030
@<TRIPOS>UNITY_ATOM_ATTR
39 1
charge 1
@<TRIPOS>BOND
     1     1     2    1
     2     1    18    1
     3     1    19    1
     4     1    20    1
     5     2     3    1
     6     2    21    1
     7     2    22    1
     8     3     4    1
     9     4     5    2
    10     6     4    1
    11     6    10    1
    12     6     7    1
    13     6    12    1
    14     7     8    1
    15     7    23    1
    16     7    24    1
    17     8    25    1
    18     8    26    1
    19     8    39    1
    20     9    10    1
    21     9    27    1
    22     9    28    1
    23     9    39    1
    24    10    29    1
    25    10    30    1
    26    11    31    1
    27    11    32    1
    28    11    33    1
    29    12    17   ar
    30    12    13   ar
    31    13    14   ar
    32    13    34    1
    33    14    15   ar
    34    14    35    1
    35    15    16   ar
    36    15    36    1
    37    16    17   ar
    38    16    37    1
    39    17    38    1
    40    39    40    1
    41    39    11    1
