@<TRIPOS>MOLECULE
ZINC03794794
 62 64 0 0 0
SMALL
GASTEIGER

@<TRIPOS>ATOM
      1 C           3.5759    0.6232   -0.1302 C.ar    1  UNL1       -0.0384
      2 C           3.5526   -0.7670   -0.1699 C.ar    1  UNL1       -0.0384
      3 C           2.3555   -1.5011   -0.1047 C.ar    1  UNL1        0.0390
      4 C           1.1645   -0.7784    0.1543 C.ar    1  UNL1        0.0558
      5 C           1.1895    0.6329    0.2083 C.ar    1  UNL1        0.0558
      6 C           2.4000    1.3575    0.0493 C.ar    1  UNL1        0.0390
      7 N           2.3932    2.7568   -0.0560 N.pl3   1  UNL1       -0.3382
      8 C           3.6296    3.5277   -0.1057 C.3     1  UNL1        0.0492
      9 C           3.3670    5.0399   -0.1382 C.3     1  UNL1       -0.0178
     10 N           2.7105    5.4796    1.1266 N.4     1  UNL1        0.2297
     11 C           2.4882    6.9591    1.2433 C.3     1  UNL1       -0.0099
     12 C           1.6793    7.1886    2.5157 C.3     1  UNL1        0.0840
     13 O           0.5476    6.3217    2.4405 O.3     1  UNL1       -0.3898
     14 C          -0.0665    1.3844    0.4758 C.2     1  UNL1        0.1999
     15 O           0.0056    2.5243    0.9439 O.2     1  UNL1       -0.2864
     16 C          -1.3665    0.7249    0.2164 C.ar    1  UNL1        0.0780
     17 C          -2.5526    1.4391    0.0022 C.ar    1  UNL1        0.1286
     18 C          -3.7636    0.7692   -0.2071 C.ar    1  UNL1       -0.0160
     19 C          -3.7907   -0.6250   -0.2155 C.ar    1  UNL1       -0.0160
     20 C          -2.6141   -1.3350   -0.0049 C.ar    1  UNL1        0.1286
     21 C          -1.3987   -0.6662    0.2056 C.ar    1  UNL1        0.0780
     22 C          -0.1498   -1.4180    0.4336 C.2     1  UNL1        0.1999
     23 O          -0.2437   -2.5642    0.8663 O.2     1  UNL1       -0.2864
     24 O          -2.7161   -2.6999   -0.0160 O.3     1  UNL1       -0.5060
     25 O          -2.5446    2.8046   -0.0389 O.3     1  UNL1       -0.5060
     26 N           2.5473   -2.9058   -0.1962 N.pl3   1  UNL1       -0.3382
     27 C           1.5230   -3.6864   -0.9034 C.3     1  UNL1        0.0492
     28 C           2.1480   -4.7962   -1.7653 C.3     1  UNL1       -0.0178
     29 N           2.9670   -5.7270   -0.9322 N.4     1  UNL1        0.2297
     30 C           3.4516   -6.9384   -1.6713 C.3     1  UNL1       -0.0099
     31 C           4.3821   -7.7254   -0.7497 C.3     1  UNL1        0.0840
     32 O           5.3847   -6.8168   -0.2954 O.3     1  UNL1       -0.3898
     33 H           4.5439    1.1071   -0.2380 H       1  UNL1        0.0637
     34 H           4.5005   -1.2908   -0.2928 H       1  UNL1        0.0637
     35 H           1.5631    3.1472    0.4081 H       1  UNL1        0.1463
     36 H           4.2543    3.2924    0.7651 H       1  UNL1        0.0514
     37 H           4.1872    3.2658   -1.0103 H       1  UNL1        0.0514
     38 H           4.3168    5.5822   -0.2144 H       1  UNL1        0.0829
     39 H           2.7104    5.3206   -0.9665 H       1  UNL1        0.0829
     40 H           1.7695    5.0510    1.2273 H       1  UNL1        0.2015
     41 H           3.4594    7.4601    1.2559 H       1  UNL1        0.0836
     42 H           1.9075    7.2514    0.3621 H       1  UNL1        0.0836
     43 H           2.2635    6.9057    3.4005 H       1  UNL1        0.0610
     44 H           1.3628    8.2287    2.6145 H       1  UNL1        0.0610
     45 H          -0.2571    6.8693    2.5397 H       1  UNL1        0.2096
     46 H          -4.6948    1.3081   -0.3723 H       1  UNL1        0.0655
     47 H          -4.7277   -1.1549   -0.3781 H       1  UNL1        0.0655
     48 H          -1.9275   -3.0643    0.4353 H       1  UNL1        0.2922
     49 H          -3.4593    3.1353   -0.0794 H       1  UNL1        0.2922
     50 H           2.6832   -3.2407    0.7615 H       1  UNL1        0.1463
     51 H           0.8785   -4.1813   -0.1728 H       1  UNL1        0.0514
     52 H           0.9153   -3.0576   -1.5642 H       1  UNL1        0.0514
     53 H           1.3541   -5.3917   -2.2295 H       1  UNL1        0.0829
     54 H           2.8066   -4.3848   -2.5356 H       1  UNL1        0.0829
     55 H           3.8080   -5.2268   -0.5816 H       1  UNL1        0.2015
     56 H           2.5811   -7.5278   -1.9773 H       1  UNL1        0.0836
     57 H           4.0039   -6.5664   -2.5370 H       1  UNL1        0.0836
     58 H           3.8376   -8.1075    0.1237 H       1  UNL1        0.0610
     59 H           4.8400   -8.5617   -1.2805 H       1  UNL1        0.0610
     60 H           6.2417   -7.2887   -0.3404 H       1  UNL1        0.2096
     61 H           3.2258    5.1407    1.9492 H       1  UNL1        0.2015
     62 H           2.4593   -6.0129   -0.0849 H       1  UNL1        0.2015
@<TRIPOS>UNITY_ATOM_ATTR
10 1
charge 1
29 1
charge 1
@<TRIPOS>BOND
     1     1     6   ar
     2     1     2   ar
     3     1    33    1
     4     2     3   ar
     5     2    34    1
     6     3     4   ar
     7     3    26    1
     8     4    22    1
     9     4     5   ar
    10     5     6   ar
    11     5    14    1
    12     6     7    1
    13     7     8    1
    14     7    35    1
    15     8     9    1
    16     8    36    1
    17     8    37    1
    18     9    10    1
    19     9    38    1
    20     9    39    1
    21    10    11    1
    22    10    40    1
    23    10    61    1
    24    11    12    1
    25    11    41    1
    26    11    42    1
    27    12    13    1
    28    12    43    1
    29    12    44    1
    30    13    45    1
    31    14    15    2
    32    14    16    1
    33    16    21   ar
    34    16    17   ar
    35    17    18   ar
    36    17    25    1
    37    18    19   ar
    38    18    46    1
    39    19    20   ar
    40    19    47    1
    41    20    21   ar
    42    20    24    1
    43    21    22    1
    44    22    23    2
    45    24    48    1
    46    25    49    1
    47    26    27    1
    48    26    50    1
    49    27    28    1
    50    27    51    1
    51    27    52    1
    52    28    29    1
    53    28    53    1
    54    28    54    1
    55    29    30    1
    56    29    55    1
    57    29    62    1
    58    30    31    1
    59    30    56    1
    60    30    57    1
    61    31    32    1
    62    31    58    1
    63    31    59    1
    64    32    60    1
