@<TRIPOS>MOLECULE
ZINC01999261
 42 44 0 0 0
SMALL
GASTEIGER

@<TRIPOS>ATOM
      1 C           1.5187    1.7581    1.8983 C.3     1  UNL1       -0.0653
      2 C           1.7548    1.8014    0.3950 C.3     1  UNL1       -0.0556
      3 C           0.4981    2.2444   -0.3616 C.3     1  UNL1       -0.0491
      4 C           0.6838    2.3078   -1.8877 C.3     1  UNL1       -0.0216
      5 C           1.0025    0.9889   -2.5104 C.ar    1  UNL1        0.0295
      6 C           0.0557   -0.1511   -2.4655 C.ar    1  UNL1        0.2747
      7 N           0.7022   -1.2310   -3.0609 N.ar    1  UNL1       -0.2130
      8 N           1.9921   -0.8113   -3.4480 N.ar    1  UNL1       -0.2594
      9 C           2.1153    0.5602   -3.1510 C.ar    1  UNL1       -0.0029
     10 O           3.1818    1.1350   -3.4754 O.co2   1  UNL1       -0.8598
     11 C           2.5890   -1.5347   -4.5355 C.ar    1  UNL1        0.0633
     12 C           3.9831   -1.7078   -4.5764 C.ar    1  UNL1       -0.0363
     13 C           4.5788   -2.5959   -5.4777 C.ar    1  UNL1       -0.0598
     14 C           3.7925   -3.3234   -6.3664 C.ar    1  UNL1       -0.0616
     15 C           2.4124   -3.1327   -6.3822 C.ar    1  UNL1       -0.0598
     16 C           1.8217   -2.2409   -5.4838 C.ar    1  UNL1       -0.0363
     17 C           0.4480   -2.5647   -2.6512 C.ar    1  UNL1        0.0677
     18 C           1.4787   -3.4268   -2.2415 C.ar    1  UNL1       -0.0362
     19 C           1.2166   -4.7614   -1.9500 C.ar    1  UNL1       -0.0598
     20 C          -0.0776   -5.2592   -2.0831 C.ar    1  UNL1       -0.0616
     21 C          -1.1147   -4.4146   -2.4749 C.ar    1  UNL1       -0.0598
     22 C          -0.8572   -3.0693   -2.7385 C.ar    1  UNL1       -0.0362
     23 O          -1.0467   -0.1106   -1.9319 O.2     1  UNL1       -0.2656
     24 H           1.0613    2.6843    2.2594 H       1  UNL1        0.0230
     25 H           2.4675    1.6191    2.4270 H       1  UNL1        0.0230
     26 H           0.8609    0.9239    2.1646 H       1  UNL1        0.0230
     27 H           2.5724    2.4968    0.1794 H       1  UNL1        0.0263
     28 H           2.0759    0.8067    0.0654 H       1  UNL1        0.0263
     29 H          -0.3360    1.5764   -0.1048 H       1  UNL1        0.0268
     30 H           0.2063    3.2420   -0.0104 H       1  UNL1        0.0268
     31 H          -0.2337    2.6953   -2.3342 H       1  UNL1        0.0315
     32 H           1.4655    3.0406   -2.1139 H       1  UNL1        0.0315
     33 H           4.5972   -1.1656   -3.8598 H       1  UNL1        0.0639
     34 H           5.6562   -2.7280   -5.4596 H       1  UNL1        0.0618
     35 H           4.2519   -4.0340   -7.0457 H       1  UNL1        0.0618
     36 H           1.7893   -3.6914   -7.0739 H       1  UNL1        0.0618
     37 H           0.7431   -2.1159   -5.5013 H       1  UNL1        0.0639
     38 H           2.4916   -3.0450   -2.1408 H       1  UNL1        0.0639
     39 H           2.0269   -5.4102   -1.6364 H       1  UNL1        0.0618
     40 H          -0.2787   -6.3105   -1.8844 H       1  UNL1        0.0618
     41 H          -2.1250   -4.7982   -2.5864 H       1  UNL1        0.0618
     42 H          -1.6653   -2.4190   -3.0665 H       1  UNL1        0.0639
@<TRIPOS>UNITY_ATOM_ATTR
10 1
charge -1
@<TRIPOS>BOND
     1     1     2    1
     2     1    24    1
     3     1    25    1
     4     1    26    1
     5     2     3    1
     6     2    27    1
     7     2    28    1
     8     3     4    1
     9     3    29    1
    10     3    30    1
    11     4    31    1
    12     4    32    1
    13     4     5    1
    14     5     6   ar
    15     5     9   ar
    16     6     7   ar
    17     6    23    2
    18     7     8   ar
    19     7    17    1
    20     8     9   ar
    21     8    11    1
    22     9    10    1
    23    11    16   ar
    24    11    12   ar
    25    12    13   ar
    26    12    33    1
    27    13    14   ar
    28    13    34    1
    29    14    15   ar
    30    14    35    1
    31    15    16   ar
    32    15    36    1
    33    16    37    1
    34    17    22   ar
    35    17    18   ar
    36    18    19   ar
    37    18    38    1
    38    19    20   ar
    39    19    39    1
    40    20    21   ar
    41    20    40    1
    42    21    22   ar
    43    21    41    1
    44    22    42    1
