@<TRIPOS>MOLECULE
ZINC00896546
 13 13 0 0 0
SMALL
GASTEIGER

@<TRIPOS>ATOM
      1 C          -0.2533    1.5436    0.0253 C.ar    1  UNL1        0.0450
      2 C          -1.1394    0.5549   -0.0285 C.ar    1  UNL1        0.1787
      3 C          -0.6026   -0.8309   -0.0715 C.ar    1  UNL1        0.1586
      4 N           0.6734   -1.0874   -0.0286 N.ar    1  UNL1       -0.1756
      5 C           1.5703   -0.0463    0.0302 C.ar    1  UNL1        0.3477
      6 O           2.7846   -0.2125    0.0680 O.2     1  UNL1       -0.2447
      7 N           1.0787    1.2429    0.0482 N.ar    1  UNL1       -0.3101
      8 H           1.7836    1.9675    0.0854 H       1  UNL1        0.1700
      9 N          -1.4544   -1.9023   -0.1550 N.pl3   1  UNL1       -0.3407
     10 F          -2.4707    0.7293   -0.0392 F       1  UNL1       -0.2004
     11 H          -0.5379    2.5879    0.0552 H       1  UNL1        0.0839
     12 H          -2.4050   -1.7749    0.1712 H       1  UNL1        0.1438
     13 H          -1.0271   -2.7875    0.0952 H       1  UNL1        0.1438
@<TRIPOS>BOND
     1     1     7   ar
     2     1     2   ar
     3     1    11    1
     4     2     3   ar
     5     2    10    1
     6     3     4   ar
     7     3     9    1
     8     4     5   ar
     9     5     6    2
    10     5     7   ar
    11     7     8    1
    12     9    12    1
    13     9    13    1
