@<TRIPOS>MOLECULE
ZINC00105216
 30 31 0 0 0
SMALL
GASTEIGER

@<TRIPOS>ATOM
      1 C           1.1796    0.8092   -1.2306 C.3     1  UNL1       -0.0480
      2 C           0.5501    1.5014   -0.0208 C.3     1  UNL1        0.0828
      3 H           0.8799    2.5492   -0.0595 H       1  UNL1        0.0461
      4 C          -0.9706    1.4698   -0.0724 C.ar    1  UNL1       -0.0332
      5 C          -1.6931    2.6684   -0.1186 C.ar    1  UNL1       -0.0572
      6 C          -3.0887    2.6631   -0.1834 C.ar    1  UNL1       -0.0536
      7 C          -3.8034    1.4560   -0.2045 C.ar    1  UNL1       -0.0144
      8 C          -5.2086    1.4287   -0.2707 C.ar    1  UNL1       -0.0122
      9 C          -5.9124    0.2203   -0.2909 C.ar    1  UNL1        0.1207
     10 C          -5.2046   -0.9786   -0.2412 C.ar    1  UNL1       -0.0194
     11 C          -3.8068   -0.9675   -0.1688 C.ar    1  UNL1       -0.0506
     12 C          -3.0909    0.2396   -0.1516 C.ar    1  UNL1       -0.0174
     13 C          -1.6853    0.2613   -0.0803 C.ar    1  UNL1       -0.0501
     14 O          -7.2746    0.3466   -0.3587 O.3     1  UNL1       -0.4951
     15 C          -8.0266   -0.8600   -0.3744 C.3     1  UNL1        0.0788
     16 C           1.0832    0.9275    1.3099 C.2     1  UNL1        0.3630
     17 O           1.4239   -0.2919    1.3007 O.co2   1  UNL1       -0.2457
     18 O           1.1605    1.7638    2.2588 O.co2   1  UNL1       -0.2457
     19 H           0.8509    1.2781   -2.1644 H       1  UNL1        0.0241
     20 H           0.9235   -0.2545   -1.2866 H       1  UNL1        0.0241
     21 H           2.2724    0.8795   -1.1855 H       1  UNL1        0.0241
     22 H          -1.1641    3.6184   -0.0899 H       1  UNL1        0.0621
     23 H          -3.6137    3.6151   -0.2109 H       1  UNL1        0.0624
     24 H          -5.7669    2.3611   -0.3039 H       1  UNL1        0.0660
     25 H          -5.7021   -1.9415   -0.2523 H       1  UNL1        0.0654
     26 H          -3.2708   -1.9134   -0.1229 H       1  UNL1        0.0625
     27 H          -1.1284   -0.6736   -0.0133 H       1  UNL1        0.0627
     28 H          -7.7988   -1.4550   -1.2652 H       1  UNL1        0.0660
     29 H          -7.8669   -1.4399    0.5408 H       1  UNL1        0.0660
     30 H          -9.0874   -0.5938   -0.4161 H       1  UNL1        0.0660
@<TRIPOS>BOND
     1     1     2    1
     2     1    19    1
     3     1    20    1
     4     1    21    1
     5     2     3    1
     6     2     4    1
     7     2    16    1
     8     4    13   ar
     9     4     5   ar
    10     5     6   ar
    11     5    22    1
    12     6     7   ar
    13     6    23    1
    14     7    12   ar
    15     7     8   ar
    16     8     9   ar
    17     8    24    1
    18     9    10   ar
    19     9    14    1
    20    10    11   ar
    21    10    25    1
    22    11    12   ar
    23    11    26    1
    24    12    13   ar
    25    13    27    1
    26    14    15    1
    27    15    28    1
    28    15    29    1
    29    15    30    1
    30    16    17   ar
    31    16    18   ar
