@<TRIPOS>MOLECULE
ZINC00896870
 29 30 0 0 0
SMALL
GASTEIGER

@<TRIPOS>ATOM
      1 C           1.3464    0.0795    2.4071 C.3     1  UNL1       -0.0189
      2 C           0.5325    0.7098    1.2790 C.3     1  UNL1        0.0056
      3 H           0.8252    0.2199    0.3459 H       1  UNL1        0.0877
      4 C          -1.0026    0.6474    1.5217 C.3     1  UNL1        0.1259
      5 H          -1.2679   -0.3921    1.7513 H       1  UNL1        0.0703
      6 O          -1.3065    1.4021    2.7162 O.3     1  UNL1       -0.3611
      7 C          -0.9212    2.7819    2.6824 C.3     1  UNL1        0.0885
      8 C           0.5371    3.0253    2.2810 C.3     1  UNL1       -0.0093
      9 N           0.9432    2.1663    1.1223 N.4     1  UNL1        0.2327
     10 C          -1.8699    1.0394    0.3259 C.ar    1  UNL1       -0.0135
     11 C          -3.1491    1.5856    0.5253 C.ar    1  UNL1       -0.0559
     12 C          -3.9828    1.9049   -0.5514 C.ar    1  UNL1       -0.0614
     13 C          -3.5634    1.6555   -1.8547 C.ar    1  UNL1       -0.0617
     14 C          -2.3166    1.0883   -2.0788 C.ar    1  UNL1       -0.0614
     15 C          -1.4798    0.7729   -1.0038 C.ar    1  UNL1       -0.0559
     16 H           2.4184    0.2467    2.2554 H       1  UNL1        0.0285
     17 H           1.1785   -1.0026    2.4322 H       1  UNL1        0.0285
     18 H           1.0791    0.4743    3.3929 H       1  UNL1        0.0285
     19 H          -1.5993    3.3382    2.0265 H       1  UNL1        0.0614
     20 H          -1.0749    3.1780    3.6926 H       1  UNL1        0.0614
     21 H           0.7025    4.0645    1.9857 H       1  UNL1        0.0837
     22 H           1.2197    2.7816    3.1018 H       1  UNL1        0.0837
     23 H           0.4994    2.5322    0.2671 H       1  UNL1        0.2018
     24 H          -3.5293    1.7575    1.5331 H       1  UNL1        0.0621
     25 H          -4.9693    2.3257   -0.3715 H       1  UNL1        0.0618
     26 H          -4.2232    1.8792   -2.6902 H       1  UNL1        0.0618
     27 H          -2.0060    0.8626   -3.0992 H       1  UNL1        0.0618
     28 H          -0.5449    0.2809   -1.2483 H       1  UNL1        0.0621
     29 H           1.9579    2.2301    0.9721 H       1  UNL1        0.2018
@<TRIPOS>UNITY_ATOM_ATTR
9 1
charge 1
@<TRIPOS>BOND
     1     1    16    1
     2     1    17    1
     3     1    18    1
     4     2     9    1
     5     2     4    1
     6     4     5    1
     7     4     6    1
     8     4    10    1
     9     6     7    1
    10     7     8    1
    11     7    19    1
    12     7    20    1
    13     8     9    1
    14     8    21    1
    15     8    22    1
    16     9    23    1
    17     9    29    1
    18    10    15   ar
    19    10    11   ar
    20    11    12   ar
    21    11    24    1
    22    12    13   ar
    23    12    25    1
    24    13    14   ar
    25    13    26    1
    26    14    15   ar
    27    14    27    1
    28    15    28    1
    29     2     3    1
    30     2     1    1
