@<TRIPOS>MOLECULE
ZINC00001091
 22 22 0 0 0
SMALL
GASTEIGER

@<TRIPOS>ATOM
      1 C           0.0198   -0.1284   -1.4747 C.3     1  UNL1       -0.0305
      2 C           1.0029   -0.3179   -2.6165 C.3     1  UNL1        0.0915
      3 O           1.4636   -1.6786   -2.6693 O.3     1  UNL1       -0.4484
      4 C           2.4766   -1.9770   -1.7963 C.2     1  UNL1        0.4214
      5 O           2.9216   -1.1441   -1.0127 O.2     1  UNL1       -0.2227
      6 N           2.9300   -3.2905   -1.9181 N.ar    1  UNL1       -0.2308
      7 C           2.4537   -4.2166   -2.8371 C.ar    1  UNL1        0.0342
      8 C           3.1353   -5.3631   -2.7290 C.ar    1  UNL1        0.0233
      9 N           4.0743   -5.2378   -1.7304 N.ar    1  UNL1       -0.3290
     10 C           3.9815   -3.9328   -1.1614 C.ar    1  UNL1        0.1695
     11 S           4.8935   -3.3320    0.0935 S.2     1  UNL1       -0.0122
     12 C           5.0016   -6.2932   -1.3754 C.3     1  UNL1        0.0137
     13 H          -0.8196   -0.8235   -1.5725 H       1  UNL1        0.0262
     14 H          -0.3649    0.8950   -1.4613 H       1  UNL1        0.0262
     15 H           0.4882   -0.3325   -0.5063 H       1  UNL1        0.0262
     16 H           0.5049   -0.1082   -3.5687 H       1  UNL1        0.0695
     17 H           1.8462    0.3793   -2.5419 H       1  UNL1        0.0695
     18 H           1.6499   -3.9890   -3.5240 H       1  UNL1        0.0830
     19 H           3.0201   -6.2728   -3.2988 H       1  UNL1        0.0824
     20 H           4.4352   -7.1865   -1.0984 H       1  UNL1        0.0456
     21 H           5.6365   -6.5105   -2.2395 H       1  UNL1        0.0456
     22 H           5.6389   -6.0054   -0.5374 H       1  UNL1        0.0456
@<TRIPOS>BOND
     1     1     2    1
     2     1    13    1
     3     1    14    1
     4     1    15    1
     5     2     3    1
     6     2    16    1
     7     2    17    1
     8     3     4    1
     9     4     5    2
    10     4     6   am
    11     6    10   ar
    12     6     7   ar
    13     7     8   ar
    14     7    18    1
    15     8     9   ar
    16     8    19    1
    17     9    10   ar
    18     9    12    1
    19    10    11    2
    20    12    20    1
    21    12    21    1
    22    12    22    1
