@<TRIPOS>MOLECULE
ZINC01542393
 64 66 0 0 0
SMALL
GASTEIGER

@<TRIPOS>ATOM
      1 C          -9.1973    3.1945   -0.5889 C.3     1  UNL1       -0.0651
      2 C          -7.6829    3.0861   -0.5112 C.3     1  UNL1       -0.0511
      3 C          -7.2519    1.7594    0.1138 C.3     1  UNL1       -0.0128
      4 C          -5.7359    1.5897    0.2078 C.3     1  UNL1       -0.0319
      5 N          -5.0421    2.6790    1.0289 N.4     1  UNL1        0.2353
      6 C          -5.5226    2.6703    2.4798 C.3     1  UNL1       -0.0319
      7 C          -4.8808    3.7433    3.3674 C.3     1  UNL1       -0.0128
      8 C          -4.9940    5.1882    2.8752 C.3     1  UNL1       -0.0511
      9 C          -6.4236    5.7023    2.8250 C.3     1  UNL1       -0.0651
     10 C          -3.5253    2.5566    0.9492 C.3     1  UNL1       -0.0292
     11 C          -2.9906    2.7709   -0.4648 C.3     1  UNL1        0.0177
     12 C          -1.4570    2.7895   -0.4315 C.3     1  UNL1        0.0856
     13 H          -1.1006    3.6286    0.1736 H       1  UNL1        0.0645
     14 C          -0.8631    2.8863   -1.8312 C.ar    1  UNL1       -0.0106
     15 C          -0.5349    1.7024   -2.5063 C.ar    1  UNL1       -0.0464
     16 C           0.0183    1.6705   -3.7978 C.ar    1  UNL1        0.0015
     17 C           0.2736    2.9032   -4.4445 C.ar    1  UNL1       -0.0074
     18 C           0.8337    2.8299   -5.7499 C.ar    1  UNL1       -0.0350
     19 C           1.1234    1.6120   -6.3715 C.ar    1  UNL1        0.0430
     20 C           0.8739    0.4182   -5.7294 C.ar    1  UNL1       -0.0244
     21 C           0.3229    0.4455   -4.4519 C.ar    1  UNL1        0.0501
     22 CL          0.0166   -1.1001   -3.7173 Cl      1  UNL1       -0.0829
     23 CL          1.7899    1.6030   -7.9568 Cl      1  UNL1       -0.0835
     24 C          -0.0458    4.1461   -3.7755 C.ar    1  UNL1       -0.0092
     25 C          -0.6452    4.1290   -2.4822 C.ar    1  UNL1       -0.0116
     26 C          -0.9988    5.3682   -1.8825 C.ar    1  UNL1       -0.0531
     27 C          -0.7314    6.5956   -2.4879 C.ar    1  UNL1       -0.0495
     28 C          -0.1009    6.6384   -3.7221 C.ar    1  UNL1        0.0554
     29 C           0.2194    5.4220   -4.3486 C.ar    1  UNL1       -0.0418
     30 C           0.2511    7.9547   -4.3803 C.3     1  UNL1        0.4174
     31 F          -0.1353    9.0394   -3.6533 F       1  UNL1       -0.1659
     32 F           1.5896    8.0912   -4.5782 F       1  UNL1       -0.1659
     33 F          -0.3308    8.0936   -5.6012 F       1  UNL1       -0.1659
     34 O          -1.0149    1.6353    0.2879 O.3     1  UNL1       -0.3870
     35 H          -9.6121    2.4324   -1.2558 H       1  UNL1        0.0230
     36 H          -9.4858    4.1779   -0.9730 H       1  UNL1        0.0230
     37 H          -9.6497    3.0708    0.4004 H       1  UNL1        0.0230
     38 H          -7.2600    3.1783   -1.5185 H       1  UNL1        0.0264
     39 H          -7.3082    3.9287    0.0768 H       1  UNL1        0.0264
     40 H          -7.7170    1.6316    1.0967 H       1  UNL1        0.0317
     41 H          -7.6410    0.9387   -0.5036 H       1  UNL1        0.0317
     42 H          -5.4738    0.6262    0.6592 H       1  UNL1        0.0814
     43 H          -5.3268    1.6269   -0.8046 H       1  UNL1        0.0814
     44 H          -6.6039    2.8199    2.4635 H       1  UNL1        0.0814
     45 H          -5.3122    1.6716    2.8786 H       1  UNL1        0.0814
     46 H          -5.3400    3.6737    4.3614 H       1  UNL1        0.0317
     47 H          -3.8227    3.5070    3.5306 H       1  UNL1        0.0317
     48 H          -4.4237    5.8306    3.5581 H       1  UNL1        0.0264
     49 H          -4.5283    5.2989    1.8906 H       1  UNL1        0.0264
     50 H          -6.8336    5.8034    3.8350 H       1  UNL1        0.0230
     51 H          -6.4500    6.6891    2.3517 H       1  UNL1        0.0230
     52 H          -7.0789    5.0414    2.2530 H       1  UNL1        0.0230
     53 H          -3.0990    3.3335    1.5864 H       1  UNL1        0.0815
     54 H          -3.2670    1.5724    1.3535 H       1  UNL1        0.0815
     55 H          -3.3138    1.9523   -1.1172 H       1  UNL1        0.0345
     56 H          -3.3816    3.7022   -0.8901 H       1  UNL1        0.0345
     57 H          -0.6987    0.7528   -2.0048 H       1  UNL1        0.0628
     58 H           1.0512    3.7308   -6.3119 H       1  UNL1        0.0638
     59 H           1.0962   -0.5285   -6.2160 H       1  UNL1        0.0647
     60 H          -1.4878    5.4121   -0.9148 H       1  UNL1        0.0624
     61 H          -1.0057    7.5180   -1.9756 H       1  UNL1        0.0623
     62 H           0.7078    5.4991   -5.3203 H       1  UNL1        0.0629
     63 H          -1.3450    0.8287   -0.1424 H       1  UNL1        0.2102
     64 H          -5.2965    3.5875    0.6225 H       1  UNL1        0.2033
@<TRIPOS>UNITY_ATOM_ATTR
5 1
charge 1
@<TRIPOS>BOND
     1     1     2    1
     2     1    35    1
     3     1    36    1
     4     1    37    1
     5     2     3    1
     6     2    38    1
     7     2    39    1
     8     3     4    1
     9     3    40    1
    10     3    41    1
    11     4     5    1
    12     4    42    1
    13     4    43    1
    14     5     6    1
    15     5    10    1
    16     5    64    1
    17     6     7    1
    18     6    44    1
    19     6    45    1
    20     7     8    1
    21     7    46    1
    22     7    47    1
    23     8     9    1
    24     8    48    1
    25     8    49    1
    26     9    50    1
    27     9    51    1
    28     9    52    1
    29    10    11    1
    30    10    53    1
    31    10    54    1
    32    11    55    1
    33    11    56    1
    34    12    14    1
    35    12    34    1
    36    14    25   ar
    37    14    15   ar
    38    15    16   ar
    39    15    57    1
    40    16    21   ar
    41    16    17   ar
    42    17    18   ar
    43    17    24   ar
    44    18    19   ar
    45    18    58    1
    46    19    20   ar
    47    19    23    1
    48    20    21   ar
    49    20    59    1
    50    21    22    1
    51    24    29   ar
    52    24    25   ar
    53    25    26   ar
    54    26    27   ar
    55    26    60    1
    56    27    28   ar
    57    27    61    1
    58    28    29   ar
    59    28    30    1
    60    29    62    1
    61    30    31    1
    62    30    32    1
    63    30    33    1
    64    34    63    1
    65    12    13    1
    66    12    11    1
