@<TRIPOS>MOLECULE
ZINC00056648
 31 31 0 0 0
SMALL
GASTEIGER

@<TRIPOS>ATOM
      1 C           0.7797    0.0843   -0.0277 C.3     1  UNL1       -0.0306
      2 C           0.6308   -1.1083    0.8948 C.3     1  UNL1        0.0898
      3 O           1.1024   -0.7838    2.2093 O.3     1  UNL1       -0.4622
      4 C           2.4503   -0.9045    2.4323 C.2     1  UNL1        0.3508
      5 O           3.2622   -1.2166    1.5714 O.2     1  UNL1       -0.2463
      6 C           2.7635   -0.6059    3.9230 C.3     1  UNL1        0.2005
      7 C           2.2617    0.8254    4.1787 C.3     1  UNL1       -0.0145
      8 C           2.0468   -1.7125    4.7163 C.3     1  UNL1       -0.0145
      9 O           4.1939   -0.7000    4.0677 O.3     1  UNL1       -0.4750
     10 C           4.8398   -0.5437    5.2592 C.ar    1  UNL1        0.1222
     11 C           4.2594   -0.2078    6.4811 C.ar    1  UNL1       -0.0185
     12 C           5.0430   -0.0463    7.6281 C.ar    1  UNL1       -0.0399
     13 C           6.4164   -0.2289    7.5614 C.ar    1  UNL1        0.0412
     14 C           7.0138   -0.5816    6.3562 C.ar    1  UNL1       -0.0399
     15 C           6.2228   -0.7324    5.2090 C.ar    1  UNL1       -0.0185
     16 CL          7.3685   -0.0175    8.9765 Cl      1  UNL1       -0.0835
     17 H           0.2906    0.9660    0.3996 H       1  UNL1        0.0262
     18 H           0.3380   -0.1272   -1.0054 H       1  UNL1        0.0262
     19 H           1.8337    0.3416   -0.1685 H       1  UNL1        0.0262
     20 H          -0.4293   -1.3619    0.9965 H       1  UNL1        0.0694
     21 H           1.1397   -1.9961    0.5040 H       1  UNL1        0.0694
     22 H           1.1738    0.8987    4.0887 H       1  UNL1        0.0273
     23 H           2.5268    1.2223    5.1589 H       1  UNL1        0.0273
     24 H           2.7085    1.5178    3.4540 H       1  UNL1        0.0273
     25 H           2.5438   -2.6768    4.5517 H       1  UNL1        0.0273
     26 H           2.0442   -1.5427    5.7933 H       1  UNL1        0.0273
     27 H           0.9978   -1.8251    4.4231 H       1  UNL1        0.0273
     28 H           3.1982   -0.0516    6.6062 H       1  UNL1        0.0654
     29 H           4.5638    0.2293    8.5645 H       1  UNL1        0.0633
     30 H           8.0878   -0.7348    6.2983 H       1  UNL1        0.0633
     31 H           6.6986   -1.0028    4.2676 H       1  UNL1        0.0654
@<TRIPOS>BOND
     1     1     2    1
     2     1    17    1
     3     1    18    1
     4     1    19    1
     5     2     3    1
     6     2    20    1
     7     2    21    1
     8     3     4    1
     9     4     5    2
    10     4     6    1
    11     6     7    1
    12     6     8    1
    13     6     9    1
    14     7    22    1
    15     7    23    1
    16     7    24    1
    17     8    25    1
    18     8    26    1
    19     8    27    1
    20     9    10    1
    21    10    15   ar
    22    10    11   ar
    23    11    12   ar
    24    11    28    1
    25    12    13   ar
    26    12    29    1
    27    13    14   ar
    28    13    16    1
    29    14    15   ar
    30    14    30    1
    31    15    31    1
