@<TRIPOS>MOLECULE
ZINC00000365
 43 44 0 0 0
SMALL
GASTEIGER

@<TRIPOS>ATOM
      1 C           1.3837   -0.0648   -0.4851 C.3     1  UNL1       -0.0226
      2 C           0.5360   -0.2463   -1.7434 C.3     1  UNL1        0.1399
      3 H           0.8433    0.5091   -2.4785 H       1  UNL1        0.0785
      4 C          -0.9788   -0.1173   -1.4558 C.3     1  UNL1        0.0043
      5 N          -1.3223    1.1970   -0.7857 N.4     1  UNL1        0.2318
      6 C          -2.7905    1.4716   -0.5769 C.3     1  UNL1       -0.0225
      7 C          -3.4020    0.4549    0.3906 C.3     1  UNL1       -0.0097
      8 C          -4.8737    0.7680    0.6669 C.3     1  UNL1       -0.0480
      9 C          -5.0959    2.2087    1.1212 C.3     1  UNL1       -0.0527
     10 C          -4.4280    3.2128    0.1853 C.3     1  UNL1       -0.0480
     11 C          -2.9463    2.8873   -0.0038 C.3     1  UNL1       -0.0097
     12 O           0.8880   -1.5561   -2.2384 O.3     1  UNL1       -0.4528
     13 C           0.5571   -1.8343   -3.5279 C.2     1  UNL1        0.3396
     14 O          -0.2085   -1.1566   -4.1913 O.2     1  UNL1       -0.2449
     15 C           1.3184   -3.0210   -4.0227 C.ar    1  UNL1        0.0590
     16 C           1.1668   -3.4095   -5.3642 C.ar    1  UNL1       -0.0478
     17 C           1.9302   -4.4600   -5.8835 C.ar    1  UNL1       -0.0610
     18 C           2.8424   -5.1328   -5.0712 C.ar    1  UNL1       -0.0617
     19 C           2.9853   -4.7692   -3.7350 C.ar    1  UNL1       -0.0610
     20 C           2.2233   -3.7195   -3.2090 C.ar    1  UNL1       -0.0478
     21 H           2.4447   -0.1986   -0.7237 H       1  UNL1        0.0267
     22 H           1.1339   -0.8271    0.2621 H       1  UNL1        0.0267
     23 H           1.2619    0.9242   -0.0375 H       1  UNL1        0.0267
     24 H          -1.5701   -0.1687   -2.3724 H       1  UNL1        0.0850
     25 H          -1.3004   -0.9246   -0.7901 H       1  UNL1        0.0850
     26 H          -0.8463    1.2679    0.1222 H       1  UNL1        0.2017
     27 H          -3.2626    1.4126   -1.5647 H       1  UNL1        0.0850
     28 H          -3.3372   -0.5592   -0.0161 H       1  UNL1        0.0320
     29 H          -2.8475    0.4576    1.3382 H       1  UNL1        0.0320
     30 H          -5.2570    0.0803    1.4294 H       1  UNL1        0.0267
     31 H          -5.4550    0.5856   -0.2462 H       1  UNL1        0.0267
     32 H          -4.6967    2.3366    2.1347 H       1  UNL1        0.0265
     33 H          -6.1716    2.4142    1.1759 H       1  UNL1        0.0265
     34 H          -4.5424    4.2257    0.5871 H       1  UNL1        0.0267
     35 H          -4.9316    3.1963   -0.7893 H       1  UNL1        0.0267
     36 H          -2.4355    2.9630    0.9656 H       1  UNL1        0.0320
     37 H          -2.4874    3.6303   -0.6637 H       1  UNL1        0.0320
     38 H           0.4689   -2.8877   -6.0143 H       1  UNL1        0.0626
     39 H           1.8227   -4.7459   -6.9278 H       1  UNL1        0.0618
     40 H           3.4487   -5.9372   -5.4856 H       1  UNL1        0.0618
     41 H           3.6977   -5.2953   -3.1060 H       1  UNL1        0.0618
     42 H           2.3685   -3.4524   -2.1651 H       1  UNL1        0.0626
     43 H          -0.9447    1.9558   -1.3718 H       1  UNL1        0.2017
@<TRIPOS>UNITY_ATOM_ATTR
5 1
charge 1
@<TRIPOS>BOND
     1     1    21    1
     2     1    22    1
     3     1    23    1
     4     2     4    1
     5     2    12    1
     6     4     5    1
     7     4    24    1
     8     4    25    1
     9     5     6    1
    10     5    26    1
    11     5    43    1
    12     6    11    1
    13     6     7    1
    14     6    27    1
    15     7     8    1
    16     7    28    1
    17     7    29    1
    18     8     9    1
    19     8    30    1
    20     8    31    1
    21     9    10    1
    22     9    32    1
    23     9    33    1
    24    10    11    1
    25    10    34    1
    26    10    35    1
    27    11    36    1
    28    11    37    1
    29    12    13    1
    30    13    14    2
    31    13    15    1
    32    15    20   ar
    33    15    16   ar
    34    16    17   ar
    35    16    38    1
    36    17    18   ar
    37    17    39    1
    38    18    19   ar
    39    18    40    1
    40    19    20   ar
    41    19    41    1
    42    20    42    1
    43     2     3    1
    44     2     1    1
