@<TRIPOS>MOLECULE
ZINC01639567
 22 23 0 0 0
SMALL
GASTEIGER

@<TRIPOS>ATOM
      1 C           1.3802   -0.2307    0.1101 C.ar    1  UNL1       -0.0617
      2 C           0.8673    1.0610    0.0870 C.ar    1  UNL1       -0.0615
      3 C          -0.5114    1.2612    0.0028 C.ar    1  UNL1       -0.0581
      4 C          -1.4092    0.1806   -0.0690 C.ar    1  UNL1       -0.0388
      5 C          -0.8662   -1.1139    0.0070 C.ar    1  UNL1       -0.0581
      6 C           0.5160   -1.3191    0.0769 C.ar    1  UNL1       -0.0615
      7 C          -2.8974    0.4134   -0.1862 C.3     1  UNL1        0.0321
      8 H          -3.4209    0.4296    0.7704 H       1  UNL1        0.0406
      9 C          -3.4163    1.3902   -1.2186 C.3     1  UNL1        0.0027
     10 C          -3.7110   -0.0689   -1.3687 C.3     1  UNL1       -0.0165
     11 H          -4.7372   -0.3771   -1.1686 H       1  UNL1        0.0856
     12 N          -3.0427   -0.7427   -2.4901 N.4     1  UNL1        0.2212
     13 H           2.4543   -0.3866    0.1804 H       1  UNL1        0.0618
     14 H           1.5387    1.9153    0.1500 H       1  UNL1        0.0618
     15 H          -0.8877    2.2850    0.0079 H       1  UNL1        0.0620
     16 H          -1.5192   -1.9869    0.0321 H       1  UNL1        0.0620
     17 H           0.9193   -2.3282    0.1294 H       1  UNL1        0.0618
     18 H          -4.2224    2.0519   -0.9173 H       1  UNL1        0.0328
     19 H          -2.7066    1.8694   -1.8877 H       1  UNL1        0.0328
     20 H          -2.9908   -0.1307   -3.3141 H       1  UNL1        0.1997
     21 H          -2.0780   -1.0078   -2.2507 H       1  UNL1        0.1997
     22 H          -3.5439   -1.5976   -2.7624 H       1  UNL1        0.1997
@<TRIPOS>UNITY_ATOM_ATTR
12 1
charge 1
@<TRIPOS>BOND
     1     1     6   ar
     2     1     2   ar
     3     1    13    1
     4     2     3   ar
     5     2    14    1
     6     3     4   ar
     7     3    15    1
     8     4     5   ar
     9     4     7    1
    10     5     6   ar
    11     5    16    1
    12     6    17    1
    13     7     8    1
    14     7    10    1
    15     7     9    1
    16     9    10    1
    17     9    18    1
    18     9    19    1
    19    12    20    1
    20    12    21    1
    21    12    22    1
    22    10    12    1
    23    10    11    1
