@<TRIPOS>MOLECULE
ZINC03815418
 45 48 0 0 0
SMALL
GASTEIGER

@<TRIPOS>ATOM
      1 C           1.1855    1.1328   -0.9984 C.3     1  UNL1       -0.0569
      2 C           2.6267    0.6675   -0.5557 C.3     1  UNL1       -0.0005
      3 C           3.5379    0.8299   -1.7524 C.3     1  UNL1       -0.0444
      4 C           3.0612   -0.0596   -2.8871 C.3     1  UNL1       -0.0454
      5 C           2.9104   -1.5170   -2.4436 C.3     1  UNL1       -0.0125
      6 H           3.9554   -1.8317   -2.2870 H       1  UNL1        0.0352
      7 C           2.4072   -2.4135   -3.5601 C.ar    1  UNL1       -0.0406
      8 C           2.2331   -1.9521   -4.8804 C.ar    1  UNL1       -0.0546
      9 C           1.8748   -2.8133   -5.9094 C.ar    1  UNL1       -0.0199
     10 C           1.6949   -4.1542   -5.6264 C.ar    1  UNL1        0.1171
     11 C           1.8489   -4.6412   -4.3251 C.ar    1  UNL1       -0.0167
     12 C           2.1988   -3.7722   -3.2721 C.ar    1  UNL1       -0.0405
     13 C           2.3328   -4.2962   -1.8544 C.3     1  UNL1       -0.0270
     14 C           2.6279   -3.2539   -0.7381 C.3     1  UNL1       -0.0454
     15 C           2.1489   -1.8140   -1.0847 C.3     1  UNL1       -0.0304
     16 H           1.0614   -1.8262   -1.2323 H       1  UNL1        0.0310
     17 C           2.5115   -0.7625    0.0165 C.3     1  UNL1       -0.0274
     18 H           3.4947   -1.0988    0.3805 H       1  UNL1        0.0311
     19 C           1.7101   -0.4255    1.3565 C.3     1  UNL1       -0.0207
     20 C           2.0641    1.0940    1.6765 C.3     1  UNL1        0.0819
     21 H           1.2551    1.7879    1.4377 H       1  UNL1        0.0619
     22 C           3.2309    1.3240    0.7072 C.3     1  UNL1        0.0867
     23 H           4.0846    0.7454    1.0779 H       1  UNL1        0.0624
     24 O           3.7306    2.6266    0.5623 O.3     1  UNL1       -0.3887
     25 O           2.3590    1.2926    3.0410 O.3     1  UNL1       -0.3892
     26 O           1.3583   -4.9551   -6.6749 O.3     1  UNL1       -0.5068
     27 H           0.3983    0.9444   -0.2693 H       1  UNL1        0.0236
     28 H           1.1723    2.1937   -1.2345 H       1  UNL1        0.0236
     29 H           0.8151    0.5775   -1.8710 H       1  UNL1        0.0236
     30 H           3.5754    1.8484   -2.0841 H       1  UNL1        0.0272
     31 H           4.5704    0.5226   -1.4863 H       1  UNL1        0.0272
     32 H           2.1300    0.3312   -3.3156 H       1  UNL1        0.0271
     33 H           3.7974    0.0131   -3.6954 H       1  UNL1        0.0271
     34 H           2.3793   -0.9087   -5.1517 H       1  UNL1        0.0622
     35 H           1.7532   -2.4407   -6.9213 H       1  UNL1        0.0654
     36 H           1.7058   -5.6973   -4.1197 H       1  UNL1        0.0657
     37 H           3.1316   -5.0503   -1.8441 H       1  UNL1        0.0313
     38 H           1.4012   -4.8130   -1.5973 H       1  UNL1        0.0313
     39 H           3.7211   -3.2326   -0.5993 H       1  UNL1        0.0271
     40 H           2.2265   -3.6059    0.2187 H       1  UNL1        0.0271
     41 H           2.0191   -1.0514    2.1994 H       1  UNL1        0.0294
     42 H           0.6217   -0.5200    1.2558 H       1  UNL1        0.0294
     43 H           4.7049    2.6043    0.5887 H       1  UNL1        0.2099
     44 H           3.3200    1.4065    3.1349 H       1  UNL1        0.2099
     45 H           1.2593   -5.8573   -6.3515 H       1  UNL1        0.2921
@<TRIPOS>BOND
     1     1    27    1
     2     1    28    1
     3     1    29    1
     4     2     1    1
     5     2    17    1
     6     2    22    1
     7     2     3    1
     8     3     4    1
     9     3    30    1
    10     3    31    1
    11     4     5    1
    12     4    32    1
    13     4    33    1
    14     5     6    1
    15     5    15    1
    16     5     7    1
    17     7    12   ar
    18     7     8   ar
    19     8     9   ar
    20     8    34    1
    21     9    10   ar
    22     9    35    1
    23    10    11   ar
    24    10    26    1
    25    11    12   ar
    26    11    36    1
    27    12    13    1
    28    13    14    1
    29    13    37    1
    30    13    38    1
    31    14    15    1
    32    14    39    1
    33    14    40    1
    34    15    16    1
    35    15    17    1
    36    17    18    1
    37    17    19    1
    38    19    20    1
    39    19    41    1
    40    19    42    1
    41    20    22    1
    42    22    23    1
    43    22    24    1
    44    24    43    1
    45    25    44    1
    46    26    45    1
    47    20    25    1
    48    20    21    1
