@<TRIPOS>MOLECULE
ZINC03831151
 76 80 0 0 0
SMALL
GASTEIGER

@<TRIPOS>ATOM
      1 C          -1.1178   -1.7402   -5.8045 C.3     1  UNL1       -0.0321
      2 C          -1.4131   -0.7340   -4.6842 C.3     1  UNL1        0.0856
      3 C          -2.9281   -0.6044   -4.5008 C.3     1  UNL1       -0.0321
      4 C          -0.5403   -1.0676   -3.4552 C.ar    1  UNL1       -0.0135
      5 C           0.7590   -0.4868   -3.4413 C.ar    1  UNL1       -0.0556
      6 C           1.6890   -0.7358   -2.4351 C.ar    1  UNL1       -0.0614
      7 C           1.3691   -1.6194   -1.4253 C.ar    1  UNL1       -0.0615
      8 C           0.1257   -2.2467   -1.4324 C.ar    1  UNL1       -0.0582
      9 C          -0.8651   -1.9692   -2.4022 C.ar    1  UNL1       -0.0414
     10 C          -2.2066   -2.6771   -2.3072 C.3     1  UNL1       -0.0260
     11 C          -2.5394   -3.5633   -1.0858 C.3     1  UNL1       -0.0331
     12 C          -2.6360   -2.8743    0.3018 C.3     1  UNL1        0.0305
     13 H          -1.6572   -2.4582    0.5641 H       1  UNL1        0.0461
     14 C          -2.9529   -3.9245    1.3646 C.ar    1  UNL1       -0.0339
     15 C          -1.9141   -4.7625    1.8063 C.ar    1  UNL1       -0.0575
     16 C          -2.1479   -5.7515    2.7616 C.ar    1  UNL1       -0.0609
     17 C          -3.4254   -5.9121    3.3013 C.ar    1  UNL1       -0.0546
     18 C          -4.4912   -5.0972    2.8882 C.ar    1  UNL1       -0.0247
     19 C          -4.2381   -4.1180    1.9115 C.ar    1  UNL1       -0.0504
     20 C          -5.8017   -5.2845    3.5465 C.2     1  UNL1       -0.0526
     21 C          -6.6833   -4.2898    3.7428 C.2     1  UNL1       -0.0357
     22 C          -7.8259   -4.3158    4.7031 C.ar    1  UNL1        0.0646
     23 C          -8.0173   -3.0795    5.2784 C.ar    1  UNL1       -0.0357
     24 C          -7.6249   -2.9505    6.5846 C.ar    1  UNL1       -0.0506
     25 C          -7.7185   -4.0920    7.3816 C.ar    1  UNL1        0.0005
     26 C          -7.5597   -3.9979    8.7576 C.ar    1  UNL1       -0.0512
     27 C          -7.8995   -5.0702    9.5644 C.ar    1  UNL1       -0.0427
     28 C          -8.4044   -6.2288    8.9720 C.ar    1  UNL1        0.0430
     29 C          -8.4774   -6.3509    7.5851 C.ar    1  UNL1       -0.0174
     30 C          -8.0802   -5.3058    6.7598 C.ar    1  UNL1        0.0730
     31 N          -8.0373   -5.4400    5.4168 N.ar    1  UNL1       -0.2472
     32 CL         -8.9586   -7.5138    9.9730 Cl      1  UNL1       -0.0835
     33 S          -3.7363   -1.4115    0.2780 S.3     1  UNL1       -0.1521
     34 C          -3.1362   -0.5744    1.7924 C.3     1  UNL1        0.0004
     35 C          -3.9084    0.7190    1.9859 C.3     1  UNL1       -0.0100
     36 C          -3.1480    1.9719    2.3919 C.3     1  UNL1       -0.0456
     37 C          -3.6676    1.8470    0.9933 C.3     1  UNL1       -0.0456
     38 C          -5.2896    0.5579    2.6103 C.3     1  UNL1        0.0556
     39 C          -5.3148   -0.0914    4.0050 C.2     1  UNL1        0.3566
     40 O          -4.2726    0.0282    4.7090 O.co2   1  UNL1       -0.2464
     41 O          -1.0243    0.5620   -5.1930 O.3     1  UNL1       -0.3845
     42 H          -1.4537   -2.7491   -5.5428 H       1  UNL1        0.0260
     43 H          -0.0450   -1.7874   -6.0271 H       1  UNL1        0.0260
     44 H          -1.6097   -1.4420   -6.7381 H       1  UNL1        0.0260
     45 H          -3.4289   -1.5692   -4.3920 H       1  UNL1        0.0260
     46 H          -3.1694    0.0324   -3.6424 H       1  UNL1        0.0260
     47 H          -3.3794   -0.1190   -5.3763 H       1  UNL1        0.0260
     48 H           1.0721    0.1703   -4.2526 H       1  UNL1        0.0621
     49 H           2.6636   -0.2580   -2.4587 H       1  UNL1        0.0618
     50 H           2.0827   -1.8376   -0.6361 H       1  UNL1        0.0618
     51 H          -0.0413   -2.9762   -0.6470 H       1  UNL1        0.0620
     52 H          -2.9994   -1.9327   -2.3744 H       1  UNL1        0.0314
     53 H          -2.2829   -3.3245   -3.1907 H       1  UNL1        0.0314
     54 H          -3.5015   -4.0550   -1.2905 H       1  UNL1        0.0282
     55 H          -1.8075   -4.3819   -1.0416 H       1  UNL1        0.0282
     56 H          -0.9066   -4.6451    1.4108 H       1  UNL1        0.0621
     57 H          -1.3362   -6.3829    3.1063 H       1  UNL1        0.0618
     58 H          -3.5764   -6.6601    4.0762 H       1  UNL1        0.0623
     59 H          -5.0540   -3.4725    1.5989 H       1  UNL1        0.0626
     60 H          -5.9678   -6.2487    4.0178 H       1  UNL1        0.0624
     61 H          -6.4665   -3.2918    3.3626 H       1  UNL1        0.0639
     62 H          -8.9305   -2.5160    5.0095 H       1  UNL1        0.0639
     63 H          -7.3563   -1.9720    6.9684 H       1  UNL1        0.0625
     64 H          -7.1964   -3.0650    9.2154 H       1  UNL1        0.0625
     65 H          -7.8081   -4.9922   10.6416 H       1  UNL1        0.0632
     66 H          -8.8648   -7.2571    7.1254 H       1  UNL1        0.0653
     67 H          -3.2486   -1.2420    2.6497 H       1  UNL1        0.0382
     68 H          -2.0681   -0.3648    1.6673 H       1  UNL1        0.0382
     69 H          -3.6447    2.6649    3.0643 H       1  UNL1        0.0271
     70 H          -2.0853    1.8811    2.5800 H       1  UNL1        0.0271
     71 H          -2.9360    1.7012    0.2058 H       1  UNL1        0.0271
     72 H          -4.5189    2.4467    0.6972 H       1  UNL1        0.0271
     73 H          -5.7752    1.5365    2.7167 H       1  UNL1        0.0385
     74 H          -5.9213   -0.0299    1.9341 H       1  UNL1        0.0385
     75 H          -1.1626    1.1870   -4.4584 H       1  UNL1        0.2106
     76 O          -6.4089   -0.6567    4.2935 O.co2   1  UNL1       -0.2464
@<TRIPOS>BOND
     1     1     2    1
     2     1    42    1
     3     1    43    1
     4     1    44    1
     5     2     3    1
     6     2     4    1
     7     2    41    1
     8     3    45    1
     9     3    46    1
    10     3    47    1
    11     4     9   ar
    12     4     5   ar
    13     5     6   ar
    14     5    48    1
    15     6     7   ar
    16     6    49    1
    17     7     8   ar
    18     7    50    1
    19     8     9   ar
    20     8    51    1
    21     9    10    1
    22    10    11    1
    23    10    52    1
    24    10    53    1
    25    11    54    1
    26    11    55    1
    27    12    14    1
    28    12    33    1
    29    14    19   ar
    30    14    15   ar
    31    15    16   ar
    32    15    56    1
    33    16    17   ar
    34    16    57    1
    35    17    18   ar
    36    17    58    1
    37    18    19   ar
    38    18    20    1
    39    19    59    1
    40    20    21    2
    41    20    60    1
    42    21    22    1
    43    21    61    1
    44    22    31   ar
    45    22    23   ar
    46    23    24   ar
    47    23    62    1
    48    24    25   ar
    49    24    63    1
    50    25    30   ar
    51    25    26   ar
    52    26    27   ar
    53    26    64    1
    54    27    28   ar
    55    27    65    1
    56    28    29   ar
    57    28    32    1
    58    29    30   ar
    59    29    66    1
    60    30    31   ar
    61    33    34    1
    62    34    35    1
    63    34    67    1
    64    34    68    1
    65    35    37    1
    66    35    36    1
    67    35    38    1
    68    36    37    1
    69    36    69    1
    70    36    70    1
    71    37    71    1
    72    37    72    1
    73    38    39    1
    74    38    73    1
    75    38    74    1
    76    39    40   ar
    77    39    76   ar
    78    41    75    1
    79    12    13    1
    80    12    11    1
