@<TRIPOS>MOLECULE
ZINC00136138
 29 30 0 0 0
SMALL
GASTEIGER

@<TRIPOS>ATOM
      1 C           0.8042   -0.1371    0.8091 C.3     1  UNL1        0.0788
      2 O           0.4022   -1.3836    0.2526 O.3     1  UNL1       -0.4950
      3 C           1.3533   -2.3544    0.1235 C.ar    1  UNL1        0.1236
      4 C           0.8435   -3.6518    0.0780 C.ar    1  UNL1       -0.0190
      5 C           1.6958   -4.7471   -0.0336 C.ar    1  UNL1       -0.0439
      6 C           3.0843   -4.5683   -0.0699 C.ar    1  UNL1        0.0638
      7 C           3.5926   -3.2573   -0.0741 C.ar    1  UNL1        0.1311
      8 C           2.7266   -2.1540    0.0045 C.ar    1  UNL1        0.0222
      9 O           4.9401   -3.0370   -0.1097 O.3     1  UNL1       -0.5059
     10 C           3.9749   -5.7669   -0.1489 C.2     1  UNL1        0.1966
     11 O           4.9644   -5.7696   -0.8761 O.2     1  UNL1       -0.2865
     12 C           3.6103   -7.0196    0.5815 C.ar    1  UNL1        0.0224
     13 C           2.8938   -7.0001    1.7832 C.ar    1  UNL1       -0.0509
     14 C           2.4717   -8.1953    2.3715 C.ar    1  UNL1       -0.0611
     15 C           2.8022   -9.4153    1.7827 C.ar    1  UNL1       -0.0617
     16 C           3.5675   -9.4463    0.6196 C.ar    1  UNL1       -0.0611
     17 C           3.9764   -8.2515    0.0183 C.ar    1  UNL1       -0.0509
     18 H          -0.0122    0.2160    1.4454 H       1  UNL1        0.0660
     19 H           0.9504    0.5887    0.0055 H       1  UNL1        0.0660
     20 H           1.6990   -0.2005    1.4384 H       1  UNL1        0.0660
     21 H          -0.2318   -3.8109    0.1455 H       1  UNL1        0.0654
     22 H           1.2584   -5.7387   -0.0876 H       1  UNL1        0.0627
     23 H           3.1342   -1.1494   -0.0244 H       1  UNL1        0.0691
     24 H           5.1242   -2.0970   -0.2567 H       1  UNL1        0.2922
     25 H           2.6392   -6.0619    2.2691 H       1  UNL1        0.0625
     26 H           1.8858   -8.1745    3.2845 H       1  UNL1        0.0618
     27 H           2.4696  -10.3452    2.2383 H       1  UNL1        0.0618
     28 H           3.8406  -10.3981    0.1707 H       1  UNL1        0.0618
     29 H           4.5608   -8.2821   -0.8991 H       1  UNL1        0.0625
@<TRIPOS>BOND
     1     1     2    1
     2     1    18    1
     3     1    19    1
     4     1    20    1
     5     2     3    1
     6     3     8   ar
     7     3     4   ar
     8     4     5   ar
     9     4    21    1
    10     5     6   ar
    11     5    22    1
    12     6     7   ar
    13     6    10    1
    14     7     8   ar
    15     7     9    1
    16     8    23    1
    17     9    24    1
    18    10    11    2
    19    10    12    1
    20    12    17   ar
    21    12    13   ar
    22    13    14   ar
    23    13    25    1
    24    14    15   ar
    25    14    26    1
    26    15    16   ar
    27    15    27    1
    28    16    17   ar
    29    16    28    1
    30    17    29    1
