@<TRIPOS>MOLECULE
ZINC01537194
 47 48 0 0 0
SMALL
GASTEIGER

@<TRIPOS>ATOM
      1 C          -0.4161    0.9817    3.7807 C.ar    1  UNL1       -0.0551
      2 C           0.6727    0.6482    4.6032 C.ar    1  UNL1       -0.0199
      3 C           1.2244    1.6068    5.4374 C.ar    1  UNL1        0.1169
      4 C           0.7240    2.8998    5.4463 C.ar    1  UNL1       -0.0199
      5 C          -0.3705    3.2289    4.6340 C.ar    1  UNL1       -0.0551
      6 C          -0.9670    2.2770    3.7886 C.ar    1  UNL1       -0.0471
      7 C          -2.1812    2.6865    2.9634 C.3     1  UNL1       -0.0275
      8 C          -2.7595    1.6094    2.0259 C.3     1  UNL1       -0.0443
      9 C          -4.0884    1.9401    1.3239 C.3     1  UNL1       -0.0123
     10 C          -4.1277    3.1138    0.3435 C.3     1  UNL1       -0.0336
     11 C          -3.2847    3.9176   -1.9461 C.3     1  UNL1       -0.0028
     12 C          -2.9825    5.3816   -1.5281 C.3     1  UNL1        0.1198
     13 H          -2.0114    5.4016   -1.0199 H       1  UNL1        0.0698
     14 C          -2.9751    6.3607   -2.6837 C.ar    1  UNL1       -0.0104
     15 C          -1.8558    7.1837   -2.9094 C.ar    1  UNL1       -0.0523
     16 C          -1.8570    8.1321   -3.9385 C.ar    1  UNL1       -0.0162
     17 C          -2.9784    8.2675   -4.7447 C.ar    1  UNL1        0.1582
     18 C          -4.1003    7.4896   -4.5113 C.ar    1  UNL1        0.1586
     19 C          -4.1059    6.5301   -3.4996 C.ar    1  UNL1       -0.0107
     20 O          -5.2477    7.6693   -5.2297 O.3     1  UNL1       -0.5033
     21 O          -2.9455    9.1672   -5.7672 O.3     1  UNL1       -0.5033
     22 O          -3.9543    5.8234   -0.5780 O.3     1  UNL1       -0.3819
     23 O           2.2577    1.3178    6.2784 O.3     1  UNL1       -0.5068
     24 H          -0.8244    0.1945    3.1548 H       1  UNL1        0.0621
     25 H           1.0720   -0.3625    4.5766 H       1  UNL1        0.0654
     26 H           1.1713    3.6451    6.0989 H       1  UNL1        0.0654
     27 H          -0.7592    4.2462    4.6886 H       1  UNL1        0.0621
     28 H          -2.9652    3.0040    3.6635 H       1  UNL1        0.0313
     29 H          -1.9006    3.5618    2.3648 H       1  UNL1        0.0313
     30 H          -2.0083    1.3308    1.2777 H       1  UNL1        0.0270
     31 H          -2.9552    0.7092    2.6230 H       1  UNL1        0.0270
     32 H          -4.4128    1.0356    0.7927 H       1  UNL1        0.0317
     33 H          -4.8487    2.1235    2.0940 H       1  UNL1        0.0317
     34 H          -5.1281    3.1888   -0.1003 H       1  UNL1        0.0814
     35 H          -3.8726    4.0354    0.8645 H       1  UNL1        0.0814
     36 H          -2.5689    3.5759   -2.7011 H       1  UNL1        0.0843
     37 H          -4.2995    3.7995   -2.3407 H       1  UNL1        0.0843
     38 H          -0.9679    7.1114   -2.2822 H       1  UNL1        0.0622
     39 H          -0.9864    8.7600   -4.1143 H       1  UNL1        0.0655
     40 H          -5.0203    5.9590   -3.3306 H       1  UNL1        0.0659
     41 H          -5.3114    8.6236   -5.4248 H       1  UNL1        0.2923
     42 H          -3.4607    8.7909   -6.5042 H       1  UNL1        0.2923
     43 H          -3.9483    6.8020   -0.5800 H       1  UNL1        0.2105
     44 H           2.3068    0.3542    6.3962 H       1  UNL1        0.2921
     45 N          -3.1656    2.9258   -0.7912 N.4     1  UNL1        0.2291
     46 H          -2.2042    2.9493   -0.4273 H       1  UNL1        0.2014
     47 H          -3.3083    1.9865   -1.1861 H       1  UNL1        0.2014
@<TRIPOS>UNITY_ATOM_ATTR
45 1
charge 1
@<TRIPOS>BOND
     1     1     6   ar
     2     1     2   ar
     3     1    24    1
     4     2     3   ar
     5     2    25    1
     6     3     4   ar
     7     3    23    1
     8     4     5   ar
     9     4    26    1
    10     5     6   ar
    11     5    27    1
    12     6     7    1
    13     7     8    1
    14     7    28    1
    15     7    29    1
    16     8     9    1
    17     8    30    1
    18     8    31    1
    19     9    10    1
    20     9    32    1
    21     9    33    1
    22    10    34    1
    23    10    35    1
    24    10    45    1
    25    11    12    1
    26    11    36    1
    27    11    37    1
    28    11    45    1
    29    12    13    1
    30    12    14    1
    31    12    22    1
    32    14    19   ar
    33    14    15   ar
    34    15    16   ar
    35    15    38    1
    36    16    17   ar
    37    16    39    1
    38    17    18   ar
    39    17    21    1
    40    18    19   ar
    41    18    20    1
    42    19    40    1
    43    20    41    1
    44    21    42    1
    45    22    43    1
    46    23    44    1
    47    45    46    1
    48    45    47    1
