@<TRIPOS>MOLECULE
ZINC00000480
 42 45 0 0 0
SMALL
GASTEIGER

@<TRIPOS>ATOM
      1 C           0.7490   -0.6983   -2.7776 C.3     1  UNL1       -0.0431
      2 N           1.0436    0.6863   -2.2560 N.4     1  UNL1        0.2333
      3 C          -0.0694    1.2713   -1.4191 C.3     1  UNL1       -0.0317
      4 C           0.2007    0.7256   -0.0293 C.3     1  UNL1       -0.0034
      5 C           1.7115    0.4513    0.0372 C.3     1  UNL1        0.0200
      6 H           1.8476   -0.6264    0.1845 H       1  UNL1        0.0370
      7 C           2.2491    0.7843   -1.3504 C.3     1  UNL1       -0.0276
      8 C           2.4622    1.2308    1.1429 C.3     1  UNL1        0.0252
      9 N           2.0011    0.8775    2.4951 N.pl3   1  UNL1       -0.2979
     10 C           1.8967   -0.4878    2.8379 C.ar    1  UNL1        0.0479
     11 C           2.9388   -1.3867    2.5540 C.ar    1  UNL1       -0.0393
     12 C           2.8411   -2.7357    2.9008 C.ar    1  UNL1       -0.0599
     13 C           1.6956   -3.2096    3.5340 C.ar    1  UNL1       -0.0606
     14 C           0.6595   -2.3320    3.8487 C.ar    1  UNL1       -0.0462
     15 C           0.7635   -0.9735    3.5268 C.ar    1  UNL1        0.0341
     16 S          -0.5809    0.1163    3.9788 S.3     1  UNL1       -0.0857
     17 C           0.3113    1.6635    4.0931 C.ar    1  UNL1        0.0341
     18 C           1.4635    1.8979    3.3127 C.ar    1  UNL1        0.0479
     19 C           2.1314    3.1244    3.4729 C.ar    1  UNL1       -0.0393
     20 C           1.6692    4.0860    4.3772 C.ar    1  UNL1       -0.0599
     21 C           0.5174    3.8488    5.1219 C.ar    1  UNL1       -0.0606
     22 C          -0.1658    2.6433    4.9750 C.ar    1  UNL1       -0.0462
     23 H          -0.1920   -1.0599   -2.3543 H       1  UNL1        0.0777
     24 H           0.6652   -0.6232   -3.8651 H       1  UNL1        0.0777
     25 H           1.5661   -1.3728   -2.5105 H       1  UNL1        0.0777
     26 H           0.0570    2.3593   -1.4533 H       1  UNL1        0.0814
     27 H          -1.0377    0.9970   -1.8427 H       1  UNL1        0.0814
     28 H          -0.3408   -0.2202    0.1022 H       1  UNL1        0.0322
     29 H          -0.1640    1.4122    0.7388 H       1  UNL1        0.0322
     30 H           3.0279    0.1010   -1.7028 H       1  UNL1        0.0818
     31 H           2.6098    1.8157   -1.4284 H       1  UNL1        0.0818
     32 H           3.5410    1.0481    1.0640 H       1  UNL1        0.0472
     33 H           2.3235    2.3017    0.9455 H       1  UNL1        0.0472
     34 H           3.8641   -1.0337    2.1060 H       1  UNL1        0.0636
     35 H           3.6687   -3.4116    2.7000 H       1  UNL1        0.0618
     36 H           1.6192   -4.2591    3.8091 H       1  UNL1        0.0618
     37 H          -0.2220   -2.7107    4.3621 H       1  UNL1        0.0629
     38 H           3.0688    3.3148    2.9563 H       1  UNL1        0.0636
     39 H           2.2262    5.0085    4.5249 H       1  UNL1        0.0618
     40 H           0.1656    4.5899    5.8363 H       1  UNL1        0.0618
     41 H          -1.0555    2.4612    5.5744 H       1  UNL1        0.0629
     42 H           1.1947    1.2915   -3.0749 H       1  UNL1        0.2031
@<TRIPOS>UNITY_ATOM_ATTR
2 1
charge 1
@<TRIPOS>BOND
     1     1    23    1
     2     1    24    1
     3     1    25    1
     4     2     7    1
     5     2     3    1
     6     3     4    1
     7     3    26    1
     8     3    27    1
     9     4     5    1
    10     4    28    1
    11     4    29    1
    12     5     6    1
    13     5     7    1
    14     5     8    1
    15     7    30    1
    16     7    31    1
    17     8     9    1
    18     8    32    1
    19     8    33    1
    20     9    18    1
    21     9    10    1
    22    10    15   ar
    23    10    11   ar
    24    11    12   ar
    25    11    34    1
    26    12    13   ar
    27    12    35    1
    28    13    14   ar
    29    13    36    1
    30    14    15   ar
    31    14    37    1
    32    15    16    1
    33    16    17    1
    34    17    22   ar
    35    17    18   ar
    36    18    19   ar
    37    19    20   ar
    38    19    38    1
    39    20    21   ar
    40    20    39    1
    41    21    22   ar
    42    21    40    1
    43    22    41    1
    44     2    42    1
    45     2     1    1
