@<TRIPOS>MOLECULE
ZINC00896455
 39 40 0 0 0
SMALL
GASTEIGER

@<TRIPOS>ATOM
      1 C          -3.2741    6.2117    0.2629 C.3     1  UNL1       -0.0433
      2 N          -1.7770    6.2538    0.3852 N.4     1  UNL1        0.2309
      3 C          -1.3214    7.6064    0.8850 C.3     1  UNL1       -0.0433
      4 C          -1.2062    5.1654    1.2831 C.3     1  UNL1       -0.0315
      5 C          -1.4853    3.7608    0.7522 C.3     1  UNL1       -0.0003
      6 C          -0.8544    2.6300    1.6071 C.3     1  UNL1        0.0312
      7 H          -1.1696    1.6890    1.1304 H       1  UNL1        0.0414
      8 C          -1.4123    2.5776    3.0394 C.ar    1  UNL1       -0.0382
      9 C          -2.2597    1.5286    3.4293 C.ar    1  UNL1       -0.0569
     10 C          -2.7660    1.4652    4.7314 C.ar    1  UNL1       -0.0475
     11 C          -2.4496    2.4552    5.6583 C.ar    1  UNL1        0.0179
     12 C          -1.6184    3.5040    5.2976 C.ar    1  UNL1       -0.0475
     13 C          -1.0946    3.5520    4.0058 C.ar    1  UNL1       -0.0569
     14 BR         -3.1268    2.3687    7.4190 Br      1  UNL1       -0.0503
     15 C           0.6699    2.6419    1.5121 C.ar    1  UNL1        0.0488
     16 C           1.3219    1.9619    0.4850 C.ar    1  UNL1       -0.0398
     17 C           2.7155    1.9608    0.4553 C.ar    1  UNL1       -0.0586
     18 C           3.4227    2.6154    1.4553 C.ar    1  UNL1       -0.0436
     19 C           2.7046    3.2929    2.4198 C.ar    1  UNL1        0.0279
     20 N           1.3565    3.3638    2.4320 N.ar    1  UNL1       -0.2593
     21 H          -3.7094    6.2471    1.2648 H       1  UNL1        0.0777
     22 H          -3.5558    5.2960   -0.2609 H       1  UNL1        0.0777
     23 H          -3.5905    7.0743   -0.3297 H       1  UNL1        0.0777
     24 H          -1.7214    7.7553    1.8914 H       1  UNL1        0.0777
     25 H          -0.2289    7.6162    0.8910 H       1  UNL1        0.0777
     26 H          -1.6983    8.3657    0.1962 H       1  UNL1        0.0777
     27 H          -0.1304    5.3540    1.3392 H       1  UNL1        0.0814
     28 H          -1.6681    5.3366    2.2554 H       1  UNL1        0.0814
     29 H          -2.5674    3.5872    0.7112 H       1  UNL1        0.0326
     30 H          -1.1180    3.6871   -0.2800 H       1  UNL1        0.0326
     31 H          -2.5169    0.7297    2.7341 H       1  UNL1        0.0621
     32 H          -3.3995    0.6270    5.0224 H       1  UNL1        0.0629
     33 H          -1.3459    4.2748    6.0141 H       1  UNL1        0.0629
     34 H          -0.3957    4.3557    3.7890 H       1  UNL1        0.0621
     35 H           0.7694    1.4197   -0.2768 H       1  UNL1        0.0636
     36 H           3.2495    1.4276   -0.3274 H       1  UNL1        0.0619
     37 H           4.5064    2.5911    1.4885 H       1  UNL1        0.0633
     38 H           3.2041    3.8034    3.2389 H       1  UNL1        0.0829
     39 H          -1.3754    6.1272   -0.5542 H       1  UNL1        0.2028
@<TRIPOS>UNITY_ATOM_ATTR
2 1
charge 1
@<TRIPOS>BOND
     1     1     2    1
     2     1    21    1
     3     1    22    1
     4     1    23    1
     5     2     3    1
     6     2     4    1
     7     2    39    1
     8     3    24    1
     9     3    25    1
    10     3    26    1
    11     4     5    1
    12     4    27    1
    13     4    28    1
    14     5    29    1
    15     5    30    1
    16     6     8    1
    17     6    15    1
    18     8    13   ar
    19     8     9   ar
    20     9    10   ar
    21     9    31    1
    22    10    11   ar
    23    10    32    1
    24    11    12   ar
    25    11    14    1
    26    12    13   ar
    27    12    33    1
    28    13    34    1
    29    15    20   ar
    30    15    16   ar
    31    16    17   ar
    32    16    35    1
    33    17    18   ar
    34    17    36    1
    35    18    19   ar
    36    18    37    1
    37    19    20   ar
    38    19    38    1
    39     6     7    1
    40     6     5    1
