@<TRIPOS>MOLECULE
ZINC00967787
 48 51 0 0 0
SMALL
GASTEIGER

@<TRIPOS>ATOM
      1 C           0.8558   -0.2712    0.2255 C.3     1  UNL1       -0.0362
      2 C           0.5279    0.8396    1.1884 C.ar    1  UNL1       -0.0006
      3 C           0.8043    2.2037    0.9217 C.ar    1  UNL1        0.0517
      4 C           0.4736    3.1932    1.8788 C.ar    1  UNL1        0.0552
      5 C          -0.1447    2.7897    3.0809 C.ar    1  UNL1       -0.0136
      6 C          -0.4081    1.4455    3.3935 C.ar    1  UNL1        0.0680
      7 C          -0.0551    0.4969    2.4187 C.ar    1  UNL1        0.1480
      8 F          -0.2281   -0.8081    2.7008 F       1  UNL1       -0.2032
      9 N          -1.0005    1.1152    4.6122 N.pl3   1  UNL1       -0.3172
     10 C          -0.4737    1.7207    5.8466 C.3     1  UNL1        0.0525
     11 C           0.1760    0.6533    6.7500 C.3     1  UNL1       -0.0173
     12 N          -0.7699   -0.5045    6.9635 N.4     1  UNL1        0.2312
     13 C          -1.1674   -1.1524    5.6428 C.3     1  UNL1       -0.0094
     14 H          -0.2336   -1.5172    5.2007 H       1  UNL1        0.0863
     15 C          -1.8453   -0.0854    4.7478 C.3     1  UNL1        0.0551
     16 C          -2.0947   -2.3203    5.9532 C.3     1  UNL1       -0.0202
     17 N           0.7753    4.5664    1.6298 N.ar    1  UNL1       -0.3425
     18 C           1.3902    4.9065    0.4484 C.ar    1  UNL1        0.0233
     19 C           1.7344    4.0755   -0.5485 C.ar    1  UNL1        0.1263
     20 C           1.4930    2.6320   -0.3447 C.ar    1  UNL1        0.2038
     21 O           1.8885    1.7773   -1.1291 O.2     1  UNL1       -0.2863
     22 C           2.3614    4.6682   -1.8059 C.2     1  UNL1        0.3916
     23 O           2.9630    5.7748   -1.6330 O.co2   1  UNL1       -0.2404
     24 O           2.1615    4.0549   -2.8890 O.co2   1  UNL1       -0.2404
     25 C           0.6291    5.5989    2.6826 C.3     1  UNL1        0.0347
     26 C           0.5702    7.0886    2.4577 C.3     1  UNL1       -0.0302
     27 C          -0.6714    6.3480    2.8330 C.3     1  UNL1       -0.0302
     28 H           0.3603   -0.1081   -0.7368 H       1  UNL1        0.0279
     29 H           0.5070   -1.2438    0.5881 H       1  UNL1        0.0279
     30 H           1.9389   -0.3549    0.0930 H       1  UNL1        0.0279
     31 H          -0.4609    3.5563    3.7815 H       1  UNL1        0.0658
     32 H           0.2731    2.4998    5.6580 H       1  UNL1        0.0516
     33 H          -1.3052    2.1942    6.3810 H       1  UNL1        0.0516
     34 H           1.0845    0.2380    6.3016 H       1  UNL1        0.0829
     35 H           0.4093    1.0575    7.7393 H       1  UNL1        0.0829
     36 H          -1.6128   -0.1689    7.4460 H       1  UNL1        0.2017
     37 H          -2.7834    0.2335    5.2211 H       1  UNL1        0.0519
     38 H          -2.1440   -0.5150    3.7854 H       1  UNL1        0.0519
     39 H          -1.7599   -2.8835    6.8312 H       1  UNL1        0.0285
     40 H          -3.1194   -1.9834    6.1417 H       1  UNL1        0.0285
     41 H          -2.1233   -3.0133    5.1058 H       1  UNL1        0.0285
     42 H           1.5989    5.9655    0.3248 H       1  UNL1        0.0819
     43 H           1.1683    5.3163    3.5857 H       1  UNL1        0.0528
     44 H           1.0345    7.7255    3.2030 H       1  UNL1        0.0286
     45 H           0.6287    7.4969    1.4564 H       1  UNL1        0.0286
     46 H          -1.4227    6.2299    2.0578 H       1  UNL1        0.0286
     47 H          -1.0715    6.5011    3.8269 H       1  UNL1        0.0286
     48 H          -0.3227   -1.2002    7.5722 H       1  UNL1        0.2017
@<TRIPOS>UNITY_ATOM_ATTR
12 1
charge 1
@<TRIPOS>BOND
     1     1     2    1
     2     1    28    1
     3     1    29    1
     4     1    30    1
     5     2     7   ar
     6     2     3   ar
     7     3    20   ar
     8     3     4   ar
     9     4     5   ar
    10     4    17   ar
    11     5     6   ar
    12     5    31    1
    13     6     7   ar
    14     6     9    1
    15     7     8    1
    16     9    15    1
    17     9    10    1
    18    10    11    1
    19    10    32    1
    20    10    33    1
    21    11    12    1
    22    11    34    1
    23    11    35    1
    24    12    13    1
    25    12    36    1
    26    12    48    1
    27    13    15    1
    28    15    37    1
    29    15    38    1
    30    16    39    1
    31    16    40    1
    32    16    41    1
    33    17    18   ar
    34    17    25    1
    35    18    19   ar
    36    18    42    1
    37    19    20   ar
    38    19    22    1
    39    20    21    2
    40    22    23   ar
    41    22    24   ar
    42    25    27    1
    43    25    26    1
    44    25    43    1
    45    26    27    1
    46    26    44    1
    47    26    45    1
    48    27    46    1
    49    27    47    1
    50    13    16    1
    51    13    14    1
