@<TRIPOS>MOLECULE
ZINC01530906
 38 39 0 0 0
SMALL
GASTEIGER

@<TRIPOS>ATOM
      1 C           1.1630   -0.3361    0.1366 C.3     1  UNL1        0.0110
      2 N           0.7419    0.9741    0.7008 N.3     1  UNL1       -0.1586
      3 C           1.5233    2.1209    0.2083 C.3     1  UNL1        0.1029
      4 H           2.5555    2.0459    0.5719 H       1  UNL1        0.0692
      5 N           0.9337    3.3658    0.6820 N.pl3   1  UNL1       -0.3250
      6 C           0.5048    3.5732    1.9742 C.ar    1  UNL1        0.0565
      7 C           0.2617    4.8732    2.4417 C.ar    1  UNL1       -0.0186
      8 C          -0.1279    5.1225    3.7733 C.ar    1  UNL1        0.0691
      9 C          -0.2970    4.0535    4.6554 C.ar    1  UNL1        0.1252
     10 C          -0.0549    2.7530    4.2148 C.ar    1  UNL1       -0.0057
     11 C           0.3612    2.5434    2.8957 C.ar    1  UNL1        0.1282
     12 S           0.7138    0.9092    2.3948 S.O2    1  UNL1        0.0641
     13 O          -0.4034    0.0715    2.7763 O.2     1  UNL1       -0.1527
     14 O           2.0615    0.6177    2.8369 O.2     1  UNL1       -0.1527
     15 S          -0.8854    4.2861    6.3030 S.O2    1  UNL1        0.0574
     16 O          -2.0580    5.1268    6.2748 O.2     1  UNL1       -0.1532
     17 O          -0.8775    3.0104    6.9842 O.2     1  UNL1       -0.1532
     18 N           0.3394    5.1681    7.0379 N.3     1  UNL1       -0.2035
     19 CL         -0.3303    6.7775    4.2268 Cl      1  UNL1       -0.0815
     20 C           1.5547    2.1390   -1.3498 C.3     1  UNL1        0.0273
     21 S           2.4153    3.5707   -2.1262 S.3     1  UNL1       -0.1487
     22 C           4.1422    3.3293   -1.5268 C.3     1  UNL1        0.0892
     23 C           4.8695    2.0268   -1.8607 C.3     1  UNL1        0.3988
     24 F           4.1269    1.1687   -2.5895 F       1  UNL1       -0.1698
     25 F           6.0086    2.2650   -2.5471 F       1  UNL1       -0.1698
     26 F           5.2094    1.3823   -0.7189 F       1  UNL1       -0.1698
     27 H           0.6138   -0.5286   -0.7890 H       1  UNL1        0.0409
     28 H           0.9368   -1.1653    0.8151 H       1  UNL1        0.0409
     29 H           2.2399   -0.3552   -0.0616 H       1  UNL1        0.0409
     30 H           0.8319    4.1121   -0.0015 H       1  UNL1        0.1477
     31 H           0.3961    5.7189    1.7678 H       1  UNL1        0.0652
     32 H          -0.1790    1.9004    4.8813 H       1  UNL1        0.0658
     33 H           0.0777    6.1534    7.0866 H       1  UNL1        0.1442
     34 H           0.5387    4.7588    7.9536 H       1  UNL1        0.1442
     35 H           2.0019    1.2266   -1.7504 H       1  UNL1        0.0408
     36 H           0.5259    2.1626   -1.7302 H       1  UNL1        0.0408
     37 H           4.7182    4.1613   -1.9466 H       1  UNL1        0.0464
     38 H           4.1397    3.4857   -0.4436 H       1  UNL1        0.0464
@<TRIPOS>BOND
     1     1     2    1
     2     1    27    1
     3     1    28    1
     4     1    29    1
     5     2    12    1
     6     2     3    1
     7     3     4    1
     8     3     5    1
     9     3    20    1
    10     5     6    1
    11     5    30    1
    12     6    11   ar
    13     6     7   ar
    14     7     8   ar
    15     7    31    1
    16     8     9   ar
    17     8    19    1
    18     9    10   ar
    19     9    15    1
    20    10    11   ar
    21    10    32    1
    22    11    12    1
    23    12    13    2
    24    12    14    2
    25    15    16    2
    26    15    17    2
    27    15    18    1
    28    18    33    1
    29    18    34    1
    30    20    21    1
    31    20    35    1
    32    20    36    1
    33    21    22    1
    34    22    23    1
    35    22    37    1
    36    22    38    1
    37    23    24    1
    38    23    25    1
    39    23    26    1
