@<TRIPOS>MOLECULE
ZINC00968256
 29 31 0 0 0
SMALL
GASTEIGER

@<TRIPOS>ATOM
      1 C           1.0742   -0.5171   -0.1819 C.3     1  UNL1       -0.0469
      2 C           1.2487    0.5202    0.9416 C.3     1  UNL1       -0.0352
      3 C           1.8505    1.8075    0.3499 C.3     1  UNL1       -0.0469
      4 C           0.9219    2.3755   -0.7385 C.3     1  UNL1       -0.0352
      5 C           0.7490    1.3269   -1.8521 C.3     1  UNL1       -0.0469
      6 C           0.1418    0.0354   -1.2740 C.3     1  UNL1       -0.0352
      7 C          -1.2313    0.3563   -0.6553 C.3     1  UNL1       -0.0041
      8 C          -1.0555    1.3978    0.4635 C.3     1  UNL1       -0.0127
      9 C          -0.1277    0.8385    1.5547 C.3     1  UNL1       -0.0041
     10 C          -0.4527    2.6884   -0.1177 C.3     1  UNL1       -0.0041
     11 N          -2.3821    1.7031    1.0579 N.4     1  UNL1        0.2229
     12 H           0.6591   -1.4465    0.2271 H       1  UNL1        0.0271
     13 H           2.0523   -0.7692   -0.6138 H       1  UNL1        0.0271
     14 H           1.9158    0.1207    1.7161 H       1  UNL1        0.0303
     15 H           1.9969    2.5513    1.1427 H       1  UNL1        0.0271
     16 H           2.8394    1.5967   -0.0757 H       1  UNL1        0.0271
     17 H           1.3566    3.2904   -1.1553 H       1  UNL1        0.0303
     18 H           1.7190    1.1094   -2.3162 H       1  UNL1        0.0271
     19 H           0.1005    1.7236   -2.6424 H       1  UNL1        0.0271
     20 H           0.0248   -0.7072   -2.0713 H       1  UNL1        0.0303
     21 H          -1.9075    0.7351   -1.4325 H       1  UNL1        0.0325
     22 H          -1.6849   -0.5615   -0.2606 H       1  UNL1        0.0325
     23 H          -0.0124    1.5610    2.3729 H       1  UNL1        0.0325
     24 H          -0.5539   -0.0729    1.9942 H       1  UNL1        0.0325
     25 H          -0.3377    3.4475    0.6671 H       1  UNL1        0.0325
     26 H          -1.1165    3.1172   -0.8792 H       1  UNL1        0.0325
     27 H          -2.7200    0.9316    1.6501 H       1  UNL1        0.1999
     28 H          -3.0968    1.8639    0.3349 H       1  UNL1        0.1999
     29 H          -2.3522    2.5463    1.6475 H       1  UNL1        0.1999
@<TRIPOS>UNITY_ATOM_ATTR
11 1
charge 1
@<TRIPOS>BOND
     1     1     6    1
     2     1     2    1
     3     1    12    1
     4     1    13    1
     5     2     9    1
     6     2     3    1
     7     2    14    1
     8     3     4    1
     9     3    15    1
    10     3    16    1
    11     4    10    1
    12     4     5    1
    13     4    17    1
    14     5     6    1
    15     5    18    1
    16     5    19    1
    17     6     7    1
    18     6    20    1
    19     7     8    1
    20     7    21    1
    21     7    22    1
    22     8     9    1
    23     8    10    1
    24     8    11    1
    25     9    23    1
    26     9    24    1
    27    10    25    1
    28    10    26    1
    29    11    27    1
    30    11    28    1
    31    11    29    1
