@<TRIPOS>MOLECULE
ZINC03782599
 63 66 0 0 0
SMALL
GASTEIGER

@<TRIPOS>ATOM
      1 C           1.1976    1.7602    0.9394 C.3     1  UNL1       -0.0586
      2 C           0.7861    1.9320   -0.5503 C.3     1  UNL1       -0.0179
      3 C           0.2841    3.3667   -0.7536 C.3     1  UNL1       -0.0464
      4 C          -1.0279    3.5969    0.0041 C.3     1  UNL1       -0.0486
      5 C          -2.1194    2.5738   -0.4030 C.3     1  UNL1       -0.0274
      6 H          -2.3066    2.7586   -1.4737 H       1  UNL1        0.0312
      7 C          -1.6415    1.0920   -0.2774 C.3     1  UNL1       -0.0340
      8 H          -1.5211    0.8031    0.7723 H       1  UNL1        0.0307
      9 C          -0.3180    0.9494   -0.9954 C.3     1  UNL1       -0.0318
     10 H          -0.5407    1.1546   -2.0567 H       1  UNL1        0.0309
     11 C           0.3987   -0.3893   -0.9597 C.3     1  UNL1       -0.0487
     12 C           1.6377   -0.0364   -1.7760 C.3     1  UNL1       -0.0411
     13 C           1.8713    1.4916   -1.5624 C.3     1  UNL1        0.0412
     14 H           1.6774    1.9932   -2.5251 H       1  UNL1        0.0400
     15 C           3.3054    1.7903   -1.2236 C.2     1  UNL1        0.2170
     16 O           3.6591    2.4383   -0.2480 O.2     1  UNL1       -0.2755
     17 N           4.1682    1.2835   -2.1800 N.am    1  UNL1       -0.3103
     18 C           5.6268    1.3144   -2.0363 C.3     1  UNL1        0.0262
     19 C           6.0438    0.4650   -0.8275 C.3     1  UNL1       -0.0442
     20 C           6.1103    2.7653   -1.9004 C.3     1  UNL1       -0.0442
     21 C           6.2373    0.7022   -3.3069 C.3     1  UNL1       -0.0442
     22 C          -2.6826    0.1510   -0.9071 C.3     1  UNL1       -0.0480
     23 C          -4.0411    0.2843   -0.2264 C.3     1  UNL1       -0.0334
     24 C          -4.4994    1.7363   -0.2327 C.3     1  UNL1        0.0325
     25 H          -4.6859    1.9939   -1.2887 H       1  UNL1        0.0507
     26 C          -3.4668    2.7619    0.3431 C.3     1  UNL1        0.0078
     27 C          -4.1005    4.1181    0.0539 C.2     1  UNL1       -0.0712
     28 C          -5.4304    4.2970    0.1727 C.2     1  UNL1       -0.0032
     29 C          -6.2805    3.1731    0.6514 C.2     1  UNL1        0.2369
     30 O          -7.3467    3.3717    1.2182 O.2     1  UNL1       -0.2708
     31 N          -5.7714    1.9191    0.4335 N.am    1  UNL1       -0.3082
     32 C          -3.2860    2.6047    1.8813 C.3     1  UNL1       -0.0541
     33 H           1.8581    0.9037    1.1024 H       1  UNL1        0.0235
     34 H           1.7283    2.6482    1.3059 H       1  UNL1        0.0235
     35 H           0.3352    1.6336    1.6010 H       1  UNL1        0.0235
     36 H           1.0366    4.0919   -0.4190 H       1  UNL1        0.0271
     37 H           0.1159    3.5686   -1.8188 H       1  UNL1        0.0271
     38 H          -1.3582    4.6179   -0.2127 H       1  UNL1        0.0268
     39 H          -0.8430    3.5646    1.0826 H       1  UNL1        0.0268
     40 H          -0.1632   -1.2122   -1.4058 H       1  UNL1        0.0268
     41 H           0.6730   -0.6871    0.0595 H       1  UNL1        0.0268
     42 H           2.4860   -0.6718   -1.5138 H       1  UNL1        0.0273
     43 H           1.4140   -0.2068   -2.8388 H       1  UNL1        0.0273
     44 H           3.7741    0.8661   -3.0151 H       1  UNL1        0.1492
     45 H           7.0989    0.6203   -0.5810 H       1  UNL1        0.0250
     46 H           5.4597    0.6941    0.0705 H       1  UNL1        0.0250
     47 H           5.8961   -0.6032   -1.0285 H       1  UNL1        0.0250
     48 H           5.8662    3.1898   -0.9222 H       1  UNL1        0.0250
     49 H           5.6395    3.4039   -2.6582 H       1  UNL1        0.0250
     50 H           7.1950    2.8348   -2.0238 H       1  UNL1        0.0250
     51 H           5.7811   -0.2668   -3.5412 H       1  UNL1        0.0250
     52 H           6.0792    1.3500   -4.1757 H       1  UNL1        0.0250
     53 H           7.3153    0.5471   -3.1903 H       1  UNL1        0.0250
     54 H          -2.7872    0.3844   -1.9760 H       1  UNL1        0.0269
     55 H          -2.3550   -0.8925   -0.8487 H       1  UNL1        0.0269
     56 H          -4.7656   -0.3348   -0.7717 H       1  UNL1        0.0283
     57 H          -3.9886   -0.1136    0.7892 H       1  UNL1        0.0283
     58 H          -3.4915    4.9550   -0.2764 H       1  UNL1        0.0580
     59 H          -5.9228    5.2418   -0.0092 H       1  UNL1        0.0666
     60 H          -6.2862    1.1459    0.8435 H       1  UNL1        0.1493
     61 H          -3.4033    3.5614    2.4063 H       1  UNL1        0.0239
     62 H          -2.2986    2.2257    2.1565 H       1  UNL1        0.0239
     63 H          -4.0056    1.9008    2.3107 H       1  UNL1        0.0239
@<TRIPOS>BOND
     1     1    33    1
     2     1    34    1
     3     1    35    1
     4     2     1    1
     5     2     9    1
     6     2    13    1
     7     2     3    1
     8     3     4    1
     9     3    36    1
    10     3    37    1
    11     4     5    1
    12     4    38    1
    13     4    39    1
    14     5     6    1
    15     5    26    1
    16     5     7    1
    17     7     8    1
    18     7     9    1
    19     7    22    1
    20     9    10    1
    21     9    11    1
    22    11    12    1
    23    11    40    1
    24    11    41    1
    25    12    13    1
    26    12    42    1
    27    12    43    1
    28    13    14    1
    29    13    15    1
    30    15    16    2
    31    15    17   am
    32    17    18    1
    33    17    44    1
    34    18    19    1
    35    18    20    1
    36    18    21    1
    37    19    45    1
    38    19    46    1
    39    19    47    1
    40    20    48    1
    41    20    49    1
    42    20    50    1
    43    21    51    1
    44    21    52    1
    45    21    53    1
    46    22    23    1
    47    22    54    1
    48    22    55    1
    49    23    24    1
    50    23    56    1
    51    23    57    1
    52    24    25    1
    53    24    31    1
    54    24    26    1
    55    26    27    1
    56    26    32    1
    57    27    28    2
    58    27    58    1
    59    28    29    1
    60    28    59    1
    61    29    30    2
    62    29    31   am
    63    31    60    1
    64    32    61    1
    65    32    62    1
    66    32    63    1
