@<TRIPOS>MOLECULE
ZINC00007782
 25 26 0 0 0
SMALL
GASTEIGER

@<TRIPOS>ATOM
      1 C           0.0690   -1.8820    0.1460 C.ar    1  UNL1       -0.0563
      2 C           1.1022   -1.1667   -0.4574 C.ar    1  UNL1       -0.0259
      3 C           1.0375    0.2248   -0.5205 C.ar    1  UNL1        0.1311
      4 C          -0.0400    0.9296    0.0146 C.ar    1  UNL1        0.0442
      5 C          -1.0725    0.1934    0.5989 C.ar    1  UNL1        0.1311
      6 C          -1.0252   -1.1971    0.6725 C.ar    1  UNL1       -0.0259
      7 F          -2.1331    0.8330    1.1109 F       1  UNL1       -0.2050
      8 C          -0.0989    2.4263   -0.0530 C.3     1  UNL1        0.0736
      9 N          -0.7840    2.8782   -1.2488 N.ar    1  UNL1       -0.2464
     10 C          -2.1119    3.1398   -1.4046 C.ar    1  UNL1        0.0582
     11 C          -2.2273    3.5203   -2.7251 C.ar    1  UNL1        0.1666
     12 N          -0.9754    3.5173   -3.2983 N.ar    1  UNL1       -0.1248
     13 N          -0.0992    3.1329   -2.3794 N.ar    1  UNL1       -0.0647
     14 C          -3.4406    3.8668   -3.4421 C.2     1  UNL1        0.2632
     15 O          -4.5605    3.8537   -2.9427 O.2     1  UNL1       -0.2686
     16 N          -3.2497    4.2117   -4.7506 N.am    1  UNL1       -0.3240
     17 F           2.0493    0.8899   -1.0933 F       1  UNL1       -0.2050
     18 H           0.1168   -2.9668    0.2045 H       1  UNL1        0.0619
     19 H           1.9609   -1.6814   -0.8785 H       1  UNL1        0.0646
     20 H          -1.8426   -1.7381    1.1412 H       1  UNL1        0.0646
     21 H          -0.6315    2.8357    0.8131 H       1  UNL1        0.0561
     22 H           0.9039    2.8673   -0.0453 H       1  UNL1        0.0561
     23 H          -2.8402    3.0202   -0.6155 H       1  UNL1        0.0850
     24 H          -2.3224    4.2088   -5.1562 H       1  UNL1        0.1453
     25 H          -4.0531    4.4415   -5.3161 H       1  UNL1        0.1453
@<TRIPOS>BOND
     1     1     6   ar
     2     1     2   ar
     3     1    18    1
     4     2     3   ar
     5     2    19    1
     6     3     4   ar
     7     3    17    1
     8     4     5   ar
     9     4     8    1
    10     5     6   ar
    11     5     7    1
    12     6    20    1
    13     8     9    1
    14     8    21    1
    15     8    22    1
    16     9    13   ar
    17     9    10   ar
    18    10    11   ar
    19    10    23    1
    20    11    12   ar
    21    11    14    1
    22    12    13   ar
    23    14    15    2
    24    14    16   am
    25    16    24    1
    26    16    25    1
