@<TRIPOS>MOLECULE
ZINC00001051
 29 31 0 0 0
SMALL
GASTEIGER

@<TRIPOS>ATOM
      1 C           1.3649    0.0617    0.8116 C.ar    1  UNL1       -0.0583
      2 C           0.8544    1.1474    0.1111 C.ar    1  UNL1       -0.0436
      3 C          -0.3565    1.0049   -0.5545 C.ar    1  UNL1        0.0283
      4 N          -1.0558   -0.1430   -0.5709 N.ar    1  UNL1       -0.2534
      5 C          -0.5349   -1.1905    0.1116 C.ar    1  UNL1        0.0893
      6 C           0.6536   -1.1296    0.8322 C.ar    1  UNL1       -0.0342
      7 C          -1.2004   -2.5194   -0.0545 C.2     1  UNL1        0.0932
      8 N          -1.1217   -3.3430    0.9367 N.2     1  UNL1       -0.2718
      9 C          -1.6440   -4.6935    0.8047 C.3     1  UNL1        0.1168
     10 C          -3.1522   -4.6907    0.6794 C.2     1  UNL1        0.2386
     11 O          -3.8884   -5.2293    1.5057 O.2     1  UNL1       -0.2734
     12 N          -3.6885   -4.1943   -0.4768 N.am    1  UNL1       -0.2834
     13 C          -3.0141   -3.5523   -1.5236 C.ar    1  UNL1        0.0428
     14 C          -1.8368   -2.8030   -1.3817 C.ar    1  UNL1        0.0243
     15 C          -1.2470   -2.2304   -2.5257 C.ar    1  UNL1       -0.0367
     16 C          -1.8187   -2.3912   -3.7822 C.ar    1  UNL1        0.0186
     17 C          -2.9921   -3.1152   -3.9211 C.ar    1  UNL1       -0.0460
     18 C          -3.5956   -3.6801   -2.7951 C.ar    1  UNL1       -0.0388
     19 BR         -1.0022   -1.5998   -5.2892 Br      1  UNL1       -0.0503
     20 H           2.3191    0.1322    1.3284 H       1  UNL1        0.0619
     21 H           1.3840    2.0927    0.0829 H       1  UNL1        0.0633
     22 H          -0.7908    1.8271   -1.1099 H       1  UNL1        0.0830
     23 H           1.0283   -2.0045    1.3525 H       1  UNL1        0.0639
     24 H          -1.1923   -5.2254   -0.0403 H       1  UNL1        0.0605
     25 H          -1.3800   -5.2584    1.7055 H       1  UNL1        0.0605
     26 H          -4.6611   -4.4485   -0.5985 H       1  UNL1        0.1549
     27 H          -0.3422   -1.6318   -2.4456 H       1  UNL1        0.0636
     28 H          -3.4409   -3.2577   -4.9017 H       1  UNL1        0.0629
     29 H          -4.5042   -4.2613   -2.9312 H       1  UNL1        0.0637
@<TRIPOS>BOND
     1     1     6   ar
     2     1     2   ar
     3     1    20    1
     4     2     3   ar
     5     2    21    1
     6     3     4   ar
     7     3    22    1
     8     4     5   ar
     9     5     6   ar
    10     5     7    1
    11     6    23    1
    12     7    14    1
    13     7     8    2
    14     8     9    1
    15     9    10    1
    16     9    24    1
    17     9    25    1
    18    10    11    2
    19    10    12   am
    20    12    13    1
    21    12    26    1
    22    13    18   ar
    23    13    14   ar
    24    14    15   ar
    25    15    16   ar
    26    15    27    1
    27    16    17   ar
    28    16    19    1
    29    17    18   ar
    30    17    28    1
    31    18    29    1
