@<TRIPOS>MOLECULE
ZINC00508068
 39 40 0 0 0
SMALL
GASTEIGER

@<TRIPOS>ATOM
      1 C           0.4214    5.3228    2.1023 C.3     1  UNL1       -0.0433
      2 N          -0.1790    4.6663    3.3056 N.4     1  UNL1        0.2309
      3 C          -0.0849    5.5299    4.5246 C.3     1  UNL1       -0.0433
      4 C          -1.5359    4.0581    3.0975 C.3     1  UNL1       -0.0315
      5 C          -1.5278    2.8461    2.1527 C.3     1  UNL1       -0.0003
      6 C          -0.6722    1.6036    2.5205 C.3     1  UNL1        0.0312
      7 H          -0.9262    0.8561    1.7516 H       1  UNL1        0.0414
      8 C          -1.0751    0.9858    3.8603 C.ar    1  UNL1       -0.0383
      9 C          -1.8232   -0.2016    3.8885 C.ar    1  UNL1       -0.0579
     10 C          -2.1767   -0.7897    5.1070 C.ar    1  UNL1       -0.0615
     11 C          -1.8044   -0.1976    6.3120 C.ar    1  UNL1       -0.0617
     12 C          -1.0768    0.9830    6.3055 C.ar    1  UNL1       -0.0615
     13 C          -0.7151    1.5625    5.0930 C.ar    1  UNL1       -0.0579
     14 C           0.8403    1.8215    2.3861 C.ar    1  UNL1        0.0488
     15 C           1.5710    1.2213    1.3669 C.ar    1  UNL1       -0.0398
     16 C           2.9558    1.4250    1.3190 C.ar    1  UNL1       -0.0586
     17 C           3.5747    2.1964    2.2930 C.ar    1  UNL1       -0.0436
     18 C           2.7888    2.7622    3.2676 C.ar    1  UNL1        0.0279
     19 N           1.4402    2.6361    3.3064 N.ar    1  UNL1       -0.2593
     20 H          -0.0483    6.2963    1.9549 H       1  UNL1        0.0777
     21 H           0.2763    4.6843    1.2277 H       1  UNL1        0.0777
     22 H           1.4968    5.4319    2.2849 H       1  UNL1        0.0777
     23 H          -0.6483    6.4503    4.3459 H       1  UNL1        0.0777
     24 H          -0.4931    4.9795    5.3758 H       1  UNL1        0.0777
     25 H           0.9716    5.7438    4.7014 H       1  UNL1        0.0777
     26 H          -1.9308    3.7738    4.0788 H       1  UNL1        0.0814
     27 H          -2.1828    4.8507    2.7059 H       1  UNL1        0.0814
     28 H          -2.5734    2.5147    2.0761 H       1  UNL1        0.0326
     29 H          -1.2619    3.1760    1.1410 H       1  UNL1        0.0326
     30 H          -2.1232   -0.6972    2.9688 H       1  UNL1        0.0620
     31 H          -2.7368   -1.7232    5.1180 H       1  UNL1        0.0618
     32 H          -2.0708   -0.6659    7.2575 H       1  UNL1        0.0618
     33 H          -0.7729    1.4425    7.2421 H       1  UNL1        0.0618
     34 H          -0.1162    2.4617    5.1453 H       1  UNL1        0.0620
     35 H           1.0978    0.5853    0.6237 H       1  UNL1        0.0636
     36 H           3.5460    0.9573    0.5390 H       1  UNL1        0.0619
     37 H           4.6530    2.3361    2.2937 H       1  UNL1        0.0633
     38 H           3.2278    3.3561    4.0658 H       1  UNL1        0.0829
     39 H           0.4581    3.8684    3.5059 H       1  UNL1        0.2028
@<TRIPOS>UNITY_ATOM_ATTR
2 1
charge 1
@<TRIPOS>BOND
     1     1     2    1
     2     1    20    1
     3     1    21    1
     4     1    22    1
     5     2     3    1
     6     2     4    1
     7     2    39    1
     8     3    23    1
     9     3    24    1
    10     3    25    1
    11     4     5    1
    12     4    26    1
    13     4    27    1
    14     5    28    1
    15     5    29    1
    16     6     8    1
    17     6    14    1
    18     8    13   ar
    19     8     9   ar
    20     9    10   ar
    21     9    30    1
    22    10    11   ar
    23    10    31    1
    24    11    12   ar
    25    11    32    1
    26    12    13   ar
    27    12    33    1
    28    13    34    1
    29    14    19   ar
    30    14    15   ar
    31    15    16   ar
    32    15    35    1
    33    16    17   ar
    34    16    36    1
    35    17    18   ar
    36    17    37    1
    37    18    19   ar
    38    18    38    1
    39     6     7    1
    40     6     5    1
