@<TRIPOS>MOLECULE
ZINC00020220
 42 45 0 0 0
SMALL
GASTEIGER

@<TRIPOS>ATOM
      1 C          -1.2751   -1.3322    0.1533 C.ar    1  UNL1       -0.0118
      2 C          -0.0544   -0.6557    0.1046 C.ar    1  UNL1        0.0488
      3 C           0.0018    0.7544    0.0873 C.ar    1  UNL1        0.0549
      4 C          -1.2165    1.4520    0.1129 C.ar    1  UNL1       -0.0136
      5 C          -2.4702    0.8017    0.1959 C.ar    1  UNL1        0.0677
      6 C          -2.4514   -0.6066    0.2173 C.ar    1  UNL1        0.1451
      7 F          -3.5931   -1.2854    0.3709 F       1  UNL1       -0.2035
      8 N          -3.6443    1.5507    0.2831 N.pl3   1  UNL1       -0.3175
      9 C          -3.6539    2.8377    0.9924 C.3     1  UNL1        0.0525
     10 C          -4.7021    2.8214    2.1219 C.3     1  UNL1       -0.0175
     11 N          -6.0437    2.3678    1.5996 N.4     1  UNL1        0.2292
     12 C          -5.9658    1.0055    0.9388 C.3     1  UNL1       -0.0175
     13 C          -4.9352    1.0411   -0.2044 C.3     1  UNL1        0.0525
     14 N           1.2604    1.4113    0.1110 N.ar    1  UNL1       -0.3425
     15 C           2.3912    0.6116    0.1899 C.ar    1  UNL1        0.0233
     16 C           2.4638   -0.7243    0.1730 C.ar    1  UNL1        0.1263
     17 C           1.1974   -1.4554    0.0506 C.ar    1  UNL1        0.2036
     18 O           1.0865   -2.6622   -0.1296 O.2     1  UNL1       -0.2863
     19 C           3.8451   -1.3750    0.1879 C.2     1  UNL1        0.3916
     20 O           3.9286   -2.5158    0.7155 O.co2   1  UNL1       -0.2404
     21 O           4.7857   -0.6505   -0.2662 O.co2   1  UNL1       -0.2404
     22 C           1.5935    2.7088   -0.5257 C.3     1  UNL1        0.0347
     23 C           1.4143    2.6134   -2.0467 C.3     1  UNL1       -0.0302
     24 C           1.0164    3.8363   -1.3223 C.3     1  UNL1       -0.0302
     25 H          -1.3093   -2.4160    0.1710 H       1  UNL1        0.0654
     26 H          -1.1605    2.5324    0.0701 H       1  UNL1        0.0658
     27 H          -3.8876    3.6293    0.2729 H       1  UNL1        0.0516
     28 H          -2.6926    3.0841    1.4545 H       1  UNL1        0.0516
     29 H          -4.4252    2.1253    2.9207 H       1  UNL1        0.0829
     30 H          -4.8448    3.8213    2.5415 H       1  UNL1        0.0829
     31 H          -6.7211    2.3389    2.3705 H       1  UNL1        0.2015
     32 H          -6.9710    0.7832    0.5687 H       1  UNL1        0.0829
     33 H          -5.6939    0.2908    1.7222 H       1  UNL1        0.0829
     34 H          -5.2938    1.7277   -0.9815 H       1  UNL1        0.0516
     35 H          -4.8810    0.0627   -0.6895 H       1  UNL1        0.0516
     36 H           3.3308    1.1653    0.2201 H       1  UNL1        0.0819
     37 H           2.5116    3.0833   -0.0690 H       1  UNL1        0.0528
     38 H           2.3404    2.4920   -2.5905 H       1  UNL1        0.0286
     39 H           0.5943    2.0204   -2.4423 H       1  UNL1        0.0286
     40 H          -0.0186    4.1183   -1.2500 H       1  UNL1        0.0286
     41 H           1.6776    4.6879   -1.5000 H       1  UNL1        0.0286
     42 H          -6.3870    3.0530    0.9156 H       1  UNL1        0.2015
@<TRIPOS>UNITY_ATOM_ATTR
11 1
charge 1
@<TRIPOS>BOND
     1     1     6   ar
     2     1     2   ar
     3     1    25    1
     4     2    17   ar
     5     2     3   ar
     6     3     4   ar
     7     3    14   ar
     8     4     5   ar
     9     4    26    1
    10     5     6   ar
    11     5     8    1
    12     6     7    1
    13     8    13    1
    14     8     9    1
    15     9    10    1
    16     9    27    1
    17     9    28    1
    18    10    11    1
    19    10    29    1
    20    10    30    1
    21    11    12    1
    22    11    31    1
    23    11    42    1
    24    12    13    1
    25    12    32    1
    26    12    33    1
    27    13    34    1
    28    13    35    1
    29    14    15   ar
    30    14    22    1
    31    15    16   ar
    32    15    36    1
    33    16    17   ar
    34    16    19    1
    35    17    18    2
    36    19    20   ar
    37    19    21   ar
    38    22    24    1
    39    22    23    1
    40    22    37    1
    41    23    24    1
    42    23    38    1
    43    23    39    1
    44    24    40    1
    45    24    41    1
