@<TRIPOS>MOLECULE
ZINC00895030
 12 11 0 0 0
SMALL
GASTEIGER

@<TRIPOS>ATOM
      1 C           1.0738   -0.1327    0.1022 C.3     1  UNL1        0.0594
      2 C           0.5307   -0.3971   -1.3018 C.3     1  UNL1        0.0594
      3 C           1.0557    0.4793   -2.4444 C.2     1  UNL1        0.3565
      4 O           0.6340    0.1557   -3.5979 O.co2   1  UNL1       -0.2464
      5 O           1.8373    1.4267   -2.1454 O.co2   1  UNL1       -0.2464
      6 C           0.5612   -1.0360    1.2304 C.2     1  UNL1        0.3565
      7 O           1.0092   -0.7490    2.3838 O.co2   1  UNL1       -0.2464
      8 O          -0.2392   -1.9640    0.9226 O.co2   1  UNL1       -0.2464
      9 H           0.8478    0.9041    0.3832 H       1  UNL1        0.0384
     10 H           2.1675   -0.2219    0.0848 H       1  UNL1        0.0384
     11 H           0.7364   -1.4410   -1.5714 H       1  UNL1        0.0384
     12 H          -0.5611   -0.2866   -1.2857 H       1  UNL1        0.0384
@<TRIPOS>BOND
     1     1     2    1
     2     1     6    1
     3     1     9    1
     4     1    10    1
     5     2     3    1
     6     2    11    1
     7     2    12    1
     8     3     4   ar
     9     3     5   ar
    10     6     7   ar
    11     6     8   ar
