@<TRIPOS>MOLECULE
ZINC03831552
 54 56 0 0 0
SMALL
GASTEIGER

@<TRIPOS>ATOM
      1 C           0.3664    1.1975    2.2712 C.3     1  UNL1       -0.0644
      2 C           0.4417    1.1708    0.7541 C.3     1  UNL1       -0.0438
      3 C           1.1136    2.4245    0.1330 C.3     1  UNL1        0.0245
      4 H           1.2270    2.1890   -0.9414 H       1  UNL1        0.0410
      5 C           0.2076    3.6397    0.1124 C.ar    1  UNL1       -0.0258
      6 C          -1.0362    3.4539   -0.5806 C.ar    1  UNL1       -0.0119
      7 C          -2.0363    4.4313   -0.6802 C.ar    1  UNL1        0.1618
      8 C          -1.7480    5.6884   -0.1748 C.ar    1  UNL1        0.1621
      9 C          -0.4802    5.9125    0.3817 C.ar    1  UNL1       -0.0068
     10 C           0.4724    4.9007    0.6444 C.ar    1  UNL1        0.0102
     11 C           1.6463    5.2488    1.5198 C.2     1  UNL1        0.1009
     12 N           2.7051    4.5558    1.7765 N.2     1  UNL1       -0.1487
     13 N           3.1720    3.4045    1.2584 N.2     1  UNL1       -0.1577
     14 C           2.5463    2.5060    0.5878 C.2     1  UNL1        0.0454
     15 C           3.4394    1.3165    0.2364 C.3     1  UNL1       -0.0239
     16 C           1.7122    6.6095    2.2115 C.ar    1  UNL1        0.0064
     17 C           0.6175    7.2230    2.8236 C.ar    1  UNL1       -0.0488
     18 C           0.6969    8.5605    3.2292 C.ar    1  UNL1       -0.0157
     19 C           1.9028    9.2638    3.1364 C.ar    1  UNL1        0.1615
     20 C           3.0549    8.5997    2.6759 C.ar    1  UNL1        0.1621
     21 C           2.9458    7.2874    2.1996 C.ar    1  UNL1       -0.0071
     22 O           4.2221    9.3245    2.6895 O.3     1  UNL1       -0.4914
     23 C           5.4322    8.6220    2.4351 C.3     1  UNL1        0.0790
     24 O           2.0562   10.5846    3.4788 O.3     1  UNL1       -0.4915
     25 C           0.8802   11.3212    3.7848 C.3     1  UNL1        0.0790
     26 O          -2.5402    6.8050   -0.1181 O.3     1  UNL1       -0.4914
     27 C          -3.9044    6.7140   -0.5034 C.3     1  UNL1        0.0790
     28 O          -3.2558    4.2253   -1.2569 O.3     1  UNL1       -0.4914
     29 C          -3.5312    2.9641   -1.8486 C.3     1  UNL1        0.0790
     30 H           1.3647    1.1764    2.7179 H       1  UNL1        0.0230
     31 H          -0.1734    0.3135    2.6263 H       1  UNL1        0.0230
     32 H          -0.1608    2.0856    2.6290 H       1  UNL1        0.0230
     33 H           0.9870    0.2685    0.4497 H       1  UNL1        0.0272
     34 H          -0.5705    1.0222    0.3626 H       1  UNL1        0.0272
     35 H          -1.2111    2.4876   -1.0479 H       1  UNL1        0.0658
     36 H          -0.2792    6.9497    0.6320 H       1  UNL1        0.0662
     37 H           3.1781    0.4692    0.8780 H       1  UNL1        0.0290
     38 H           3.3143    1.0344   -0.8118 H       1  UNL1        0.0290
     39 H           4.4933    1.5543    0.4162 H       1  UNL1        0.0290
     40 H          -0.3303    6.7018    2.9320 H       1  UNL1        0.0625
     41 H          -0.2091    9.0302    3.5982 H       1  UNL1        0.0655
     42 H           3.8107    6.7735    1.7899 H       1  UNL1        0.0662
     43 H           5.5814    7.8079    3.1528 H       1  UNL1        0.0660
     44 H           5.4634    8.2541    1.4049 H       1  UNL1        0.0660
     45 H           6.2606    9.3273    2.5562 H       1  UNL1        0.0660
     46 H           0.1695   11.3075    2.9509 H       1  UNL1        0.0660
     47 H           0.4180   10.9497    4.7046 H       1  UNL1        0.0660
     48 H           1.1692   12.3627    3.9556 H       1  UNL1        0.0660
     49 H          -3.9901    6.5719   -1.5836 H       1  UNL1        0.0660
     50 H          -4.4398    5.9366    0.0539 H       1  UNL1        0.0660
     51 H          -4.3827    7.6697   -0.2637 H       1  UNL1        0.0660
     52 H          -2.8518    2.7695   -2.6841 H       1  UNL1        0.0660
     53 H          -3.4962    2.1586   -1.1080 H       1  UNL1        0.0660
     54 H          -4.5491    3.0017   -2.2492 H       1  UNL1        0.0660
@<TRIPOS>BOND
     1     1     2    1
     2     1    30    1
     3     1    31    1
     4     1    32    1
     5     2     3    1
     6     2    33    1
     7     2    34    1
     8     3     4    1
     9     3    14    1
    10     3     5    1
    11     5    10   ar
    12     5     6   ar
    13     6     7   ar
    14     6    35    1
    15     7     8   ar
    16     7    28    1
    17     8     9   ar
    18     8    26    1
    19     9    10   ar
    20     9    36    1
    21    10    11    1
    22    11    12    2
    23    11    16    1
    24    12    13    1
    25    13    14    2
    26    14    15    1
    27    15    37    1
    28    15    38    1
    29    15    39    1
    30    16    21   ar
    31    16    17   ar
    32    17    18   ar
    33    17    40    1
    34    18    19   ar
    35    18    41    1
    36    19    20   ar
    37    19    24    1
    38    20    21   ar
    39    20    22    1
    40    21    42    1
    41    22    23    1
    42    23    43    1
    43    23    44    1
    44    23    45    1
    45    24    25    1
    46    25    46    1
    47    25    47    1
    48    25    48    1
    49    26    27    1
    50    27    49    1
    51    27    50    1
    52    27    51    1
    53    28    29    1
    54    29    52    1
    55    29    53    1
    56    29    54    1
