@<TRIPOS>MOLECULE
ZINC00039906
 28 29 0 0 0
SMALL
GASTEIGER

@<TRIPOS>ATOM
      1 C          -3.1408   -4.7654   -0.8118 C.ar    1  UNL1       -0.0056
      2 C          -1.8776   -4.3538   -0.7448 C.ar    1  UNL1        0.0151
      3 N          -1.4725   -3.4186    0.1813 N.ar    1  UNL1       -0.2726
      4 C          -2.3987   -2.8018    1.0300 C.ar    1  UNL1        0.3521
      5 O          -2.0620   -1.8885    1.7806 O.2     1  UNL1       -0.2444
      6 N          -3.7069   -3.2362    1.0053 N.ar    1  UNL1       -0.1783
      7 C          -4.0619   -4.1599    0.1658 C.ar    1  UNL1        0.1230
      8 N          -5.3690   -4.5629    0.1888 N.pl3   1  UNL1       -0.3430
      9 C          -0.0890   -2.9473    0.2420 C.3     1  UNL1        0.1398
     10 H          -0.0981   -1.8713    0.0323 H       1  UNL1        0.0839
     11 C           0.6056   -3.2280    1.5753 C.3     1  UNL1       -0.0048
     12 C           1.3392   -4.5175    1.3211 C.3     1  UNL1       -0.0203
     13 C           1.7336   -4.3882   -0.1369 C.3     1  UNL1        0.0843
     14 H           2.6662   -3.8223   -0.2458 H       1  UNL1        0.0620
     15 O           0.7076   -3.6008   -0.7749 O.3     1  UNL1       -0.3510
     16 C           1.8615   -5.7502   -0.8215 C.3     1  UNL1        0.0705
     17 O           2.1909   -5.6009   -2.1994 O.3     1  UNL1       -0.3925
     18 H          -3.4941   -5.4959   -1.5212 H       1  UNL1        0.0666
     19 H          -1.1438   -4.7454   -1.4396 H       1  UNL1        0.0812
     20 H          -5.7693   -4.9039   -0.6773 H       1  UNL1        0.1437
     21 H          -5.9701   -3.9185    0.6900 H       1  UNL1        0.1437
     22 H           1.3355   -2.4340    1.7770 H       1  UNL1        0.0309
     23 H          -0.0589   -3.2957    2.4386 H       1  UNL1        0.0309
     24 H           2.2024   -4.6577    1.9778 H       1  UNL1        0.0292
     25 H           0.6573   -5.3634    1.4738 H       1  UNL1        0.0292
     26 H           2.6457   -6.3479   -0.3472 H       1  UNL1        0.0583
     27 H           0.9209   -6.3085   -0.7732 H       1  UNL1        0.0583
     28 H           1.4821   -5.0559   -2.5891 H       1  UNL1        0.2095
@<TRIPOS>BOND
     1     1     7   ar
     2     1     2   ar
     3     1    18    1
     4     2     3   ar
     5     2    19    1
     6     3     4   ar
     7     4     5    2
     8     4     6   ar
     9     6     7   ar
    10     7     8    1
    11     8    20    1
    12     8    21    1
    13     9    15    1
    14     9    11    1
    15    11    12    1
    16    11    22    1
    17    11    23    1
    18    12    13    1
    19    12    24    1
    20    12    25    1
    21    13    14    1
    22    13    15    1
    23    13    16    1
    24    16    17    1
    25    16    26    1
    26    16    27    1
    27    17    28    1
    28     9    10    1
    29     9     3    1
