@<TRIPOS>MOLECULE
ZINC03869855
 35 38 0 0 0
SMALL
GASTEIGER

@<TRIPOS>ATOM
      1 C          -0.8155    3.0008    0.5678 C.ar    1  UNL1       -0.0610
      2 C          -1.8892    2.1426    0.3555 C.ar    1  UNL1       -0.0582
      3 C          -1.6452    0.8060    0.0523 C.ar    1  UNL1       -0.0186
      4 C          -0.3271    0.3389   -0.0303 C.ar    1  UNL1        0.1385
      5 C           0.7682    1.1611    0.1956 C.ar    1  UNL1        0.0102
      6 C           0.4930    2.5112    0.4911 C.ar    1  UNL1       -0.0516
      7 C           2.1720    0.6315    0.1712 C.ar    1  UNL1       -0.0871
      8 C           2.2578   -0.6893   -0.1623 C.ar    1  UNL1        0.0345
      9 C           1.0914   -1.5278   -0.5751 C.ar    1  UNL1        0.3402
     10 O           1.2008   -2.6425   -1.0862 O.2     1  UNL1       -0.2449
     11 O          -0.1763   -1.0020   -0.3845 O.2     1  UNL1       -0.4220
     12 C           3.5789   -1.4658   -0.1675 C.3     1  UNL1        0.0100
     13 C           3.9242   -2.2335    1.1048 C.ar    1  UNL1        0.0345
     14 C           5.0688   -2.9691    1.2491 C.ar    1  UNL1       -0.0871
     15 C           5.1852   -3.5589    2.6277 C.ar    1  UNL1        0.0102
     16 C           6.0554   -4.6154    2.9354 C.ar    1  UNL1       -0.0516
     17 C           6.1249   -5.1450    4.2305 C.ar    1  UNL1       -0.0610
     18 C           5.3330   -4.6127    5.2494 C.ar    1  UNL1       -0.0582
     19 C           4.4857   -3.5461    4.9754 C.ar    1  UNL1       -0.0186
     20 C           4.4201   -3.0412    3.6749 C.ar    1  UNL1        0.1385
     21 O           3.5287   -1.9995    3.4642 O.2     1  UNL1       -0.4220
     22 C           2.9469   -2.1807    2.2300 C.ar    1  UNL1        0.3402
     23 O           1.7286   -2.2827    2.1225 O.2     1  UNL1       -0.2449
     24 O           5.9776   -3.1828    0.3881 O.co2   1  UNL1       -0.8729
     25 O           3.1297    1.4041    0.4831 O.co2   1  UNL1       -0.8729
     26 H          -0.9772    4.0469    0.8040 H       1  UNL1        0.0618
     27 H          -2.9063    2.5110    0.4270 H       1  UNL1        0.0619
     28 H          -2.4674    0.1199   -0.1206 H       1  UNL1        0.0654
     29 H           1.3268    3.1863    0.6759 H       1  UNL1        0.0624
     30 H           3.5879   -2.1568   -1.0213 H       1  UNL1        0.0366
     31 H           4.4021   -0.7679   -0.3736 H       1  UNL1        0.0366
     32 H           6.6787   -5.0274    2.1450 H       1  UNL1        0.0624
     33 H           6.7975   -5.9691    4.4311 H       1  UNL1        0.0618
     34 H           5.3735   -5.0286    6.2496 H       1  UNL1        0.0619
     35 H           3.8557   -3.1162    5.7460 H       1  UNL1        0.0654
@<TRIPOS>UNITY_ATOM_ATTR
24 1
charge -1
25 1
charge -1
@<TRIPOS>BOND
     1     1     6   ar
     2     1     2   ar
     3     1    26    1
     4     2     3   ar
     5     2    27    1
     6     3     4   ar
     7     3    28    1
     8     4    11   ar
     9     4     5   ar
    10     5     6   ar
    11     5     7   ar
    12     6    29    1
    13     7     8   ar
    14     7    25    1
    15     8     9   ar
    16     8    12    1
    17     9    10    2
    18     9    11   ar
    19    12    13    1
    20    12    30    1
    21    12    31    1
    22    13    22   ar
    23    13    14   ar
    24    14    15   ar
    25    14    24    1
    26    15    20   ar
    27    15    16   ar
    28    16    17   ar
    29    16    32    1
    30    17    18   ar
    31    17    33    1
    32    18    19   ar
    33    18    34    1
    34    19    20   ar
    35    19    35    1
    36    20    21   ar
    37    21    22   ar
    38    22    23    2
