@<TRIPOS>MOLECULE
ZINC00897251
 58 61 0 0 0
SMALL
GASTEIGER

@<TRIPOS>ATOM
      1 C          -4.3718    5.6273    0.2947 C.3     1  UNL1        0.0790
      2 O          -3.1175    6.3053    0.1592 O.3     1  UNL1       -0.4914
      3 C          -2.4550    6.4211    1.3598 C.ar    1  UNL1        0.1618
      4 C          -2.3445    5.3144    2.2261 C.ar    1  UNL1       -0.0124
      5 C          -1.8322    5.5134    3.4913 C.ar    1  UNL1       -0.0325
      6 C          -1.4470    6.7881    3.8506 C.ar    1  UNL1        0.0246
      7 C          -1.4163    7.8721    2.9902 C.ar    1  UNL1       -0.0056
      8 C          -1.9148    7.6863    1.7045 C.ar    1  UNL1        0.1622
      9 O          -1.9697    8.6760    0.7565 O.3     1  UNL1       -0.4914
     10 C          -1.3087    9.9040    1.0552 C.3     1  UNL1        0.0790
     11 C          -1.1649    6.7869    5.2669 C.2     1  UNL1        0.1669
     12 O          -0.9933    7.8257    5.8755 O.2     1  UNL1       -0.2917
     13 C          -1.1020    5.3697    5.8023 C.3     1  UNL1        0.0264
     14 H          -1.7377    5.2730    6.6877 H       1  UNL1        0.0384
     15 C          -1.7251    4.5423    4.6264 C.3     1  UNL1       -0.0170
     16 C           0.3372    4.9016    6.1006 C.3     1  UNL1       -0.0397
     17 C           1.1225    5.5583    7.2767 C.3     1  UNL1       -0.0308
     18 C           1.4465    7.0475    7.1764 C.3     1  UNL1       -0.0095
     19 C           2.1579    7.3904    5.8847 C.3     1  UNL1       -0.0313
     20 N           3.3765    6.5101    5.6456 N.4     1  UNL1        0.2385
     21 C           3.3968    5.1063    6.2140 C.3     1  UNL1       -0.0313
     22 C           2.5050    4.9039    7.4333 C.3     1  UNL1       -0.0095
     23 C           4.6890    7.2579    5.8015 C.3     1  UNL1       -0.0059
     24 C           4.8531    8.3498    4.7667 C.ar    1  UNL1       -0.0029
     25 C           4.8030    8.0496    3.3918 C.ar    1  UNL1       -0.0535
     26 C           4.8788    9.0700    2.4428 C.ar    1  UNL1       -0.0613
     27 C           5.0241   10.3923    2.8527 C.ar    1  UNL1       -0.0617
     28 C           5.1004   10.6962    4.2095 C.ar    1  UNL1       -0.0613
     29 C           5.0179    9.6787    5.1628 C.ar    1  UNL1       -0.0535
     30 H          -5.0042    5.8904   -0.5573 H       1  UNL1        0.0660
     31 H          -4.9047    5.9202    1.2092 H       1  UNL1        0.0660
     32 H          -4.2186    4.5432    0.2767 H       1  UNL1        0.0660
     33 H          -2.7008    4.3342    1.9269 H       1  UNL1        0.0658
     34 H          -1.0607    8.8278    3.3554 H       1  UNL1        0.0662
     35 H          -1.7973   10.4222    1.8873 H       1  UNL1        0.0660
     36 H          -0.2446    9.7442    1.2664 H       1  UNL1        0.0660
     37 H          -1.3770   10.5524    0.1763 H       1  UNL1        0.0660
     38 H          -1.1068    3.6821    4.3459 H       1  UNL1        0.0320
     39 H          -2.7245    4.1870    4.8980 H       1  UNL1        0.0320
     40 H           0.2798    3.8273    6.3297 H       1  UNL1        0.0275
     41 H           0.9181    4.9709    5.1741 H       1  UNL1        0.0275
     42 H           0.5522    5.3919    8.1995 H       1  UNL1        0.0305
     43 H           0.5571    7.6567    7.3203 H       1  UNL1        0.0319
     44 H           2.0847    7.3478    8.0187 H       1  UNL1        0.0319
     45 H           1.5186    7.2525    5.0086 H       1  UNL1        0.0814
     46 H           2.4685    8.4391    5.8957 H       1  UNL1        0.0814
     47 H           4.4314    4.8387    6.4529 H       1  UNL1        0.0814
     48 H           3.0784    4.4474    5.3984 H       1  UNL1        0.0814
     49 H           3.0090    5.3241    8.3151 H       1  UNL1        0.0319
     50 H           2.3955    3.8327    7.6359 H       1  UNL1        0.0319
     51 H           4.7206    7.6384    6.8282 H       1  UNL1        0.0867
     52 H           5.5042    6.5376    5.6688 H       1  UNL1        0.0867
     53 H           4.7144    7.0275    3.0308 H       1  UNL1        0.0622
     54 H           4.8317    8.8375    1.3805 H       1  UNL1        0.0618
     55 H           5.0927   11.1857    2.1112 H       1  UNL1        0.0618
     56 H           5.2399   11.7272    4.5293 H       1  UNL1        0.0618
     57 H           5.0727    9.9557    6.2162 H       1  UNL1        0.0622
     58 H           3.3401    6.3487    4.6339 H       1  UNL1        0.2037
@<TRIPOS>UNITY_ATOM_ATTR
20 1
charge 1
@<TRIPOS>BOND
     1     1     2    1
     2     1    30    1
     3     1    31    1
     4     1    32    1
     5     2     3    1
     6     3     8   ar
     7     3     4   ar
     8     4     5   ar
     9     4    33    1
    10     5    15    1
    11     5     6   ar
    12     6     7   ar
    13     6    11    1
    14     7     8   ar
    15     7    34    1
    16     8     9    1
    17     9    10    1
    18    10    35    1
    19    10    36    1
    20    10    37    1
    21    11    12    2
    22    11    13    1
    23    13    15    1
    24    15    38    1
    25    15    39    1
    26    16    17    1
    27    16    40    1
    28    16    41    1
    29    17    22    1
    30    17    18    1
    31    17    42    1
    32    18    19    1
    33    18    43    1
    34    18    44    1
    35    19    20    1
    36    19    45    1
    37    19    46    1
    38    20    21    1
    39    20    23    1
    40    20    58    1
    41    21    22    1
    42    21    47    1
    43    21    48    1
    44    22    49    1
    45    22    50    1
    46    23    24    1
    47    23    51    1
    48    23    52    1
    49    24    29   ar
    50    24    25   ar
    51    25    26   ar
    52    25    53    1
    53    26    27   ar
    54    26    54    1
    55    27    28   ar
    56    27    55    1
    57    28    29   ar
    58    28    56    1
    59    29    57    1
    60    13    16    1
    61    13    14    1
