@<TRIPOS>MOLECULE
ZINC03812960
 12 11 0 0 0
SMALL
GASTEIGER

@<TRIPOS>ATOM
      1 C           0.9849   -0.0312   -0.0442 C.3     1  UNL1        0.2315
      2 H           0.4643   -0.4987    0.7969 H       1  UNL1        0.0861
      3 C           0.4580    1.4165   -0.1518 C.3     1  UNL1        0.4297
      4 F           0.0275    1.8549    1.0573 F       1  UNL1       -0.1667
      5 F           1.3910    2.2912   -0.5883 F       1  UNL1       -0.1667
      6 F          -0.5969    1.5048   -0.9950 F       1  UNL1       -0.1667
      7 O           0.7591   -0.7676   -1.2489 O.3     1  UNL1       -0.2938
      8 C           0.8676   -2.1631   -1.0496 C.3     1  UNL1        0.3482
      9 F           0.2144   -2.5118    0.0765 F       1  UNL1       -0.1783
     10 F           0.2224   -2.7644   -2.0775 F       1  UNL1       -0.1783
     11 CL          2.7385   -0.0623    0.3398 Cl      1  UNL1       -0.0813
     12 H           1.9069   -2.5067   -1.0209 H       1  UNL1        0.1361
@<TRIPOS>BOND
     1     1     2    1
     2     1     3    1
     3     1     7    1
     4     1    11    1
     5     3     4    1
     6     3     5    1
     7     3     6    1
     8     7     8    1
     9     8     9    1
    10     8    10    1
    11     8    12    1
