@<TRIPOS>MOLECULE
ZINC03629271
 26 27 0 0 0
SMALL
GASTEIGER

@<TRIPOS>ATOM
      1 C          -3.5832   -2.0599   -1.1789 C.ar    1  UNL1        0.0505
      2 C          -3.9342   -3.3347   -1.2551 C.ar    1  UNL1        0.1790
      3 C          -4.1702   -4.0486    0.0144 C.ar    1  UNL1        0.1586
      4 N          -4.0053   -3.4704    1.1691 N.ar    1  UNL1       -0.1754
      5 C          -3.5736   -2.1627    1.2358 C.ar    1  UNL1        0.3523
      6 O          -3.3048   -1.6637    2.3231 O.2     1  UNL1       -0.2444
      7 N          -3.4534   -1.4243    0.0485 N.ar    1  UNL1       -0.2690
      8 C          -2.9462   -0.0425    0.0774 C.3     1  UNL1        0.1499
      9 H          -1.8498   -0.1110    0.0404 H       1  UNL1        0.0848
     10 C          -3.3866    0.8448    1.2512 C.3     1  UNL1        0.0418
     11 S          -2.9779    2.5083    0.6849 S.3     1  UNL1       -0.1230
     12 C          -3.1669    2.0213   -1.0474 C.3     1  UNL1        0.1297
     13 H          -2.2437    2.2606   -1.5856 H       1  UNL1        0.0736
     14 O          -3.3996    0.6151   -1.1271 O.3     1  UNL1       -0.3397
     15 C          -4.3570    2.7581   -1.6798 C.3     1  UNL1        0.0798
     16 O          -4.1625    4.1693   -1.7090 O.3     1  UNL1       -0.3916
     17 N          -4.5616   -5.3566    0.0087 N.pl3   1  UNL1       -0.3407
     18 F          -4.0843   -4.0092   -2.4105 F       1  UNL1       -0.2004
     19 H          -3.3843   -1.4923   -2.0823 H       1  UNL1        0.0842
     20 H          -4.4666    0.7928    1.4178 H       1  UNL1        0.0421
     21 H          -2.8578    0.6362    2.1841 H       1  UNL1        0.0421
     22 H          -4.5034    2.4146   -2.7100 H       1  UNL1        0.0592
     23 H          -5.2914    2.5369   -1.1496 H       1  UNL1        0.0592
     24 H          -3.9509    4.4383   -0.7947 H       1  UNL1        0.2095
     25 H          -4.8297   -5.8237   -0.8473 H       1  UNL1        0.1438
     26 H          -4.8325   -5.7710    0.8917 H       1  UNL1        0.1438
@<TRIPOS>BOND
     1     1     7   ar
     2     1     2   ar
     3     1    19    1
     4     2     3   ar
     5     2    18    1
     6     3     4   ar
     7     3    17    1
     8     4     5   ar
     9     5     6    2
    10     5     7   ar
    11     8    14    1
    12     8    10    1
    13    10    11    1
    14    10    20    1
    15    10    21    1
    16    11    12    1
    17    12    13    1
    18    12    14    1
    19    12    15    1
    20    15    16    1
    21    15    22    1
    22    15    23    1
    23    16    24    1
    24    17    25    1
    25    17    26    1
    26     8     9    1
    27     8     7    1
