@<TRIPOS>MOLECULE
ZINC00057147
 32 33 0 0 0
SMALL
GASTEIGER

@<TRIPOS>ATOM
      1 C           4.6182    1.4989   -2.0653 C.3     1  UNL1        0.0181
      2 N           4.0980    1.8333   -3.3797 N.ar    1  UNL1       -0.2796
      3 C           2.9891    1.1929   -3.8739 C.ar    1  UNL1        0.1678
      4 C           2.4487    1.5360   -5.0800 C.ar    1  UNL1        0.1515
      5 C           2.9848    2.5535   -5.9125 C.ar    1  UNL1        0.2822
      6 O           2.5306    2.8182   -7.0243 O.2     1  UNL1       -0.2652
      7 N           4.0528    3.2317   -5.3221 N.ar    1  UNL1       -0.2622
      8 C           4.6258    2.9282   -4.0718 C.ar    1  UNL1        0.3331
      9 O           5.5435    3.6060   -3.6012 O.2     1  UNL1       -0.2462
     10 C           4.5355    4.3912   -6.0440 C.3     1  UNL1        0.0196
     11 N           1.3224    0.7757   -5.1932 N.ar    1  UNL1       -0.3220
     12 C           1.2681   -0.0282   -4.0847 C.ar    1  UNL1        0.0990
     13 N           2.2803    0.2035   -3.2682 N.ar    1  UNL1       -0.2177
     14 C           0.3242    0.8503   -6.2440 C.3     1  UNL1        0.0530
     15 C          -0.7480    1.9070   -5.9549 C.3     1  UNL1        0.0961
     16 H          -1.2451    1.6899   -5.0022 H       1  UNL1        0.0634
     17 C          -1.7905    1.9609   -7.0742 C.3     1  UNL1        0.0718
     18 O          -2.8431    2.8489   -6.7017 O.3     1  UNL1       -0.3924
     19 O          -0.2003    3.2291   -5.8197 O.3     1  UNL1       -0.3878
     20 H           5.6682    1.7917   -1.9783 H       1  UNL1        0.0458
     21 H           4.5423    0.4232   -1.8847 H       1  UNL1        0.0458
     22 H           4.0385    2.0455   -1.3132 H       1  UNL1        0.0458
     23 H           4.8156    4.0970   -7.0607 H       1  UNL1        0.0458
     24 H           3.7154    5.1148   -6.1129 H       1  UNL1        0.0458
     25 H           5.3889    4.8704   -5.5603 H       1  UNL1        0.0458
     26 H           0.4727   -0.7439   -3.9112 H       1  UNL1        0.1029
     27 H           0.8448    1.0525   -7.1850 H       1  UNL1        0.0518
     28 H          -0.1307   -0.1430   -6.3320 H       1  UNL1        0.0518
     29 H          -1.3493    2.3471   -8.0000 H       1  UNL1        0.0583
     30 H          -2.2258    0.9779   -7.2698 H       1  UNL1        0.0583
     31 H          -2.4352    3.5569   -6.1641 H       1  UNL1        0.2095
     32 H           0.2808    3.4521   -6.6418 H       1  UNL1        0.2100
@<TRIPOS>BOND
     1     1     2    1
     2     1    20    1
     3     1    21    1
     4     1    22    1
     5     2     8   ar
     6     2     3   ar
     7     3    13   ar
     8     3     4   ar
     9     4     5   ar
    10     4    11   ar
    11     5     6    2
    12     5     7   ar
    13     7     8   ar
    14     7    10    1
    15     8     9    2
    16    10    23    1
    17    10    24    1
    18    10    25    1
    19    11    12   ar
    20    11    14    1
    21    12    13   ar
    22    12    26    1
    23    14    27    1
    24    14    28    1
    25    15    17    1
    26    15    19    1
    27    17    18    1
    28    17    29    1
    29    17    30    1
    30    18    31    1
    31    19    32    1
    32    15    16    1
    33    15    14    1
