@<TRIPOS>MOLECULE
ZINC01532729
 25 25 0 0 0
SMALL
GASTEIGER

@<TRIPOS>ATOM
      1 C           2.1901    1.4960    1.3198 C.3     1  UNL1       -0.0305
      2 C           2.2614    2.9908    1.6066 C.3     1  UNL1        0.0050
      3 S           0.5453    3.5498    1.7952 S.3     1  UNL1       -0.0928
      4 S          -0.3187    2.1132    0.6086 S.3     1  UNL1       -0.0897
      5 C           1.2117    1.2082    0.1726 C.3     1  UNL1        0.0162
      6 H           0.9721    0.1392    0.1522 H       1  UNL1        0.0421
      7 C           1.7037    1.6376   -1.2191 C.3     1  UNL1       -0.0403
      8 C           2.9271    0.8285   -1.6722 C.3     1  UNL1       -0.0515
      9 C           3.4339    1.1968   -3.0707 C.3     1  UNL1       -0.0428
     10 C           3.8790    2.6475   -3.2419 C.3     1  UNL1        0.0492
     11 C           5.0214    2.9956   -2.2855 C.2     1  UNL1        0.3560
     12 O           4.6626    3.4832   -1.1779 O.co2   1  UNL1       -0.2464
     13 O           6.1799    2.7455   -2.7228 O.co2   1  UNL1       -0.2464
     14 H           1.8633    0.9599    2.2231 H       1  UNL1        0.0284
     15 H           3.1904    1.1092    1.1041 H       1  UNL1        0.0284
     16 H           2.8228    3.1880    2.5245 H       1  UNL1        0.0385
     17 H           2.7360    3.5434    0.7921 H       1  UNL1        0.0385
     18 H           0.9019    1.4836   -1.9532 H       1  UNL1        0.0276
     19 H           1.9343    2.7077   -1.2279 H       1  UNL1        0.0276
     20 H           3.7490    0.9400   -0.9594 H       1  UNL1        0.0266
     21 H           2.6658   -0.2372   -1.6718 H       1  UNL1        0.0266
     22 H           4.2761    0.5352   -3.3099 H       1  UNL1        0.0270
     23 H           2.6492    0.9783   -3.8054 H       1  UNL1        0.0270
     24 H           4.2233    2.7962   -4.2727 H       1  UNL1        0.0379
     25 H           3.0412    3.3385   -3.0977 H       1  UNL1        0.0379
@<TRIPOS>BOND
     1     1     5    1
     2     1     2    1
     3     1    14    1
     4     1    15    1
     5     2     3    1
     6     2    16    1
     7     2    17    1
     8     3     4    1
     9     4     5    1
    10     7     8    1
    11     7    18    1
    12     7    19    1
    13     8     9    1
    14     8    20    1
    15     8    21    1
    16     9    10    1
    17     9    22    1
    18     9    23    1
    19    10    11    1
    20    10    24    1
    21    10    25    1
    22    11    12   ar
    23    11    13   ar
    24     5     7    1
    25     5     6    1
