@<TRIPOS>MOLECULE
ZINC00000609
 29 30 0 0 0
SMALL
GASTEIGER

@<TRIPOS>ATOM
      1 C           1.1270    0.0113   -0.0182 C.3     1  UNL1       -0.0189
      2 C           0.5726    0.1936   -1.4251 C.3     1  UNL1        0.0056
      3 H          -0.5205    0.2658   -1.3927 H       1  UNL1        0.0877
      4 C           1.0331   -0.9062   -2.4299 C.3     1  UNL1        0.1259
      5 H           2.1305   -0.9450   -2.4549 H       1  UNL1        0.0703
      6 O           0.5747   -0.5884   -3.7585 O.3     1  UNL1       -0.3611
      7 C           1.0828    0.6614   -4.2327 C.3     1  UNL1        0.0885
      8 C           0.5992    1.8095   -3.3466 C.3     1  UNL1       -0.0093
      9 N           1.0375    1.5583   -1.9266 N.4     1  UNL1        0.2327
     10 C           0.4864   -2.2733   -2.0873 C.ar    1  UNL1       -0.0135
     11 C           1.3604   -3.3316   -1.7944 C.ar    1  UNL1       -0.0559
     12 C           0.8621   -4.5954   -1.4698 C.ar    1  UNL1       -0.0614
     13 C          -0.5120   -4.8171   -1.4334 C.ar    1  UNL1       -0.0617
     14 C          -1.3915   -3.7796   -1.7315 C.ar    1  UNL1       -0.0614
     15 C          -0.8970   -2.5174   -2.0628 C.ar    1  UNL1       -0.0559
     16 H           0.7654   -0.9190    0.4309 H       1  UNL1        0.0285
     17 H           0.8112    0.8333    0.6341 H       1  UNL1        0.0285
     18 H           2.2222   -0.0153   -0.0195 H       1  UNL1        0.0285
     19 H           2.1773    0.6192   -4.2724 H       1  UNL1        0.0614
     20 H           0.7160    0.8031   -5.2539 H       1  UNL1        0.0614
     21 H           1.0215    2.7710   -3.6496 H       1  UNL1        0.0837
     22 H          -0.4933    1.8671   -3.3243 H       1  UNL1        0.0837
     23 H           2.0620    1.6262   -1.8634 H       1  UNL1        0.2018
     24 H           2.4395   -3.1957   -1.8277 H       1  UNL1        0.0621
     25 H           1.5460   -5.4142   -1.2560 H       1  UNL1        0.0618
     26 H          -0.8981   -5.8042   -1.1886 H       1  UNL1        0.0618
     27 H          -2.4637   -3.9612   -1.7205 H       1  UNL1        0.0618
     28 H          -1.6082   -1.7367   -2.3236 H       1  UNL1        0.0621
     29 H           0.6562    2.2948   -1.3188 H       1  UNL1        0.2018
@<TRIPOS>UNITY_ATOM_ATTR
9 1
charge 1
@<TRIPOS>BOND
     1     1     2    1
     2     1    16    1
     3     1    17    1
     4     1    18    1
     5     2     3    1
     6     2     9    1
     7     2     4    1
     8     4     6    1
     9     6     7    1
    10     7     8    1
    11     7    19    1
    12     7    20    1
    13     8     9    1
    14     8    21    1
    15     8    22    1
    16     9    23    1
    17     9    29    1
    18    10    15   ar
    19    10    11   ar
    20    11    12   ar
    21    11    24    1
    22    12    13   ar
    23    12    25    1
    24    13    14   ar
    25    13    26    1
    26    14    15   ar
    27    14    27    1
    28    15    28    1
    29     4    10    1
    30     4     5    1
