@<TRIPOS>MOLECULE
ZINC00001385
 25 25 0 0 0
SMALL
GASTEIGER

@<TRIPOS>ATOM
      1 C           0.9123    0.0021   -0.0480 C.1     1  UNL1       -0.1153
      2 C          -0.3916    0.0021   -0.0480 C.1     1  UNL1       -0.0581
      3 C          -1.9116    0.0021   -0.0480 C.3     1  UNL1        0.1745
      4 C          -2.4129    1.4069   -0.4456 C.3     1  UNL1       -0.0013
      5 C          -1.9725    1.7725   -1.8590 C.3     1  UNL1       -0.0485
      6 C          -2.4855    0.7391   -2.8537 C.3     1  UNL1       -0.0527
      7 C          -2.0020   -0.6671   -2.4987 C.3     1  UNL1       -0.0485
      8 C          -2.4012   -1.0418   -1.0673 C.3     1  UNL1       -0.0013
      9 O          -2.4307   -0.3734    1.2734 O.3     1  UNL1       -0.4310
     10 C          -2.1204    0.3979    2.3451 C.2     1  UNL1        0.3991
     11 O          -1.4116    1.4008    2.3510 O.2     1  UNL1       -0.2267
     12 N          -2.6999   -0.0293    3.4965 N.am    1  UNL1       -0.2950
     13 H           1.9776    0.0057   -0.0427 H       1  UNL1        0.1229
     14 H          -3.5071    1.4465   -0.3662 H       1  UNL1        0.0314
     15 H          -2.0415    2.1775    0.2383 H       1  UNL1        0.0314
     16 H          -0.8769    1.8208   -1.9107 H       1  UNL1        0.0267
     17 H          -2.3373    2.7722   -2.1140 H       1  UNL1        0.0267
     18 H          -2.1539    1.0062   -3.8612 H       1  UNL1        0.0265
     19 H          -3.5820    0.7542   -2.8521 H       1  UNL1        0.0265
     20 H          -0.9106   -0.7139   -2.6068 H       1  UNL1        0.0267
     21 H          -2.4137   -1.3953   -3.2048 H       1  UNL1        0.0267
     22 H          -2.0088   -2.0361   -0.8160 H       1  UNL1        0.0314
     23 H          -3.4939   -1.1317   -1.0076 H       1  UNL1        0.0314
     24 H          -3.2779   -0.8574    3.5408 H       1  UNL1        0.1482
     25 H          -2.5069    0.4965    4.3414 H       1  UNL1        0.1482
@<TRIPOS>BOND
     1     1     2    3
     2     1    13    1
     3     2     3    1
     4     3     8    1
     5     3     4    1
     6     3     9    1
     7     4     5    1
     8     4    14    1
     9     4    15    1
    10     5     6    1
    11     5    16    1
    12     5    17    1
    13     6     7    1
    14     6    18    1
    15     6    19    1
    16     7     8    1
    17     7    20    1
    18     7    21    1
    19     8    22    1
    20     8    23    1
    21     9    10    1
    22    10    11    2
    23    10    12   am
    24    12    24    1
    25    12    25    1
