@<TRIPOS>MOLECULE
ZINC01530659
 29 29 0 0 0
SMALL
GASTEIGER

@<TRIPOS>ATOM
      1 C           0.7825    1.4959    0.2471 C.3     1  UNL1       -0.0156
      2 C          -0.6770    1.3560    0.7223 C.3     1  UNL1        0.0105
      3 N          -1.2577    0.0142    0.4696 N.3     1  UNL1       -0.2178
      4 P          -0.5411   -0.6875   -0.8318 P.3     1  UNL1        0.3458
      5 O          -0.6289    0.1221   -2.0837 O.2     1  UNL1       -0.2542
      6 O           0.9789   -0.8604   -0.3328 O.3     1  UNL1       -0.3053
      7 C           1.5636    0.2009    0.4036 C.3     1  UNL1        0.0584
      8 N          -1.0175   -2.2474   -1.0117 N.3     1  UNL1       -0.2314
      9 C          -0.9637   -2.7226   -2.4048 C.3     1  UNL1        0.0188
     10 C           0.4338   -2.6645   -3.0419 C.3     1  UNL1        0.0356
     11 CL          1.5657   -3.7512   -2.1985 Cl      1  UNL1       -0.1241
     12 C          -2.7262    0.1124    0.5620 C.3     1  UNL1        0.0218
     13 C          -3.4688   -1.2246    0.5021 C.3     1  UNL1        0.0358
     14 CL         -5.2129   -0.9903    0.8045 Cl      1  UNL1       -0.1241
     15 H           1.2760    2.3118    0.7798 H       1  UNL1        0.0300
     16 H           0.7845    1.7739   -0.8156 H       1  UNL1        0.0300
     17 H          -0.7288    1.5717    1.7961 H       1  UNL1        0.0432
     18 H          -1.2567    2.1312    0.2020 H       1  UNL1        0.0432
     19 H           2.5867    0.3291    0.0347 H       1  UNL1        0.0565
     20 H           1.6230   -0.0922    1.4590 H       1  UNL1        0.0565
     21 H          -0.4080   -2.8454   -0.4593 H       1  UNL1        0.1326
     22 H          -1.3482   -3.7487   -2.4436 H       1  UNL1        0.0441
     23 H          -1.6549   -2.1186   -3.0040 H       1  UNL1        0.0441
     24 H           0.3848   -2.9787   -4.0916 H       1  UNL1        0.0442
     25 H           0.8642   -1.6617   -3.0243 H       1  UNL1        0.0442
     26 H          -2.9795    0.5954    1.5174 H       1  UNL1        0.0443
     27 H          -3.1045    0.7645   -0.2372 H       1  UNL1        0.0443
     28 H          -3.3979   -1.6780   -0.4863 H       1  UNL1        0.0442
     29 H          -3.0951   -1.9253    1.2537 H       1  UNL1        0.0442
@<TRIPOS>BOND
     1     1     7    1
     2     1     2    1
     3     1    15    1
     4     1    16    1
     5     2     3    1
     6     2    17    1
     7     2    18    1
     8     3     4    1
     9     3    12    1
    10     4     5    2
    11     4     6    1
    12     4     8    1
    13     6     7    1
    14     7    19    1
    15     7    20    1
    16     8     9    1
    17     8    21    1
    18     9    10    1
    19     9    22    1
    20     9    23    1
    21    10    11    1
    22    10    24    1
    23    10    25    1
    24    12    13    1
    25    12    26    1
    26    12    27    1
    27    13    14    1
    28    13    28    1
    29    13    29    1
