@<TRIPOS>MOLECULE
ZINC01481877
 46 49 0 0 0
SMALL
GASTEIGER

@<TRIPOS>ATOM
      1 C           1.7506    4.3560    0.5164 C.3     1  UNL1       -0.0431
      2 N           1.6071    3.4028   -0.6352 N.4     1  UNL1        0.2333
      3 C           0.2404    3.4160   -1.2670 C.3     1  UNL1       -0.0321
      4 C          -0.7236    2.5198   -0.5044 C.3     1  UNL1       -0.0121
      5 C          -0.1776    1.1044   -0.3539 C.3     1  UNL1       -0.0406
      6 C           1.1990    1.0566    0.3217 C.3     1  UNL1        0.0003
      7 H           1.5975    0.0477    0.1571 H       1  UNL1        0.0353
      8 C           2.1602    2.0112   -0.4172 C.3     1  UNL1       -0.0292
      9 C           1.2117    1.2988    1.8573 C.3     1  UNL1       -0.0344
     10 C           0.5990    0.1944    2.8046 C.3     1  UNL1        0.0118
     11 C          -0.9276    0.2517    2.8154 C.ar    1  UNL1       -0.0262
     12 C          -1.5639    1.4980    3.0235 C.ar    1  UNL1       -0.0569
     13 C          -2.9500    1.6465    2.9224 C.ar    1  UNL1       -0.0614
     14 C          -3.7416    0.5377    2.6798 C.ar    1  UNL1       -0.0607
     15 C          -3.1447   -0.7150    2.5723 C.ar    1  UNL1       -0.0477
     16 C          -1.7475   -0.8672    2.6375 C.ar    1  UNL1        0.0165
     17 S          -1.1623   -2.5233    2.4772 S.3     1  UNL1       -0.0889
     18 C           0.5925   -2.3525    2.3807 C.ar    1  UNL1        0.0165
     19 C           1.2849   -1.1550    2.5870 C.ar    1  UNL1       -0.0262
     20 C           2.6983   -1.2174    2.6065 C.ar    1  UNL1       -0.0569
     21 C           3.3881   -2.3992    2.3205 C.ar    1  UNL1       -0.0614
     22 C           2.6840   -3.5551    2.0427 C.ar    1  UNL1       -0.0607
     23 C           1.2944   -3.5393    2.0991 C.ar    1  UNL1       -0.0477
     24 H           1.0431    4.0989    1.3034 H       1  UNL1        0.0777
     25 H           2.7826    4.3105    0.8748 H       1  UNL1        0.0777
     26 H           1.5338    5.3632    0.1462 H       1  UNL1        0.0777
     27 H          -0.1111    4.4534   -1.2977 H       1  UNL1        0.0814
     28 H           0.3712    3.0697   -2.2991 H       1  UNL1        0.0814
     29 H          -1.6742    2.4787   -1.0539 H       1  UNL1        0.0317
     30 H          -0.9437    2.9511    0.4728 H       1  UNL1        0.0317
     31 H          -0.0824    0.6654   -1.3559 H       1  UNL1        0.0272
     32 H          -0.9034    0.4752    0.1666 H       1  UNL1        0.0272
     33 H           2.3580    1.6201   -1.4236 H       1  UNL1        0.0817
     34 H           3.1267    2.1111    0.0889 H       1  UNL1        0.0817
     35 H           2.2580    1.4462    2.1548 H       1  UNL1        0.0279
     36 H           0.7404    2.2551    2.0751 H       1  UNL1        0.0279
     37 H           0.8810    0.4807    3.8313 H       1  UNL1        0.0398
     38 H          -0.9866    2.3876    3.2616 H       1  UNL1        0.0621
     39 H          -3.4094    2.6250    3.0430 H       1  UNL1        0.0618
     40 H          -4.8215    0.6337    2.5993 H       1  UNL1        0.0618
     41 H          -3.7854   -1.5848    2.4331 H       1  UNL1        0.0629
     42 H           3.2914   -0.3407    2.8543 H       1  UNL1        0.0621
     43 H           4.4771   -2.4133    2.3192 H       1  UNL1        0.0618
     44 H           3.2072   -4.4824    1.8073 H       1  UNL1        0.0618
     45 H           0.7556   -4.4691    1.9252 H       1  UNL1        0.0629
     46 H           2.2240    3.8077   -1.3521 H       1  UNL1        0.2031
@<TRIPOS>UNITY_ATOM_ATTR
2 1
charge 1
@<TRIPOS>BOND
     1     1    24    1
     2     1    25    1
     3     1    26    1
     4     2     8    1
     5     2     3    1
     6     3     4    1
     7     3    27    1
     8     3    28    1
     9     4     5    1
    10     4    29    1
    11     4    30    1
    12     5     6    1
    13     5    31    1
    14     5    32    1
    15     6     7    1
    16     6     8    1
    17     6     9    1
    18     8    33    1
    19     8    34    1
    20     9    10    1
    21     9    35    1
    22     9    36    1
    23    10    19    1
    24    10    11    1
    25    10    37    1
    26    11    16   ar
    27    11    12   ar
    28    12    13   ar
    29    12    38    1
    30    13    14   ar
    31    13    39    1
    32    14    15   ar
    33    14    40    1
    34    15    16   ar
    35    15    41    1
    36    16    17    1
    37    17    18    1
    38    18    23   ar
    39    18    19   ar
    40    19    20   ar
    41    20    21   ar
    42    20    42    1
    43    21    22   ar
    44    21    43    1
    45    22    23   ar
    46    22    44    1
    47    23    45    1
    48     2    46    1
    49     2     1    1
