@<TRIPOS>MOLECULE
ZINC00020248
 46 48 0 0 0
SMALL
GASTEIGER

@<TRIPOS>ATOM
      1 C           2.1714   -1.4298    0.8001 C.3     1  UNL1       -0.0433
      2 N           1.7112   -0.3495    1.7376 N.4     1  UNL1        0.2309
      3 C           2.8026    0.6783    1.9270 C.3     1  UNL1       -0.0433
      4 C           0.4064    0.2986    1.3194 C.3     1  UNL1       -0.0309
      5 C          -0.7793   -0.6699    1.2810 C.3     1  UNL1        0.0036
      6 C          -1.1082   -1.3789    2.6068 C.3     1  UNL1        0.0221
      7 N          -1.3310   -0.4040    3.6859 N.pl3   1  UNL1       -0.2994
      8 C          -0.8014   -0.7531    4.9481 C.ar    1  UNL1        0.0372
      9 C          -1.0215   -2.0093    5.5359 C.ar    1  UNL1       -0.0401
     10 C          -0.5052   -2.3010    6.8012 C.ar    1  UNL1       -0.0600
     11 C           0.2494   -1.3526    7.4847 C.ar    1  UNL1       -0.0614
     12 C           0.4720   -0.1009    6.9180 C.ar    1  UNL1       -0.0568
     13 C          -0.0640    0.2095    5.6608 C.ar    1  UNL1       -0.0257
     14 C           0.1196    1.5764    5.0606 C.3     1  UNL1       -0.0219
     15 C          -1.1928    2.3533    4.9541 C.3     1  UNL1       -0.0219
     16 C          -2.3469    1.7992    4.1352 C.ar    1  UNL1       -0.0256
     17 C          -2.4135    0.5008    3.5774 C.ar    1  UNL1        0.0385
     18 C          -3.6065    0.1253    2.9237 C.ar    1  UNL1       -0.0217
     19 C          -4.6739    1.0111    2.7736 C.ar    1  UNL1        0.0428
     20 C          -4.5871    2.2983    3.2770 C.ar    1  UNL1       -0.0430
     21 C          -3.4383    2.6821    3.9636 C.ar    1  UNL1       -0.0554
     22 CL         -6.0938    0.5063    1.9484 Cl      1  UNL1       -0.0835
     23 H           2.2628   -1.0037   -0.2032 H       1  UNL1        0.0777
     24 H           1.4409   -2.2401    0.8207 H       1  UNL1        0.0777
     25 H           3.1333   -1.8058    1.1544 H       1  UNL1        0.0777
     26 H           2.9815    1.1784    0.9701 H       1  UNL1        0.0777
     27 H           2.4763    1.3935    2.6859 H       1  UNL1        0.0777
     28 H           3.7009    0.1610    2.2721 H       1  UNL1        0.0777
     29 H           0.2131    1.1257    2.0079 H       1  UNL1        0.0815
     30 H           0.5724    0.7335    0.3268 H       1  UNL1        0.0815
     31 H          -1.6517   -0.0969    0.9432 H       1  UNL1        0.0332
     32 H          -0.6175   -1.4272    0.5072 H       1  UNL1        0.0332
     33 H          -1.9630   -2.0526    2.4793 H       1  UNL1        0.0470
     34 H          -0.2582   -2.0309    2.8480 H       1  UNL1        0.0470
     35 H          -1.6471   -2.7501    5.0446 H       1  UNL1        0.0636
     36 H          -0.7143   -3.2630    7.2674 H       1  UNL1        0.0618
     37 H           0.6435   -1.5811    8.4741 H       1  UNL1        0.0618
     38 H           1.0430    0.6391    7.4739 H       1  UNL1        0.0621
     39 H           0.8278    2.1542    5.6647 H       1  UNL1        0.0317
     40 H           0.5935    1.4741    4.0816 H       1  UNL1        0.0317
     41 H          -0.9370    3.3353    4.5322 H       1  UNL1        0.0317
     42 H          -1.5701    2.5291    5.9703 H       1  UNL1        0.0317
     43 H          -3.7438   -0.8846    2.5493 H       1  UNL1        0.0651
     44 H          -5.4117    2.9980    3.1602 H       1  UNL1        0.0632
     45 H          -3.3975    3.6862    4.3833 H       1  UNL1        0.0621
     46 H           1.5643   -0.7634    2.6704 H       1  UNL1        0.2028
@<TRIPOS>UNITY_ATOM_ATTR
2 1
charge 1
@<TRIPOS>BOND
     1     1     2    1
     2     1    23    1
     3     1    24    1
     4     1    25    1
     5     2     3    1
     6     2     4    1
     7     2    46    1
     8     3    26    1
     9     3    27    1
    10     3    28    1
    11     4     5    1
    12     4    29    1
    13     4    30    1
    14     5     6    1
    15     5    31    1
    16     5    32    1
    17     6     7    1
    18     6    33    1
    19     6    34    1
    20     7    17    1
    21     7     8    1
    22     8    13   ar
    23     8     9   ar
    24     9    10   ar
    25     9    35    1
    26    10    11   ar
    27    10    36    1
    28    11    12   ar
    29    11    37    1
    30    12    13   ar
    31    12    38    1
    32    13    14    1
    33    14    15    1
    34    14    39    1
    35    14    40    1
    36    15    16    1
    37    15    41    1
    38    15    42    1
    39    16    21   ar
    40    16    17   ar
    41    17    18   ar
    42    18    19   ar
    43    18    43    1
    44    19    20   ar
    45    19    22    1
    46    20    21   ar
    47    20    44    1
    48    21    45    1
