@<TRIPOS>MOLECULE
ZINC00001266
 29 30 0 0 0
SMALL
GASTEIGER

@<TRIPOS>ATOM
      1 C           1.0006   -0.2779    0.2041 C.3     1  UNL1       -0.0164
      2 C           0.2435   -0.2557    1.5300 C.3     1  UNL1        0.1946
      3 H           0.5272    0.6764    2.0078 H       1  UNL1        0.0857
      4 C          -1.2245   -0.2601    1.2810 C.2     1  UNL1        0.2796
      5 C          -3.3682    0.5141    1.0600 C.3     1  UNL1        0.1198
      6 C          -3.3311   -0.9987    0.7731 C.3     1  UNL1        0.1150
      7 N          -1.9241   -1.3515    1.0195 N.pl3   1  UNL1       -0.2339
      8 O           0.6626   -1.4033    2.2785 O.3     1  UNL1       -0.4742
      9 C           0.3108   -1.5317    3.6007 C.ar    1  UNL1        0.1582
     10 C          -0.0698   -2.8298    4.0008 C.ar    1  UNL1        0.0840
     11 C          -0.4098   -3.1168    5.3268 C.ar    1  UNL1       -0.0397
     12 C          -0.3826   -2.1086    6.2829 C.ar    1  UNL1       -0.0588
     13 C           0.0212   -0.8285    5.9156 C.ar    1  UNL1       -0.0397
     14 C           0.3974   -0.5423    4.5937 C.ar    1  UNL1        0.0840
     15 CL          1.0474    1.0391    4.3519 Cl      1  UNL1       -0.0797
     16 CL         -0.1579   -4.1237    2.8532 Cl      1  UNL1       -0.0797
     17 H           0.7887    0.6235   -0.3803 H       1  UNL1        0.0271
     18 H           0.7357   -1.1506   -0.3980 H       1  UNL1        0.0271
     19 H           2.0820   -0.3261    0.3873 H       1  UNL1        0.0271
     20 H          -3.7488    1.0906    0.2136 H       1  UNL1        0.0782
     21 H          -3.9414    0.7436    1.9625 H       1  UNL1        0.0782
     22 H          -3.9829   -1.5621    1.4471 H       1  UNL1        0.0764
     23 H          -3.5828   -1.2179   -0.2670 H       1  UNL1        0.0764
     24 H          -1.4696   -2.2612    1.0007 H       1  UNL1        0.2911
     25 H          -0.6849   -4.1275    5.6250 H       1  UNL1        0.0633
     26 H          -0.6434   -2.3227    7.3176 H       1  UNL1        0.0618
     27 H           0.0795   -0.0560    6.6821 H       1  UNL1        0.0633
     28 N          -1.9516    0.8404    1.2993 N.2     1  UNL1       -0.2726
     29 H          -1.5416    1.7496    1.4831 H       1  UNL1        0.3037
@<TRIPOS>BOND
     1     1     2    1
     2     1    17    1
     3     1    18    1
     4     1    19    1
     5     2     3    1
     6     2     4    1
     7     2     8    1
     8     4     7    1
     9     4    28    2
    10     5     6    1
    11     5    20    1
    12     5    21    1
    13     5    28    1
    14     6     7    1
    15     6    22    1
    16     6    23    1
    17     7    24    1
    18     8     9    1
    19     9    14   ar
    20     9    10   ar
    21    10    11   ar
    22    10    16    1
    23    11    12   ar
    24    11    25    1
    25    12    13   ar
    26    12    26    1
    27    13    14   ar
    28    13    27    1
    29    14    15    1
    30    28    29    1
