@<TRIPOS>MOLECULE
ZINC00000903
 35 38 0 0 0
SMALL
GASTEIGER

@<TRIPOS>ATOM
      1 C           1.0814   -0.1672    0.1663 C.3     1  UNL1       -0.0041
      2 C           0.3430   -1.4135   -0.1597 C.ar    1  UNL1        0.1349
      3 N           0.2063   -2.4088    0.6954 N.ar    1  UNL1       -0.1342
      4 N          -0.3550   -3.4663    0.0400 N.ar    1  UNL1       -0.1321
      5 C          -0.5579   -3.1066   -1.2085 C.ar    1  UNL1        0.1595
      6 N          -0.1753   -1.7940   -1.3893 N.ar    1  UNL1       -0.2811
      7 C          -0.3737   -1.0437   -2.5767 C.ar    1  UNL1        0.0587
      8 C          -0.7149    0.3155   -2.4758 C.ar    1  UNL1       -0.0357
      9 C          -0.9401    1.0796   -3.6255 C.ar    1  UNL1       -0.0414
     10 C          -0.8731    0.4803   -4.8770 C.ar    1  UNL1        0.0417
     11 C          -0.5867   -0.8771   -4.9930 C.ar    1  UNL1       -0.0322
     12 C          -0.3043   -1.6480   -3.8497 C.ar    1  UNL1        0.0258
     13 C           0.1373   -3.0668   -4.0764 C.2     1  UNL1        0.0752
     14 N          -0.2715   -4.0800   -3.3918 N.2     1  UNL1       -0.2749
     15 C          -1.1921   -3.9075   -2.2779 C.3     1  UNL1        0.1004
     16 C           1.1325   -3.3527   -5.1692 C.ar    1  UNL1        0.0006
     17 C           1.1072   -4.6028   -5.8027 C.ar    1  UNL1       -0.0526
     18 C           2.0287   -4.9032   -6.8078 C.ar    1  UNL1       -0.0611
     19 C           2.9812   -3.9584   -7.1853 C.ar    1  UNL1       -0.0617
     20 C           3.0218   -2.7172   -6.5519 C.ar    1  UNL1       -0.0611
     21 C           2.1094   -2.4175   -5.5377 C.ar    1  UNL1       -0.0526
     22 CL         -1.1283    1.4239   -6.2915 Cl      1  UNL1       -0.0835
     23 H           0.6873    0.2630    1.0934 H       1  UNL1        0.0308
     24 H           1.0474    0.6030   -0.6026 H       1  UNL1        0.0308
     25 H           2.1379   -0.4031    0.3303 H       1  UNL1        0.0308
     26 H          -0.8676    0.8007   -1.5148 H       1  UNL1        0.0639
     27 H          -1.1854    2.1355   -3.5332 H       1  UNL1        0.0633
     28 H          -0.5607   -1.3268   -5.9841 H       1  UNL1        0.0639
     29 H          -2.1396   -3.4645   -2.6064 H       1  UNL1        0.0590
     30 H          -1.4391   -4.8997   -1.8834 H       1  UNL1        0.0590
     31 H           0.3738   -5.3520   -5.5113 H       1  UNL1        0.0624
     32 H           2.0072   -5.8778   -7.2892 H       1  UNL1        0.0618
     33 H           3.7014   -4.1947   -7.9648 H       1  UNL1        0.0618
     34 H           3.7729   -1.9859   -6.8401 H       1  UNL1        0.0618
     35 H           2.1879   -1.4555   -5.0399 H       1  UNL1        0.0624
@<TRIPOS>BOND
     1     1     2    1
     2     1    23    1
     3     1    24    1
     4     1    25    1
     5     2     6   ar
     6     2     3   ar
     7     3     4   ar
     8     4     5   ar
     9     5    15    1
    10     5     6   ar
    11     6     7    1
    12     7    12   ar
    13     7     8   ar
    14     8     9   ar
    15     8    26    1
    16     9    10   ar
    17     9    27    1
    18    10    11   ar
    19    10    22    1
    20    11    12   ar
    21    11    28    1
    22    12    13    1
    23    13    14    2
    24    13    16    1
    25    14    15    1
    26    15    29    1
    27    15    30    1
    28    16    21   ar
    29    16    17   ar
    30    17    18   ar
    31    17    31    1
    32    18    19   ar
    33    18    32    1
    34    19    20   ar
    35    19    33    1
    36    20    21   ar
    37    20    34    1
    38    21    35    1
