@<TRIPOS>MOLECULE
ZINC03872994
 65 69 0 0 0
SMALL
GASTEIGER

@<TRIPOS>ATOM
      1 C          13.3509   -4.2628   16.5501 C.3     1  UNL1        0.0124
      2 C          11.8590   -4.4564   16.5572 C.2     1  UNL1        0.2126
      3 O          11.2088   -4.1733   17.5644 O.2     1  UNL1       -0.2759
      4 N          11.2676   -4.9306   15.4015 N.am    1  UNL1       -0.2987
      5 C           9.8068   -4.9721   15.3307 C.3     1  UNL1        0.0304
      6 C           9.3165   -3.9530   14.2928 C.3     1  UNL1        0.0280
      7 N           9.9251   -4.2185   12.9711 N.pl3   1  UNL1       -0.3269
      8 C          11.4009   -4.2964   12.9687 C.3     1  UNL1        0.0280
      9 C          11.9311   -5.2005   14.1142 C.3     1  UNL1        0.0304
     10 C           9.1843   -4.8452   11.9821 C.ar    1  UNL1        0.0300
     11 C           8.1404   -5.7258   12.2823 C.ar    1  UNL1       -0.0372
     12 C           7.2723   -6.2079   11.3027 C.ar    1  UNL1       -0.0182
     13 C           7.4039   -5.7929    9.9803 C.ar    1  UNL1        0.1207
     14 C           8.5082   -5.0177    9.6306 C.ar    1  UNL1       -0.0182
     15 C           9.3902   -4.5532   10.6241 C.ar    1  UNL1       -0.0372
     16 O           6.4852   -6.0716    8.9948 O.3     1  UNL1       -0.4893
     17 C           5.1658   -6.2969    9.5089 C.3     1  UNL1        0.1179
     18 C           4.0969   -6.0733    8.4490 C.3     1  UNL1        0.1195
     19 C           4.1310   -7.0566    7.3104 C.3     1  UNL1        0.0808
     20 O           2.7768   -7.0980    6.8375 O.3     1  UNL1       -0.3408
     21 C           1.9372   -6.7026    7.9597 C.3     1  UNL1        0.2150
     22 O           2.7966   -6.2593    9.0218 O.3     1  UNL1       -0.3344
     23 C           1.0915   -5.4940    7.4379 C.3     1  UNL1        0.0762
     24 N           0.2122   -5.7959    6.2844 N.pl3   1  UNL1       -0.2922
     25 C          -1.1715   -5.6885    6.2589 C.2     1  UNL1        0.0136
     26 C          -1.5639   -6.0098    4.9901 C.2     1  UNL1        0.0167
     27 N          -0.4161   -6.3045    4.2920 N.2     1  UNL1       -0.3542
     28 C           0.6583   -6.1695    5.0746 C.2     1  UNL1        0.0641
     29 C           1.1207   -7.8874    8.4946 C.ar    1  UNL1        0.0311
     30 C           1.2919   -9.1723    7.9302 C.ar    1  UNL1       -0.0507
     31 C           0.6487  -10.3001    8.4604 C.ar    1  UNL1       -0.0429
     32 C          -0.1862  -10.1702    9.5591 C.ar    1  UNL1        0.0424
     33 C          -0.4052   -8.9190   10.1194 C.ar    1  UNL1       -0.0246
     34 C           0.2447   -7.7908    9.5981 C.ar    1  UNL1        0.0506
     35 CL         -0.0793   -6.3041   10.4177 Cl      1  UNL1       -0.0830
     36 CL         -0.9338  -11.5600   10.2401 Cl      1  UNL1       -0.0835
     37 H          13.6862   -4.0235   17.5646 H       1  UNL1        0.0323
     38 H          13.6059   -3.4260   15.8948 H       1  UNL1        0.0323
     39 H          13.8625   -5.1750   16.2357 H       1  UNL1        0.0323
     40 H           9.5260   -5.9929   15.0477 H       1  UNL1        0.0480
     41 H           9.3459   -4.7614   16.3002 H       1  UNL1        0.0480
     42 H           9.6215   -2.9457   14.6045 H       1  UNL1        0.0479
     43 H           8.2214   -3.9361   14.2493 H       1  UNL1        0.0479
     44 H          11.7907   -3.2815   13.1121 H       1  UNL1        0.0479
     45 H          11.7979   -4.6614   12.0141 H       1  UNL1        0.0479
     46 H          13.0149   -5.0907   14.1921 H       1  UNL1        0.0480
     47 H          11.7230   -6.2502   13.8744 H       1  UNL1        0.0480
     48 H           7.9611   -6.0413   13.3068 H       1  UNL1        0.0637
     49 H           6.4834   -6.8795   11.6229 H       1  UNL1        0.0655
     50 H           8.6643   -4.7217    8.5968 H       1  UNL1        0.0655
     51 H          10.1956   -3.8825   10.3305 H       1  UNL1        0.0637
     52 H           5.0921   -7.3226    9.8922 H       1  UNL1        0.0723
     53 H           4.9413   -5.6079   10.3348 H       1  UNL1        0.0723
     54 H           4.1489   -5.0484    8.0624 H       1  UNL1        0.0654
     55 H           4.4116   -8.0666    7.6242 H       1  UNL1        0.0588
     56 H           4.7922   -6.7395    6.4986 H       1  UNL1        0.0588
     57 H           0.4954   -5.0177    8.2187 H       1  UNL1        0.0525
     58 H           1.7780   -4.7108    7.0883 H       1  UNL1        0.0525
     59 H          -1.6975   -5.3824    7.1474 H       1  UNL1        0.0798
     60 H          -2.5103   -6.0610    4.4810 H       1  UNL1        0.0820
     61 H           1.6891   -6.3163    4.7718 H       1  UNL1        0.0982
     62 H           1.9596   -9.3288    7.0840 H       1  UNL1        0.0623
     63 H           0.8312  -11.2811    8.0231 H       1  UNL1        0.0632
     64 H          -1.0643   -8.8268   10.9814 H       1  UNL1        0.0647
     65 H          -0.3755   -6.5758    3.3123 H       1  UNL1        0.1660
@<TRIPOS>BOND
     1     1     2    1
     2     1    37    1
     3     1    38    1
     4     1    39    1
     5     2     3    2
     6     2     4   am
     7     4     9    1
     8     4     5    1
     9     5     6    1
    10     5    40    1
    11     5    41    1
    12     6     7    1
    13     6    42    1
    14     6    43    1
    15     7     8    1
    16     7    10    1
    17     8     9    1
    18     8    44    1
    19     8    45    1
    20     9    46    1
    21     9    47    1
    22    10    15   ar
    23    10    11   ar
    24    11    12   ar
    25    11    48    1
    26    12    13   ar
    27    12    49    1
    28    13    14   ar
    29    13    16    1
    30    14    15   ar
    31    14    50    1
    32    15    51    1
    33    16    17    1
    34    17    52    1
    35    17    53    1
    36    18    22    1
    37    18    19    1
    38    19    20    1
    39    19    55    1
    40    19    56    1
    41    20    21    1
    42    21    22    1
    43    21    23    1
    44    21    29    1
    45    23    24    1
    46    23    57    1
    47    23    58    1
    48    24    28    1
    49    24    25    1
    50    25    26    2
    51    25    59    1
    52    26    27    1
    53    26    60    1
    54    27    28    2
    55    27    65    1
    56    28    61    1
    57    29    34   ar
    58    29    30   ar
    59    30    31   ar
    60    30    62    1
    61    31    32   ar
    62    31    63    1
    63    32    33   ar
    64    32    36    1
    65    33    34   ar
    66    33    64    1
    67    34    35    1
    68    18    54    1
    69    18    17    1
