@<TRIPOS>MOLECULE
ZINC01530757
 38 38 0 0 0
SMALL
GASTEIGER

@<TRIPOS>ATOM
      1 C           0.7206    0.1799   -0.0048 C.3     1  UNL1       -0.0245
      2 C           0.2275   -1.1936   -0.4356 C.3     1  UNL1       -0.0347
      3 N           0.7533   -2.2779    0.4871 N.4     1  UNL1        0.2372
      4 C           0.3531   -2.1401    1.9403 C.3     1  UNL1       -0.0347
      5 C          -1.1541   -2.1543    2.1265 C.3     1  UNL1       -0.0245
      6 C           0.5898   -3.7008   -0.0210 C.3     1  UNL1        0.0032
      7 C           1.2771   -3.9950   -1.3642 C.3     1  UNL1        0.1323
      8 O           2.7156   -3.9926   -1.3803 O.3     1  UNL1       -0.4558
      9 C           3.3484   -2.7995   -1.3148 C.2     1  UNL1        0.3394
     10 O           3.0230   -1.8929   -0.5636 O.2     1  UNL1       -0.2450
     11 C           4.4223   -2.6968   -2.3301 C.ar    1  UNL1        0.0591
     12 C           5.0730   -1.4694   -2.5045 C.ar    1  UNL1       -0.0460
     13 C           6.0887   -1.3488   -3.4581 C.ar    1  UNL1       -0.0403
     14 C           6.4908   -2.4528   -4.2146 C.ar    1  UNL1        0.0246
     15 C           5.7692   -3.6425   -4.1019 C.ar    1  UNL1       -0.0403
     16 C           4.7534   -3.7758   -3.1546 C.ar    1  UNL1       -0.0460
     17 N           7.4418   -2.3099   -5.2273 N.pl3   1  UNL1       -0.3580
     18 H           0.2495    0.5038    0.9269 H       1  UNL1        0.0281
     19 H           0.4760    0.9207   -0.7727 H       1  UNL1        0.0281
     20 H           1.8060    0.2014    0.1396 H       1  UNL1        0.0281
     21 H          -0.8628   -1.2584   -0.4642 H       1  UNL1        0.0812
     22 H           0.6084   -1.3977   -1.4390 H       1  UNL1        0.0812
     23 H           0.8200   -2.9668    2.4871 H       1  UNL1        0.0812
     24 H           0.7924   -1.2117    2.3161 H       1  UNL1        0.0812
     25 H          -1.5991   -3.0883    1.7710 H       1  UNL1        0.0281
     26 H          -1.3972   -2.0548    3.1890 H       1  UNL1        0.0281
     27 H          -1.6390   -1.3225    1.6075 H       1  UNL1        0.0281
     28 H           1.0103   -4.3578    0.7480 H       1  UNL1        0.0848
     29 H          -0.4861   -3.8829   -0.1095 H       1  UNL1        0.0848
     30 H           1.0019   -5.0190   -1.6445 H       1  UNL1        0.0752
     31 H           0.9072   -3.3614   -2.1757 H       1  UNL1        0.0752
     32 H           4.7921   -0.5960   -1.9191 H       1  UNL1        0.0626
     33 H           6.5710   -0.3842   -3.6029 H       1  UNL1        0.0636
     34 H           5.9984   -4.4832   -4.7523 H       1  UNL1        0.0636
     35 H           4.2277   -4.7241   -3.0869 H       1  UNL1        0.0626
     36 H           7.8905   -3.1803   -5.5022 H       1  UNL1        0.1423
     37 H           8.1244   -1.5774   -5.0551 H       1  UNL1        0.1423
     38 H           1.7823   -2.1170    0.4675 H       1  UNL1        0.2034
@<TRIPOS>UNITY_ATOM_ATTR
3 1
charge 1
@<TRIPOS>BOND
     1     1     2    1
     2     1    18    1
     3     1    19    1
     4     1    20    1
     5     2     3    1
     6     2    21    1
     7     2    22    1
     8     3     4    1
     9     3     6    1
    10     3    38    1
    11     4     5    1
    12     4    23    1
    13     4    24    1
    14     5    25    1
    15     5    26    1
    16     5    27    1
    17     6     7    1
    18     6    28    1
    19     6    29    1
    20     7     8    1
    21     7    30    1
    22     7    31    1
    23     8     9    1
    24     9    10    2
    25     9    11    1
    26    11    16   ar
    27    11    12   ar
    28    12    13   ar
    29    12    32    1
    30    13    14   ar
    31    13    33    1
    32    14    15   ar
    33    14    17    1
    34    15    16   ar
    35    15    34    1
    36    16    35    1
    37    17    36    1
    38    17    37    1
