@<TRIPOS>MOLECULE
ZINC01530764
 42 44 0 0 0
SMALL
GASTEIGER

@<TRIPOS>ATOM
      1 C           1.3319   -0.5739   -0.1652 C.3     1  UNL1       -0.0449
      2 N           0.9023   -1.0237    1.1873 N.4     1  UNL1        0.2248
      3 C          -0.5019   -1.5252    1.2298 C.3     1  UNL1       -0.0339
      4 C          -0.8059   -2.1224    2.5932 C.3     1  UNL1       -0.0117
      5 C          -0.7547   -1.1858    3.8111 C.3     1  UNL1       -0.0373
      6 C          -1.6153    0.1216    3.8300 C.3     1  UNL1        0.0105
      7 C          -3.1074   -0.0549    3.5404 C.ar    1  UNL1       -0.0328
      8 C          -3.7482   -1.3032    3.6345 C.ar    1  UNL1       -0.0574
      9 C          -5.0600   -1.4856    3.1908 C.ar    1  UNL1       -0.0614
     10 C          -5.7851   -0.4076    2.7054 C.ar    1  UNL1       -0.0612
     11 C          -5.2103    0.8599    2.7065 C.ar    1  UNL1       -0.0543
     12 C          -3.8863    1.0543    3.1399 C.ar    1  UNL1       -0.0213
     13 C          -3.3960    2.4416    3.1458 C.2     1  UNL1       -0.0537
     14 C          -2.5280    2.9861    4.0142 C.2     1  UNL1       -0.0537
     15 C          -1.8358    2.3192    5.1299 C.ar    1  UNL1       -0.0213
     16 C          -1.3752    0.9834    5.0819 C.ar    1  UNL1       -0.0328
     17 C          -0.6741    0.4929    6.2049 C.ar    1  UNL1       -0.0574
     18 C          -0.4283    1.2916    7.3255 C.ar    1  UNL1       -0.0614
     19 C          -0.8868    2.5983    7.3607 C.ar    1  UNL1       -0.0612
     20 C          -1.5841    3.1094    6.2695 C.ar    1  UNL1       -0.0543
     21 H           1.3371   -1.4419   -0.8293 H       1  UNL1        0.0777
     22 H           2.3375   -0.1595   -0.0676 H       1  UNL1        0.0777
     23 H           0.6307    0.1886   -0.5116 H       1  UNL1        0.0777
     24 H           1.5462   -1.7606    1.5065 H       1  UNL1        0.2011
     25 H          -1.1663   -0.6943    0.9806 H       1  UNL1        0.0814
     26 H          -0.5856   -2.3027    0.4644 H       1  UNL1        0.0814
     27 H          -1.7775   -2.6166    2.5305 H       1  UNL1        0.0317
     28 H          -0.0940   -2.9405    2.7861 H       1  UNL1        0.0317
     29 H          -1.0197   -1.8025    4.6824 H       1  UNL1        0.0276
     30 H           0.2969   -0.8992    3.9593 H       1  UNL1        0.0276
     31 H          -1.2056    0.7026    2.9894 H       1  UNL1        0.0398
     32 H          -3.2428   -2.1681    4.0539 H       1  UNL1        0.0621
     33 H          -5.5179   -2.4711    3.2325 H       1  UNL1        0.0618
     34 H          -6.8078   -0.5435    2.3624 H       1  UNL1        0.0618
     35 H          -5.8196    1.7042    2.3865 H       1  UNL1        0.0624
     36 H          -3.8658    3.1083    2.4230 H       1  UNL1        0.0624
     37 H          -2.3440    4.0554    3.9341 H       1  UNL1        0.0624
     38 H          -0.2923   -0.5222    6.2471 H       1  UNL1        0.0621
     39 H           0.1184    0.8868    8.1741 H       1  UNL1        0.0618
     40 H          -0.7111    3.2174    8.2377 H       1  UNL1        0.0618
     41 H          -1.9499    4.1344    6.3247 H       1  UNL1        0.0624
     42 H           1.0152   -0.2431    1.8462 H       1  UNL1        0.2011
@<TRIPOS>UNITY_ATOM_ATTR
2 1
charge 1
@<TRIPOS>BOND
     1     1     2    1
     2     1    21    1
     3     1    22    1
     4     1    23    1
     5     2     3    1
     6     2    24    1
     7     2    42    1
     8     3     4    1
     9     3    25    1
    10     3    26    1
    11     4     5    1
    12     4    27    1
    13     4    28    1
    14     5    29    1
    15     5    30    1
    16     6    16    1
    17     6     7    1
    18     7    12   ar
    19     7     8   ar
    20     8     9   ar
    21     8    32    1
    22     9    10   ar
    23     9    33    1
    24    10    11   ar
    25    10    34    1
    26    11    12   ar
    27    11    35    1
    28    12    13    1
    29    13    14    2
    30    13    36    1
    31    14    15    1
    32    14    37    1
    33    15    20   ar
    34    15    16   ar
    35    16    17   ar
    36    17    18   ar
    37    17    38    1
    38    18    19   ar
    39    18    39    1
    40    19    20   ar
    41    19    40    1
    42    20    41    1
    43     6    31    1
    44     6     5    1
