@<TRIPOS>MOLECULE
ZINC01612996
 82 88 0 0 0
SMALL
GASTEIGER

@<TRIPOS>ATOM
      1 C           1.4104   -1.4725   -1.2006 C.3     1  UNL1       -0.0612
      2 C           0.4790   -1.3884   -0.0057 C.3     1  UNL1       -0.0295
      3 C           0.9400   -2.0800    1.2599 C.ar    1  UNL1       -0.0314
      4 C           1.5116   -1.4272    2.3582 C.ar    1  UNL1        0.0074
      5 C           1.9768   -0.1091    2.2269 C.ar    1  UNL1       -0.0097
      6 C           2.4201    0.6095    3.3262 C.ar    1  UNL1        0.1339
      7 C           2.5542   -0.0322    4.5482 C.ar    1  UNL1       -0.0171
      8 C           2.1592   -1.3826    4.6698 C.ar    1  UNL1       -0.0322
      9 C           1.6000   -2.1116    3.6124 C.ar    1  UNL1        0.0722
     10 N           1.1496   -3.3927    3.7971 N.ar    1  UNL1       -0.2449
     11 C           0.6738   -4.0146    2.7049 C.ar    1  UNL1        0.0932
     12 C           0.6495   -3.4183    1.4404 C.ar    1  UNL1        0.0035
     13 C           0.2857   -4.4034    0.3949 C.3     1  UNL1        0.0541
     14 N           0.1581   -5.6127    1.1595 N.ar    1  UNL1       -0.3019
     15 C           0.1599   -5.4070    2.5313 C.ar    1  UNL1        0.0713
     16 C          -0.2860   -6.4107    3.3305 C.ar    1  UNL1       -0.0290
     17 C          -0.6823   -7.6975    2.7080 C.ar    1  UNL1        0.0082
     18 C          -0.2689   -7.9312    1.4286 C.ar    1  UNL1        0.0606
     19 C           0.0769   -6.8122    0.5446 C.ar    1  UNL1        0.2589
     20 O           0.2069   -6.9735   -0.6718 O.2     1  UNL1       -0.2672
     21 C          -0.3837   -9.2949    0.8011 C.3     1  UNL1        0.1230
     22 O          -1.7031   -9.8110    0.9745 O.3     1  UNL1       -0.4575
     23 C          -2.3482   -9.2852    2.0424 C.2     1  UNL1        0.3441
     24 O          -3.5583   -9.0453    1.9943 O.2     1  UNL1       -0.2472
     25 C          -1.3938   -8.9294    3.2811 C.3     1  UNL1        0.1877
     26 C          -2.3644   -9.1451    4.4707 C.3     1  UNL1       -0.0121
     27 C          -2.7356  -10.6635    4.5300 C.3     1  UNL1       -0.0618
     28 O          -0.2917   -9.7934    3.5867 O.3     1  UNL1       -0.3732
     29 O           2.7824    1.9654    3.2015 O.3     1  UNL1       -0.4114
     30 C           1.9586    2.7703    2.3995 C.2     1  UNL1        0.4082
     31 O           0.8635    2.4307    1.9597 O.2     1  UNL1       -0.2258
     32 N           2.4974    4.0339    2.1198 N.am    1  UNL1       -0.2667
     33 C           1.6088    4.9662    1.4389 C.3     1  UNL1        0.0229
     34 C           2.3595    6.0400    0.6776 C.3     1  UNL1        0.0063
     35 C           3.4439    6.7341    1.4977 C.3     1  UNL1       -0.0180
     36 C           4.3511    5.7105    2.1887 C.3     1  UNL1        0.0063
     37 C           3.6338    4.5448    2.8700 C.3     1  UNL1        0.0229
     38 C           2.2166    8.9502    1.6726 C.3     1  UNL1       -0.0316
     39 C           1.9173   10.1314    2.5840 C.3     1  UNL1       -0.0123
     40 C           1.1149    9.6976    3.8016 C.3     1  UNL1       -0.0434
     41 C           1.8753    8.6271    4.5657 C.3     1  UNL1       -0.0123
     42 C           2.1885    7.4300    3.6813 C.3     1  UNL1       -0.0316
     43 H           2.3586   -0.9628   -1.0098 H       1  UNL1        0.0233
     44 H           0.9348   -0.9898   -2.0626 H       1  UNL1        0.0233
     45 H           1.6251   -2.5072   -1.4806 H       1  UNL1        0.0233
     46 H           0.2423   -0.3381    0.2007 H       1  UNL1        0.0311
     47 H          -0.4934   -1.8134   -0.2884 H       1  UNL1        0.0311
     48 H           1.9747    0.3731    1.2542 H       1  UNL1        0.0661
     49 H           2.9492    0.4956    5.4119 H       1  UNL1        0.0655
     50 H           2.2726   -1.8762    5.6338 H       1  UNL1        0.0640
     51 H           1.0634   -4.5213   -0.3669 H       1  UNL1        0.0543
     52 H          -0.6798   -4.1771   -0.0689 H       1  UNL1        0.0543
     53 H          -0.3049   -6.2986    4.4107 H       1  UNL1        0.0643
     54 H          -0.1779   -9.2891   -0.2705 H       1  UNL1        0.0750
     55 H           0.3317   -9.9969    1.2454 H       1  UNL1        0.0750
     56 H          -1.9042   -8.8781    5.4267 H       1  UNL1        0.0299
     57 H          -3.2891   -8.5637    4.3736 H       1  UNL1        0.0299
     58 H          -1.8483  -11.2867    4.6947 H       1  UNL1        0.0231
     59 H          -3.4504  -10.8827    5.3251 H       1  UNL1        0.0231
     60 H          -3.1858  -11.0214    3.5942 H       1  UNL1        0.0231
     61 H           0.0545   -9.5011    4.4502 H       1  UNL1        0.2113
     62 H           0.9254    5.3863    2.1796 H       1  UNL1        0.0467
     63 H           0.9727    4.4253    0.7284 H       1  UNL1        0.0467
     64 H           1.6593    6.7431    0.2187 H       1  UNL1        0.0335
     65 H           2.8606    5.5443   -0.1667 H       1  UNL1        0.0335
     66 H           4.0806    7.2856    0.7920 H       1  UNL1        0.0852
     67 H           4.9777    5.2681    1.4002 H       1  UNL1        0.0335
     68 H           5.0460    6.1953    2.8831 H       1  UNL1        0.0335
     69 H           4.3570    3.7375    3.0285 H       1  UNL1        0.0467
     70 H           3.2710    4.8159    3.8644 H       1  UNL1        0.0467
     71 H           1.2872    8.5297    1.2789 H       1  UNL1        0.0814
     72 H           2.8673    9.2577    0.8474 H       1  UNL1        0.0814
     73 H           1.3535   10.8875    2.0264 H       1  UNL1        0.0317
     74 H           2.8538   10.6017    2.9066 H       1  UNL1        0.0317
     75 H           0.9195   10.5552    4.4527 H       1  UNL1        0.0269
     76 H           0.1408    9.3038    3.4841 H       1  UNL1        0.0269
     77 H           2.8057    9.0464    4.9674 H       1  UNL1        0.0317
     78 H           1.2795    8.2933    5.4231 H       1  UNL1        0.0317
     79 H           2.8258    6.7497    4.2430 H       1  UNL1        0.0814
     80 H           1.2649    6.9426    3.3745 H       1  UNL1        0.0814
     81 N           2.9413    7.8472    2.4391 N.4     1  UNL1        0.2375
     82 H           3.8020    8.2951    2.7862 H       1  UNL1        0.2036
@<TRIPOS>UNITY_ATOM_ATTR
81 1
charge 1
@<TRIPOS>BOND
     1     1     2    1
     2     1    43    1
     3     1    44    1
     4     1    45    1
     5     2     3    1
     6     2    46    1
     7     2    47    1
     8     3    12   ar
     9     3     4   ar
    10     4     9   ar
    11     4     5   ar
    12     5     6   ar
    13     5    48    1
    14     6     7   ar
    15     6    29    1
    16     7     8   ar
    17     7    49    1
    18     8     9   ar
    19     8    50    1
    20     9    10   ar
    21    10    11   ar
    22    11    15    1
    23    11    12   ar
    24    12    13    1
    25    13    14    1
    26    13    51    1
    27    13    52    1
    28    14    19   ar
    29    14    15   ar
    30    15    16   ar
    31    16    17   ar
    32    16    53    1
    33    17    25    1
    34    17    18   ar
    35    18    19   ar
    36    18    21    1
    37    19    20    2
    38    21    22    1
    39    21    54    1
    40    21    55    1
    41    22    23    1
    42    23    24    2
    43    23    25    1
    44    25    26    1
    45    25    28    1
    46    26    27    1
    47    26    56    1
    48    26    57    1
    49    27    58    1
    50    27    59    1
    51    27    60    1
    52    28    61    1
    53    29    30    1
    54    30    31    2
    55    30    32   am
    56    32    37    1
    57    32    33    1
    58    33    34    1
    59    33    62    1
    60    33    63    1
    61    34    35    1
    62    34    64    1
    63    34    65    1
    64    35    36    1
    65    35    66    1
    66    35    81    1
    67    36    37    1
    68    36    67    1
    69    36    68    1
    70    37    69    1
    71    37    70    1
    72    38    39    1
    73    38    71    1
    74    38    72    1
    75    38    81    1
    76    39    40    1
    77    39    73    1
    78    39    74    1
    79    40    41    1
    80    40    75    1
    81    40    76    1
    82    41    42    1
    83    41    77    1
    84    41    78    1
    85    42    79    1
    86    42    80    1
    87    42    81    1
    88    81    82    1
