@<TRIPOS>MOLECULE
ZINC00606383
 43 46 0 0 0
SMALL
GASTEIGER

@<TRIPOS>ATOM
      1 C           5.4886    2.2516   -0.9219 C.ar    1  UNL1       -0.0597
      2 C           4.9436    1.0204   -0.5458 C.ar    1  UNL1       -0.0531
      3 C           5.6669    0.1234    0.2869 C.ar    1  UNL1       -0.0041
      4 C           5.2526   -1.0970    0.9541 C.ar    1  UNL1       -0.0071
      5 C           6.3268   -1.7432    1.5301 C.ar    1  UNL1       -0.0178
      6 S           7.7553   -0.8279    1.4652 S.2     1  UNL1       -0.0948
      7 C           6.9825    0.4698    0.6306 C.ar    1  UNL1        0.0379
      8 C           7.5117    1.7346    0.2907 C.ar    1  UNL1        0.0552
      9 C           6.7455    2.6212   -0.4695 C.ar    1  UNL1       -0.0423
     10 CL          9.0697    2.2409    0.8310 Cl      1  UNL1       -0.0824
     11 C           3.8399   -1.5796    1.0690 C.3     1  UNL1        0.0746
     12 O           3.5747   -2.0359    2.4065 O.3     1  UNL1       -0.3657
     13 C           2.2299   -2.4532    2.6509 C.3     1  UNL1        0.1014
     14 H           1.9194   -3.1303    1.8491 H       1  UNL1        0.0663
     15 C           1.2590   -1.2442    2.6133 C.3     1  UNL1        0.0480
     16 N          -0.1361   -1.5616    2.9599 N.pl3   1  UNL1       -0.2949
     17 C          -0.9439   -0.8118    3.7995 C.2     1  UNL1        0.0135
     18 C          -2.1480   -1.4492    3.8640 C.2     1  UNL1        0.0167
     19 N          -2.0436   -2.5490    3.0443 N.2     1  UNL1       -0.3542
     20 C          -0.8362   -2.6033    2.4816 C.2     1  UNL1        0.0640
     21 C           2.2263   -3.2073    3.9838 C.ar    1  UNL1        0.0010
     22 C           2.1138   -2.5145    5.2086 C.ar    1  UNL1       -0.0533
     23 C           2.1370   -3.1905    6.4338 C.ar    1  UNL1       -0.0430
     24 C           2.3078   -4.5686    6.4670 C.ar    1  UNL1        0.0424
     25 C           2.4291   -5.2808    5.2763 C.ar    1  UNL1       -0.0247
     26 C           2.3850   -4.6089    4.0514 C.ar    1  UNL1        0.0480
     27 CL          2.4956   -5.5806    2.6249 Cl      1  UNL1       -0.0831
     28 CL          2.3707   -5.3871    7.9740 Cl      1  UNL1       -0.0835
     29 H           4.9189    2.9325   -1.5510 H       1  UNL1        0.0618
     30 H           3.9494    0.7617   -0.9022 H       1  UNL1        0.0624
     31 H           6.3209   -2.6907    2.0542 H       1  UNL1        0.0697
     32 H           7.1400    3.6043   -0.7183 H       1  UNL1        0.0632
     33 H           3.1750   -0.7399    0.8516 H       1  UNL1        0.0610
     34 H           3.6402   -2.3808    0.3490 H       1  UNL1        0.0610
     35 H           1.6215   -0.4393    3.2643 H       1  UNL1        0.0497
     36 H           1.2238   -0.8130    1.6065 H       1  UNL1        0.0497
     37 H          -0.5544    0.0888    4.2523 H       1  UNL1        0.0798
     38 H          -3.0751   -1.2685    4.3804 H       1  UNL1        0.0820
     39 H          -0.4952   -3.3549    1.7767 H       1  UNL1        0.0982
     40 H           2.0212   -1.4341    5.2413 H       1  UNL1        0.0622
     41 H           2.0392   -2.6317    7.3642 H       1  UNL1        0.0632
     42 H           2.5692   -6.3608    5.3115 H       1  UNL1        0.0647
     43 H          -2.7814   -3.2307    2.8811 H       1  UNL1        0.1660
@<TRIPOS>BOND
     1     1     9   ar
     2     1     2   ar
     3     1    29    1
     4     2     3   ar
     5     2    30    1
     6     3     7   ar
     7     3     4   ar
     8     4     5   ar
     9     4    11    1
    10     5     6   ar
    11     5    31    1
    12     6     7   ar
    13     7     8   ar
    14     8     9   ar
    15     8    10    1
    16     9    32    1
    17    11    12    1
    18    11    33    1
    19    11    34    1
    20    13    15    1
    21    13    21    1
    22    15    16    1
    23    15    35    1
    24    15    36    1
    25    16    20    1
    26    16    17    1
    27    17    18    2
    28    17    37    1
    29    18    19    1
    30    18    38    1
    31    19    20    2
    32    19    43    1
    33    20    39    1
    34    21    26   ar
    35    21    22   ar
    36    22    23   ar
    37    22    40    1
    38    23    24   ar
    39    23    41    1
    40    24    25   ar
    41    24    28    1
    42    25    26   ar
    43    25    42    1
    44    26    27    1
    45    13    14    1
    46    13    12    1
