@<TRIPOS>MOLECULE
ZINC00968262
 44 45 0 0 0
SMALL
GASTEIGER

@<TRIPOS>ATOM
      1 C           2.0423    1.3070    0.6506 C.3     1  UNL1       -0.0623
      2 C           1.4860    0.5330   -0.5445 C.3     1  UNL1       -0.0401
      3 H           2.0864    0.8662   -1.4038 H       1  UNL1        0.0299
      4 C           1.7058   -0.9790   -0.4150 C.3     1  UNL1       -0.0130
      5 C           0.6651   -1.6950    0.4523 C.3     1  UNL1        0.1039
      6 H           0.7657   -1.4162    1.5071 H       1  UNL1        0.0734
      7 C          -0.7539   -1.3659   -0.0322 C.3     1  UNL1       -0.0105
      8 C          -1.0705    0.1434   -0.0752 C.3     1  UNL1       -0.0313
      9 C           0.0256    0.8893   -0.8739 C.3     1  UNL1       -0.0450
     10 C          -1.2313    0.7128    1.3458 C.3     1  UNL1       -0.0597
     11 C          -2.4236    0.3551   -0.7951 C.3     1  UNL1       -0.0597
     12 O           0.8402   -3.1268    0.3071 O.3     1  UNL1       -0.4593
     13 C           1.7807   -3.7290    1.0971 C.2     1  UNL1        0.3409
     14 O           2.4798   -3.1501    1.9206 O.2     1  UNL1       -0.2475
     15 C           1.8509   -5.2430    0.7746 C.3     1  UNL1        0.1767
     16 H           0.8355   -5.5576    0.5086 H       1  UNL1        0.0762
     17 C           2.8067   -5.5091   -0.3791 C.ar    1  UNL1       -0.0084
     18 C           2.3407   -6.1172   -1.5547 C.ar    1  UNL1       -0.0556
     19 C           3.2042   -6.3403   -2.6294 C.ar    1  UNL1       -0.0614
     20 C           4.5444   -5.9709   -2.5392 C.ar    1  UNL1       -0.0617
     21 C           5.0282   -5.3899   -1.3694 C.ar    1  UNL1       -0.0614
     22 C           4.1667   -5.1602   -0.2949 C.ar    1  UNL1       -0.0556
     23 O           2.2162   -6.0588    1.8866 O.3     1  UNL1       -0.3762
     24 H           1.8526    2.3799    0.5407 H       1  UNL1        0.0232
     25 H           1.6249    0.9797    1.6035 H       1  UNL1        0.0232
     26 H           3.1280    1.1730    0.7134 H       1  UNL1        0.0232
     27 H           1.6859   -1.4242   -1.4178 H       1  UNL1        0.0303
     28 H           2.7126   -1.1853   -0.0327 H       1  UNL1        0.0303
     29 H          -0.8845   -1.7960   -1.0365 H       1  UNL1        0.0306
     30 H          -1.4839   -1.8945    0.5956 H       1  UNL1        0.0306
     31 H          -0.1224    1.9746   -0.7958 H       1  UNL1        0.0273
     32 H          -0.1182    0.6541   -1.9387 H       1  UNL1        0.0273
     33 H          -1.3937    1.7965    1.3196 H       1  UNL1        0.0235
     34 H          -2.0949    0.2645    1.8509 H       1  UNL1        0.0235
     35 H          -0.3671    0.5213    1.9832 H       1  UNL1        0.0235
     36 H          -3.2374   -0.1524   -0.2636 H       1  UNL1        0.0235
     37 H          -2.6752    1.4215   -0.8537 H       1  UNL1        0.0235
     38 H          -2.3954   -0.0408   -1.8173 H       1  UNL1        0.0235
     39 H           1.2991   -6.4181   -1.6453 H       1  UNL1        0.0621
     40 H           2.8292   -6.8009   -3.5402 H       1  UNL1        0.0618
     41 H           5.2123   -6.1361   -3.3810 H       1  UNL1        0.0618
     42 H           6.0762   -5.1098   -1.2957 H       1  UNL1        0.0618
     43 H           4.5656   -4.6988    0.6079 H       1  UNL1        0.0621
     44 H           3.1596   -6.2765    1.8091 H       1  UNL1        0.2110
@<TRIPOS>BOND
     1     1     2    1
     2     1    24    1
     3     1    25    1
     4     1    26    1
     5     2     3    1
     6     2     9    1
     7     2     4    1
     8     4     5    1
     9     4    27    1
    10     4    28    1
    11     5     7    1
    12     7     8    1
    13     7    29    1
    14     7    30    1
    15     8     9    1
    16     8    10    1
    17     8    11    1
    18     9    31    1
    19     9    32    1
    20    10    33    1
    21    10    34    1
    22    10    35    1
    23    11    36    1
    24    11    37    1
    25    11    38    1
    26    12    13    1
    27    13    14    2
    28    13    15    1
    29    15    16    1
    30    15    17    1
    31    15    23    1
    32    17    22   ar
    33    17    18   ar
    34    18    19   ar
    35    18    39    1
    36    19    20   ar
    37    19    40    1
    38    20    21   ar
    39    20    41    1
    40    21    22   ar
    41    21    42    1
    42    22    43    1
    43    23    44    1
    44     5    12    1
    45     5     6    1
