@<TRIPOS>MOLECULE
ZINC00895034
 14 13 0 0 0
SMALL
GASTEIGER

@<TRIPOS>ATOM
      1 C           1.0162    0.1743   -0.0222 C.3     1  UNL1        0.0974
      2 CA          0.4285    1.5367    0.3037 C.3     1  UNL1        0.1019
      3 HA          0.7865    2.3156   -0.3754 H       1  UNL1        0.0993
      4 C          -1.1015    1.3706    0.2944 C.2     1  UNL1        0.4049
      5 O          -1.5442    1.2703    1.4769 O.co2   1  UNL1       -0.2399
      6 O          -1.6528    1.4025   -0.8304 O.co2   1  UNL1       -0.2399
      7 N           0.9303    1.9218    1.6864 N.4     1  UNL1        0.2306
      8 O           2.4456    0.2675    0.1304 O.3     1  UNL1       -0.3889
      9 H1          0.7795   -0.1587   -1.0390 H       1  UNL1        0.0620
     10 H2          0.6659   -0.5967    0.6751 H       1  UNL1        0.0620
     11 H1          0.2906    1.3960    2.3144 H       1  UNL1        0.2003
     12 H2          1.9051    1.6389    1.8159 H       1  UNL1        0.2003
     13 H           2.8116    0.3865   -0.7688 H       1  UNL1        0.2097
     14 H3          0.7400    2.9062    1.8753 H       1  UNL1        0.2003
@<TRIPOS>UNITY_ATOM_ATTR
7 1
charge 1
@<TRIPOS>BOND
     1     1     2    1
     2     1     8    1
     3     1     9    1
     4     1    10    1
     5     2     3    1
     6     2     4    1
     7     2     7    1
     8     4     5   ar
     9     4     6   ar
    10     7    11    1
    11     7    12    1
    12     7    14    1
    13     8    13    1
