@<TRIPOS>MOLECULE
ZINC01530641
 39 39 0 0 0
SMALL
GASTEIGER

@<TRIPOS>ATOM
      1 C          -5.8877    2.0287   -1.8040 C.3     1  UNL1       -0.0396
      2 C          -4.7598    1.3708   -1.0576 C.ar    1  UNL1       -0.0470
      3 C          -4.8317   -0.0105   -0.8504 C.ar    1  UNL1       -0.0584
      4 C          -3.8371   -0.6574   -0.1360 C.ar    1  UNL1       -0.0551
      5 C          -2.7430    0.0557    0.3827 C.ar    1  UNL1       -0.0088
      6 C          -2.6315    1.4428    0.1574 C.ar    1  UNL1        0.1236
      7 C          -3.6487    2.0943   -0.5617 C.ar    1  UNL1       -0.0168
      8 O          -1.5276    2.0276    0.7245 O.3     1  UNL1       -0.4917
      9 C          -1.1398    3.3684    0.4124 C.3     1  UNL1        0.0896
     10 C          -0.0292    3.8371    1.3916 C.3     1  UNL1       -0.0176
     11 C           1.2962    3.0486    1.3013 C.3     1  UNL1       -0.0345
     12 C           2.4128    3.3889    2.3440 C.3     1  UNL1        0.0665
     13 C           1.8966    3.3048    3.7868 C.3     1  UNL1       -0.0495
     14 C           3.5643    2.3794    2.1470 C.3     1  UNL1       -0.0495
     15 C           3.1221    4.7719    2.2340 C.2     1  UNL1        0.3615
     16 O           3.9906    5.0296    3.1138 O.co2   1  UNL1       -0.2458
     17 O           2.7507    5.4931    1.2620 O.co2   1  UNL1       -0.2458
     18 C          -1.7352   -0.7127    1.1916 C.3     1  UNL1       -0.0362
     19 H          -5.9358    1.6420   -2.8281 H       1  UNL1        0.0278
     20 H          -6.8425    1.8105   -1.3094 H       1  UNL1        0.0278
     21 H          -5.7758    3.1148   -1.8499 H       1  UNL1        0.0278
     22 H          -5.6736   -0.5815   -1.2352 H       1  UNL1        0.0620
     23 H          -3.9114   -1.7340    0.0306 H       1  UNL1        0.0621
     24 H          -3.6107    3.1650   -0.7240 H       1  UNL1        0.0657
     25 H          -0.7859    3.4214   -0.6237 H       1  UNL1        0.0696
     26 H          -1.9945    4.0425    0.5364 H       1  UNL1        0.0696
     27 H           0.1672    4.8989    1.2054 H       1  UNL1        0.0298
     28 H          -0.4278    3.7460    2.4069 H       1  UNL1        0.0298
     29 H           1.0617    1.9811    1.3978 H       1  UNL1        0.0277
     30 H           1.7036    3.1829    0.2896 H       1  UNL1        0.0277
     31 H           1.4147    2.3413    3.9747 H       1  UNL1        0.0240
     32 H           2.7046    3.4110    4.5212 H       1  UNL1        0.0240
     33 H           1.1753    4.1019    3.9966 H       1  UNL1        0.0240
     34 H           3.9007    2.3679    1.1028 H       1  UNL1        0.0240
     35 H           4.4442    2.6014    2.7624 H       1  UNL1        0.0240
     36 H           3.2410    1.3653    2.4046 H       1  UNL1        0.0240
     37 H          -2.2293   -1.1492    2.0660 H       1  UNL1        0.0279
     38 H          -1.3052   -1.5161    0.5844 H       1  UNL1        0.0279
     39 H          -0.9121   -0.0931    1.5527 H       1  UNL1        0.0279
@<TRIPOS>BOND
     1     1     2    1
     2     1    19    1
     3     1    20    1
     4     1    21    1
     5     2     7   ar
     6     2     3   ar
     7     3     4   ar
     8     3    22    1
     9     4     5   ar
    10     4    23    1
    11     5     6   ar
    12     5    18    1
    13     6     7   ar
    14     6     8    1
    15     7    24    1
    16     8     9    1
    17     9    10    1
    18     9    25    1
    19     9    26    1
    20    10    11    1
    21    10    27    1
    22    10    28    1
    23    11    12    1
    24    11    29    1
    25    11    30    1
    26    12    13    1
    27    12    14    1
    28    12    15    1
    29    13    31    1
    30    13    32    1
    31    13    33    1
    32    14    34    1
    33    14    35    1
    34    14    36    1
    35    15    16   ar
    36    15    17   ar
    37    18    37    1
    38    18    38    1
    39    18    39    1
