@<TRIPOS>MOLECULE
ZINC01530796
 31 32 0 0 0
SMALL
GASTEIGER

@<TRIPOS>ATOM
      1 C           3.1906    3.0428    1.6613 C.3     1  UNL1       -0.0640
      2 C           2.4122    2.0258    0.8290 C.3     1  UNL1       -0.0378
      3 C           1.1184    2.5552    0.1302 C.3     1  UNL1        0.0724
      4 C           0.1339    3.1089    1.1943 C.3     1  UNL1       -0.0267
      5 C          -1.0640    3.8024    0.5624 C.3     1  UNL1        0.0256
      6 C          -0.5983    4.9332   -0.3135 C.2     1  UNL1        0.2193
      7 O          -1.1993    5.9981   -0.3987 O.2     1  UNL1       -0.2754
      8 N           0.5480    4.7029   -1.0283 N.am    1  UNL1       -0.2557
      9 C           1.4941    3.7318   -0.8048 C.2     1  UNL1        0.2297
     10 O           2.5821    3.8252   -1.3770 O.2     1  UNL1       -0.2744
     11 C           0.5663    1.3463   -0.6760 C.ar    1  UNL1       -0.0324
     12 C          -0.2894    0.3923   -0.0930 C.ar    1  UNL1       -0.0576
     13 C          -0.6781   -0.7600   -0.7903 C.ar    1  UNL1       -0.0615
     14 C          -0.2115   -0.9895   -2.0813 C.ar    1  UNL1       -0.0617
     15 C           0.6366   -0.0667   -2.6786 C.ar    1  UNL1       -0.0615
     16 C           1.0237    1.0838   -1.9842 C.ar    1  UNL1       -0.0576
     17 H           4.1117    2.5832    2.0343 H       1  UNL1        0.0230
     18 H           2.6225    3.3777    2.5330 H       1  UNL1        0.0230
     19 H           3.4765    3.9205    1.0750 H       1  UNL1        0.0230
     20 H           3.1017    1.6217    0.0755 H       1  UNL1        0.0276
     21 H           2.1551    1.1834    1.4856 H       1  UNL1        0.0276
     22 H           0.6403    3.8566    1.8173 H       1  UNL1        0.0283
     23 H          -0.2088    2.3311    1.8844 H       1  UNL1        0.0283
     24 H          -1.6964    4.2206    1.3538 H       1  UNL1        0.0359
     25 H          -1.6753    3.1222   -0.0379 H       1  UNL1        0.0359
     26 H           0.8568    5.4737   -1.6054 H       1  UNL1        0.1575
     27 H          -0.6469    0.4976    0.9265 H       1  UNL1        0.0621
     28 H          -1.3257   -1.4903   -0.3120 H       1  UNL1        0.0618
     29 H          -0.4966   -1.8948   -2.6122 H       1  UNL1        0.0618
     30 H           1.0213   -0.2504   -3.6787 H       1  UNL1        0.0618
     31 H           1.7281    1.7485   -2.4821 H       1  UNL1        0.0621
@<TRIPOS>BOND
     1     1     2    1
     2     1    17    1
     3     1    18    1
     4     1    19    1
     5     2    20    1
     6     2    21    1
     7     3     9    1
     8     3     4    1
     9     4     5    1
    10     4    22    1
    11     4    23    1
    12     5     6    1
    13     5    24    1
    14     5    25    1
    15     6     7    2
    16     6     8   am
    17     8     9   am
    18     8    26    1
    19     9    10    2
    20    11    16   ar
    21    11    12   ar
    22    12    13   ar
    23    12    27    1
    24    13    14   ar
    25    13    28    1
    26    14    15   ar
    27    14    29    1
    28    15    16   ar
    29    15    30    1
    30    16    31    1
    31     3    11    1
    32     3     2    1
