@<TRIPOS>MOLECULE
ZINC01532673
 26 25 0 0 0
SMALL
GASTEIGER

@<TRIPOS>ATOM
      1 CB          0.9100   -0.0135    0.0662 C.3     1  CYS1        0.0574
      2 CA          0.5289   -0.7894   -1.1919 C.3     1  CYS1        0.0884
      3 HA          1.0704   -0.4578   -2.0837 H       1  CYS1        0.0978
      4 C           0.8351   -2.2699   -0.8677 C.2     1  CYS1        0.4034
      5 O          -0.2297   -2.8769   -0.5323 O.co2   1  CYS1       -0.2399
      6 OXT         2.0043   -2.6594   -1.0745 O.co2   1  CYS1       -0.2399
      7 N          -0.9517   -0.6315   -1.4871 N.4     1  CYS1        0.2295
      8 SG          0.7103    1.7942   -0.2109 S.3     1  CYS1       -0.0867
      9 SG          1.2878    2.5477    1.6134 S.3     1  CYS1       -0.0867
     10 CB          0.8477    4.3227    1.5410 C.3     1  CYS1        0.0574
     11 CA         -0.6024    4.6610    1.2053 C.3     1  CYS1        0.0884
     12 HA         -0.9304    4.2676    0.2405 H       1  CYS1        0.0978
     13 C          -1.5211    4.2219    2.3702 C.2     1  CYS1        0.4034
     14 O          -1.6536    5.1763    3.1963 O.co2   1  CYS1       -0.2399
     15 OXT        -2.1210    3.1302    2.2292 O.co2   1  CYS1       -0.2399
     16 N          -0.7281    6.1846    1.0825 N.4     1  CYS1        0.2295
     17 HB1         1.9552   -0.2048    0.3327 H       1  CYS1        0.0446
     18 HB2         0.2794   -0.3131    0.9123 H       1  CYS1        0.0446
     19 H1         -1.4068   -1.2025   -0.7456 H       1  CYS1        0.2003
     20 H2         -1.3007    0.3265   -1.4973 H       1  CYS1        0.2003
     21 HB1         1.1213    4.7482    2.5140 H       1  CYS1        0.0446
     22 HB2         1.5174    4.7851    0.8058 H       1  CYS1        0.0446
     23 H1         -0.7309    6.4902    2.0809 H       1  CYS1        0.2003
     24 H2         -0.0276    6.6702    0.5239 H       1  CYS1        0.2003
     25 H3         -1.1708   -1.1580   -2.3397 H       1  CYS1        0.2003
     26 H3         -1.6871    6.4030    0.7918 H       1  CYS1        0.2003
@<TRIPOS>UNITY_ATOM_ATTR
7 1
charge 1
16 1
charge 1
@<TRIPOS>BOND
     1     1     2    1
     2     1     8    1
     3     1    17    1
     4     1    18    1
     5     2     3    1
     6     2     4    1
     7     2     7    1
     8     4     5   ar
     9     4     6   ar
    10     7    19    1
    11     7    20    1
    12     7    25    1
    13     8     9    1
    14     9    10    1
    15    10    11    1
    16    10    21    1
    17    10    22    1
    18    11    12    1
    19    11    13    1
    20    11    16    1
    21    13    14   ar
    22    13    15   ar
    23    16    23    1
    24    16    24    1
    25    16    26    1
