@<TRIPOS>MOLECULE
ZINC00000931
 39 42 0 0 0
SMALL
GASTEIGER

@<TRIPOS>ATOM
      1 C           4.0560   -0.1787   -1.3178 C.ar    1  UNL1       -0.0574
      2 C           3.8631    1.1456   -0.9292 C.ar    1  UNL1       -0.0580
      3 C           2.8462    1.4582   -0.0326 C.ar    1  UNL1       -0.0150
      4 C           2.0142    0.4430    0.4556 C.ar    1  UNL1        0.1789
      5 C           2.1875   -0.8982    0.0797 C.ar    1  UNL1        0.2183
      6 C           3.2289   -1.1901   -0.8080 C.ar    1  UNL1       -0.0071
      7 N           1.4299   -1.9771    0.5898 N.2     1  UNL1       -0.0376
      8 C           0.1444   -1.8968    0.8037 C.2     1  UNL1        0.3252
      9 C          -0.6836   -0.6845    0.5101 C.ar    1  UNL1        0.1091
     10 C          -1.9637   -0.8588   -0.0320 C.ar    1  UNL1       -0.0249
     11 C          -2.7936    0.2442   -0.2143 C.ar    1  UNL1        0.0420
     12 C          -2.3564    1.5235    0.1244 C.ar    1  UNL1       -0.0399
     13 C          -1.0714    1.7018    0.6408 C.ar    1  UNL1       -0.0171
     14 C          -0.2338    0.5980    0.8184 C.ar    1  UNL1        0.1436
     15 O           1.0187    0.8276    1.3247 O.3     1  UNL1       -0.4508
     16 CL         -4.3815    0.0117   -0.8302 Cl      1  UNL1       -0.0835
     17 N          -0.5180   -3.0158    1.3134 N.pl3   1  UNL1       -0.2096
     18 C          -1.5152   -2.9161    2.3887 C.3     1  UNL1        0.1203
     19 C          -1.0762   -3.7417    3.6107 C.3     1  UNL1        0.0034
     20 N          -0.7837   -5.1637    3.2013 N.4     1  UNL1        0.2323
     21 C           0.2622   -5.2419    2.1098 C.3     1  UNL1        0.0034
     22 C          -0.1374   -4.3749    0.9048 C.3     1  UNL1        0.1203
     23 H           4.8547   -0.4245   -2.0132 H       1  UNL1        0.0619
     24 H           4.5059    1.9325   -1.3226 H       1  UNL1        0.0619
     25 H           2.6884    2.4889    0.2743 H       1  UNL1        0.0656
     26 H           3.4062   -2.2177   -1.1086 H       1  UNL1        0.0662
     27 H          -2.3127   -1.8493   -0.3091 H       1  UNL1        0.0642
     28 H          -3.0054    2.3843   -0.0179 H       1  UNL1        0.0633
     29 H          -0.7198    2.6999    0.8922 H       1  UNL1        0.0655
     30 H          -2.4757   -3.2886    2.0139 H       1  UNL1        0.0780
     31 H          -1.6661   -1.8806    2.7121 H       1  UNL1        0.0780
     32 H          -0.1586   -3.3480    4.0600 H       1  UNL1        0.0851
     33 H          -1.8657   -3.7851    4.3666 H       1  UNL1        0.0851
     34 H          -0.4565   -5.6926    4.0201 H       1  UNL1        0.2016
     35 H           0.3348   -6.2972    1.8290 H       1  UNL1        0.0851
     36 H           1.2053   -4.9143    2.5563 H       1  UNL1        0.0851
     37 H          -1.0029   -4.8277    0.4055 H       1  UNL1        0.0780
     38 H           0.6768   -4.3730    0.1721 H       1  UNL1        0.0780
     39 H          -1.6501   -5.6181    2.8847 H       1  UNL1        0.2016
@<TRIPOS>UNITY_ATOM_ATTR
20 1
charge 1
@<TRIPOS>BOND
     1     1     6   ar
     2     1     2   ar
     3     1    23    1
     4     2     3   ar
     5     2    24    1
     6     3     4   ar
     7     3    25    1
     8     4    15    1
     9     4     5   ar
    10     5     6   ar
    11     5     7    1
    12     6    26    1
    13     7     8    2
    14     8     9    1
    15     8    17    1
    16     9    14   ar
    17     9    10   ar
    18    10    11   ar
    19    10    27    1
    20    11    12   ar
    21    11    16    1
    22    12    13   ar
    23    12    28    1
    24    13    14   ar
    25    13    29    1
    26    14    15    1
    27    17    22    1
    28    17    18    1
    29    18    19    1
    30    18    30    1
    31    18    31    1
    32    19    20    1
    33    19    32    1
    34    19    33    1
    35    20    21    1
    36    20    34    1
    37    20    39    1
    38    21    22    1
    39    21    35    1
    40    21    36    1
    41    22    37    1
    42    22    38    1
