@<TRIPOS>MOLECULE
ZINC03830994
 35 36 0 0 0
SMALL
GASTEIGER

@<TRIPOS>ATOM
      1 C           3.4503   -4.4475   -3.2810 C.ar    1  UNL1       -0.0416
      2 C           2.8898   -5.1357   -2.2006 C.ar    1  UNL1       -0.0393
      3 C           3.0825   -6.5153   -2.1117 C.ar    1  UNL1       -0.0416
      4 C           3.7335   -7.2095   -3.1418 C.ar    1  UNL1        0.0569
      5 C           4.2555   -6.5338   -4.2564 C.ar    1  UNL1        0.1545
      6 C           4.1787   -5.1283   -4.2742 C.ar    1  UNL1        0.0569
      7 I           5.2016   -3.8767   -5.6346 I       1  UNL1       -0.0400
      8 O           4.8719   -7.3140   -5.2091 O.3     1  UNL1       -0.4539
      9 C           4.5714   -7.1539   -6.5439 C.ar    1  UNL1        0.1307
     10 C           3.3989   -6.5805   -7.0394 C.ar    1  UNL1       -0.0026
     11 C           3.3305   -6.2138   -8.3877 C.ar    1  UNL1        0.0592
     12 C           4.3852   -6.5144   -9.2561 C.ar    1  UNL1        0.1432
     13 C           5.4888   -7.2287   -8.7780 C.ar    1  UNL1        0.0592
     14 C           5.5818   -7.5503   -7.4236 C.ar    1  UNL1       -0.0026
     15 I           7.0644   -7.7731  -10.0384 I       1  UNL1       -0.0399
     16 O           4.3360   -6.0778  -10.5529 O.3     1  UNL1       -0.5047
     17 I           1.6785   -5.0819   -9.0011 I       1  UNL1       -0.0399
     18 I           3.8933   -9.2945   -2.9227 I       1  UNL1       -0.0400
     19 C           2.0839   -4.3941   -1.1562 C.3     1  UNL1        0.0261
     20 CA          0.5892   -4.4117   -1.4649 C.3     1  UNL1        0.0826
     21 HA          0.3689   -4.0148   -2.4621 H       1  UNL1        0.0973
     22 C          -0.2190   -3.5928   -0.4232 C.2     1  UNL1        0.4029
     23 O          -1.2007   -4.2898   -0.0040 O.co2   1  UNL1       -0.2400
     24 H           3.3467   -3.3618   -3.3314 H       1  UNL1        0.0632
     25 H           2.7330   -7.0551   -1.2333 H       1  UNL1        0.0632
     26 H           2.5815   -6.3314   -6.3706 H       1  UNL1        0.0666
     27 H           6.4581   -8.0603   -7.0295 H       1  UNL1        0.0666
     28 H           5.2015   -6.2554  -10.9633 H       1  UNL1        0.2922
     29 H           2.2842   -4.8230   -0.1658 H       1  UNL1        0.0374
     30 H           2.4467   -3.3592   -1.1004 H       1  UNL1        0.0374
     31 H1         -0.9475   -5.6915   -1.2405 H       1  UNL1        0.2003
     32 H2          0.1779   -6.3507   -2.3452 H       1  UNL1        0.2003
     33 OXT         0.1787   -2.4409   -0.1564 O.co2   1  UNL1       -0.2400
     34 N           0.0579   -5.8420   -1.4694 N.4     1  UNL1        0.2291
     35 H3          0.3929   -6.3469   -0.6486 H       1  UNL1        0.2003
@<TRIPOS>UNITY_ATOM_ATTR
34 1
charge 1
@<TRIPOS>BOND
     1     1     6   ar
     2     1     2   ar
     3     1    24    1
     4     2     3   ar
     5     2    19    1
     6     3     4   ar
     7     3    25    1
     8     4     5   ar
     9     4    18    1
    10     5     6   ar
    11     5     8    1
    12     6     7    1
    13     8     9    1
    14     9    14   ar
    15     9    10   ar
    16    10    11   ar
    17    10    26    1
    18    11    12   ar
    19    11    17    1
    20    12    13   ar
    21    12    16    1
    22    13    14   ar
    23    13    15    1
    24    14    27    1
    25    16    28    1
    26    19    29    1
    27    19    30    1
    28    20    22    1
    29    20    34    1
    30    22    23   ar
    31    22    33   ar
    32    31    34    1
    33    32    34    1
    34    34    35    1
    35    20    21    1
    36    20    19    1
