@<TRIPOS>MOLECULE
ZINC00014864
 39 41 0 0 0
SMALL
GASTEIGER

@<TRIPOS>ATOM
      1 C           0.6929    2.2700   -1.3389 C.3     1  UNL1       -0.0538
      2 C           0.3199    1.1480   -2.3136 C.3     1  UNL1        0.0362
      3 H          -0.6620    0.7820   -1.9755 H       1  UNL1        0.0394
      4 C           0.0371    1.7702   -3.6797 C.ar    1  UNL1        0.0855
      5 C          -1.2370    2.2272   -3.9794 C.ar    1  UNL1        0.1629
      6 C          -1.4185    2.8153   -5.2100 C.ar    1  UNL1        0.0663
      7 N          -0.4282    2.9607   -6.1131 N.ar    1  UNL1       -0.2408
      8 C           0.7687    2.4838   -5.7363 C.ar    1  UNL1        0.1164
      9 N           1.0575    1.8901   -4.5622 N.ar    1  UNL1       -0.2371
     10 F          -2.2550    2.1212   -3.1162 F       1  UNL1       -0.2020
     11 C           1.2187   -0.1586   -2.3451 C.3     1  UNL1        0.1209
     12 C           0.9693   -0.9954   -1.0359 C.3     1  UNL1        0.0768
     13 N           1.5893   -0.5404    0.1890 N.ar    1  UNL1       -0.2489
     14 C           2.9013   -0.5727    0.5511 C.ar    1  UNL1        0.1144
     15 N           3.0371   -0.1387    1.7819 N.ar    1  UNL1       -0.2228
     16 C           1.7511    0.0959    2.1637 C.ar    1  UNL1        0.1379
     17 N           0.8272   -0.1367    1.2276 N.ar    1  UNL1       -0.1583
     18 C           2.7267   -0.1050   -2.6389 C.ar    1  UNL1        0.0216
     19 C           3.4813    1.0758   -2.6588 C.ar    1  UNL1       -0.0503
     20 C           4.8816    1.0410   -2.6739 C.ar    1  UNL1       -0.0259
     21 C           5.5467   -0.1755   -2.7153 C.ar    1  UNL1        0.1261
     22 C           4.8400   -1.3596   -2.7987 C.ar    1  UNL1        0.0092
     23 C           3.4493   -1.3139   -2.7764 C.ar    1  UNL1        0.1321
     24 F           2.7998   -2.4863   -2.8001 F       1  UNL1       -0.2050
     25 F           6.8837   -0.2028   -2.6612 F       1  UNL1       -0.2054
     26 O           0.6352   -0.9709   -3.4052 O.3     1  UNL1       -0.3814
     27 H          -0.1613    2.9446   -1.2011 H       1  UNL1        0.0237
     28 H           1.5051    2.9045   -1.6971 H       1  UNL1        0.0237
     29 H           0.9615    1.9033   -0.3522 H       1  UNL1        0.0237
     30 H          -2.3894    3.1974   -5.5049 H       1  UNL1        0.0860
     31 H           1.5823    2.5933   -6.4487 H       1  UNL1        0.1047
     32 H          -0.1115   -1.0686   -0.8512 H       1  UNL1        0.0541
     33 H           1.2825   -2.0388   -1.1633 H       1  UNL1        0.0541
     34 H           3.7065   -0.9096   -0.0826 H       1  UNL1        0.1044
     35 H           1.4834    0.4423    3.1533 H       1  UNL1        0.1065
     36 H           3.0207    2.0546   -2.6452 H       1  UNL1        0.0623
     37 H           5.4552    1.9628   -2.6287 H       1  UNL1        0.0646
     38 H           5.3581   -2.3108   -2.8365 H       1  UNL1        0.0675
     39 H           0.9925   -0.6326   -4.2494 H       1  UNL1        0.2107
@<TRIPOS>BOND
     1     1     2    1
     2     1    27    1
     3     1    28    1
     4     1    29    1
     5     2     3    1
     6     2     4    1
     7     4     9   ar
     8     4     5   ar
     9     5     6   ar
    10     5    10    1
    11     6     7   ar
    12     6    30    1
    13     7     8   ar
    14     8     9   ar
    15     8    31    1
    16    11    18    1
    17    11    26    1
    18    12    13    1
    19    12    32    1
    20    12    33    1
    21    13    17   ar
    22    13    14   ar
    23    14    15   ar
    24    14    34    1
    25    15    16   ar
    26    16    17   ar
    27    16    35    1
    28    18    23   ar
    29    18    19   ar
    30    19    20   ar
    31    19    36    1
    32    20    21   ar
    33    20    37    1
    34    21    22   ar
    35    21    25    1
    36    22    23   ar
    37    22    38    1
    38    23    24    1
    39    26    39    1
    40    11    12    1
    41    11     2    1
