@<TRIPOS>MOLECULE
ZINC03830882
 96 96 0 0 0
SMALL
GASTEIGER

@<TRIPOS>ATOM
      1 C           7.5929   -3.4615    1.9206 C.3     1  UNL1       -0.0244
      2 C           6.6479   -4.6568    1.9137 C.3     1  UNL1       -0.0329
      3 N           5.5675   -4.6887    3.0474 N.4     1  UNL1        0.2451
      4 C           4.7181   -5.9376    2.6567 C.3     1  UNL1       -0.0329
      5 C           3.5839   -6.2959    3.5929 C.3     1  UNL1       -0.0244
      6 C           6.3253   -4.8384    4.4308 C.3     1  UNL1       -0.0329
      7 C           6.4716   -6.2401    5.0283 C.3     1  UNL1       -0.0244
      8 C           4.6510   -3.3700    3.1570 C.3     1  UNL1        0.0049
      9 C           4.1587   -2.6932    1.8206 C.3     1  UNL1        0.1294
     10 O           2.9146   -1.9553    1.7160 O.3     1  UNL1       -0.4829
     11 C           1.5652   -2.2186    1.7303 C.ar    1  UNL1        0.1659
     12 C           0.9782   -3.4179    2.0595 C.ar    1  UNL1       -0.0160
     13 C          -0.4343   -3.4712    2.1597 C.ar    1  UNL1       -0.0546
     14 C          -1.3025   -2.3842    1.8461 C.ar    1  UNL1       -0.0160
     15 C          -0.7832   -1.1413    1.4916 C.ar    1  UNL1        0.1659
     16 C           0.6599   -1.0833    1.5438 C.ar    1  UNL1        0.2040
     17 O           1.2201    0.1771    1.6063 O.3     1  UNL1       -0.4798
     18 C           1.9861    0.3122    2.8288 C.3     1  UNL1        0.1295
     19 C           3.2883    1.0429    2.5060 C.3     1  UNL1        0.0049
     20 N           3.1779    2.5810    2.6201 N.4     1  UNL1        0.2451
     21 C           4.5928    3.1814    2.3707 C.3     1  UNL1       -0.0329
     22 C           5.1684    2.8821    0.9906 C.3     1  UNL1       -0.0244
     23 C           2.1545    3.0734    1.5508 C.3     1  UNL1       -0.0329
     24 C           1.8342    4.5533    1.6579 C.3     1  UNL1       -0.0244
     25 C           2.6717    3.0095    4.0311 C.3     1  UNL1       -0.0329
     26 C           3.4398    2.3882    5.1890 C.3     1  UNL1       -0.0244
     27 O          -1.5742   -0.0418    1.1070 O.3     1  UNL1       -0.4829
     28 C          -3.0528   -0.0078    1.3427 C.3     1  UNL1        0.1294
     29 C          -3.9319    1.0330    0.4569 C.3     1  UNL1        0.0049
     30 N          -5.5623    1.2285    0.8996 N.4     1  UNL1        0.2451
     31 C          -6.2787   -0.1114    0.5750 C.3     1  UNL1       -0.0329
     32 C          -7.4521   -0.5657    1.4466 C.3     1  UNL1       -0.0244
     33 C          -5.5634    1.7233    2.3736 C.3     1  UNL1       -0.0329
     34 C          -6.8764    2.2046    2.9899 C.3     1  UNL1       -0.0244
     35 C          -6.2268    2.3913    0.0541 C.3     1  UNL1       -0.0329
     36 C          -6.1753    2.2379   -1.4625 C.3     1  UNL1       -0.0244
     37 H           7.0625   -2.5109    1.9334 H       1  UNL1        0.0281
     38 H           8.2035   -3.4837    1.0082 H       1  UNL1        0.0281
     39 H           8.2931   -3.4756    2.7576 H       1  UNL1        0.0281
     40 H           6.1165   -4.6787    0.9581 H       1  UNL1        0.0812
     41 H           7.2283   -5.5771    2.0074 H       1  UNL1        0.0812
     42 H           4.3119   -5.7309    1.6641 H       1  UNL1        0.0812
     43 H           5.4050   -6.7877    2.5635 H       1  UNL1        0.0812
     44 H           2.6291   -6.2426    3.0594 H       1  UNL1        0.0281
     45 H           3.6832   -7.3487    3.8982 H       1  UNL1        0.0281
     46 H           3.5191   -5.6839    4.4897 H       1  UNL1        0.0281
     47 H           7.3335   -4.4303    4.3020 H       1  UNL1        0.0812
     48 H           5.8135   -4.2077    5.1585 H       1  UNL1        0.0812
     49 H           6.9885   -6.9387    4.3688 H       1  UNL1        0.0281
     50 H           7.0746   -6.1668    5.9459 H       1  UNL1        0.0281
     51 H           5.5173   -6.6630    5.3417 H       1  UNL1        0.0281
     52 H           3.8203   -3.5932    3.8287 H       1  UNL1        0.0849
     53 H           5.3122   -2.6443    3.6639 H       1  UNL1        0.0849
     54 H           4.8400   -1.8303    1.7806 H       1  UNL1        0.0751
     55 H           4.3991   -3.2309    0.8994 H       1  UNL1        0.0751
     56 H           1.5565   -4.2962    2.3042 H       1  UNL1        0.0655
     57 H          -0.8972   -4.3959    2.4896 H       1  UNL1        0.0620
     58 H          -2.3697   -2.5690    1.9099 H       1  UNL1        0.0655
     59 H           1.3499    0.8067    3.5667 H       1  UNL1        0.0751
     60 H           2.2581   -0.6225    3.3231 H       1  UNL1        0.0751
     61 H           4.0919    0.7303    3.1810 H       1  UNL1        0.0849
     62 H           3.5890    0.8086    1.4852 H       1  UNL1        0.0849
     63 H           4.5292    4.2617    2.5372 H       1  UNL1        0.0812
     64 H           5.2584    2.7560    3.1265 H       1  UNL1        0.0812
     65 H           4.5907    3.3531    0.1863 H       1  UNL1        0.0281
     66 H           6.1877    3.2653    0.9212 H       1  UNL1        0.0281
     67 H           5.2329    1.8066    0.7758 H       1  UNL1        0.0281
     68 H           2.5445    2.8072    0.5638 H       1  UNL1        0.0812
     69 H           1.2198    2.5272    1.7079 H       1  UNL1        0.0812
     70 H           2.7120    5.1771    1.8277 H       1  UNL1        0.0281
     71 H           1.3547    4.8920    0.7345 H       1  UNL1        0.0281
     72 H           1.1187    4.7310    2.4685 H       1  UNL1        0.0281
     73 H           2.7402    4.0979    4.0830 H       1  UNL1        0.0812
     74 H           1.6124    2.7376    4.0956 H       1  UNL1        0.0812
     75 H           4.5004    2.6521    5.1667 H       1  UNL1        0.0281
     76 H           3.0337    2.7678    6.1334 H       1  UNL1        0.0281
     77 H           3.3484    1.2972    5.2243 H       1  UNL1        0.0281
     78 H          -3.4685   -0.9970    1.1611 H       1  UNL1        0.0751
     79 H          -3.1655    0.2599    2.3947 H       1  UNL1        0.0751
     80 H          -3.5160    2.0442    0.4859 H       1  UNL1        0.0849
     81 H          -3.9754    0.6906   -0.5834 H       1  UNL1        0.0849
     82 H          -6.6545   -0.0410   -0.4541 H       1  UNL1        0.0812
     83 H          -5.5522   -0.8798    0.5812 H       1  UNL1        0.0812
     84 H          -8.1927    0.1975    1.6757 H       1  UNL1        0.0281
     85 H          -8.0117   -1.3361    0.8921 H       1  UNL1        0.0281
     86 H          -7.0930   -1.0557    2.3588 H       1  UNL1        0.0281
     87 H          -5.1341    0.9220    2.9827 H       1  UNL1        0.0812
     88 H          -4.8806    2.5797    2.3842 H       1  UNL1        0.0812
     89 H          -7.6713    1.4643    3.0107 H       1  UNL1        0.0281
     90 H          -6.6970    2.4509    4.0429 H       1  UNL1        0.0281
     91 H          -7.2643    3.1165    2.5249 H       1  UNL1        0.0281
     92 H          -7.2750    2.4538    0.3661 H       1  UNL1        0.0812
     93 H          -5.7146    3.3158    0.3370 H       1  UNL1        0.0812
     94 H          -6.7816    1.4030   -1.8354 H       1  UNL1        0.0281
     95 H          -6.5953    3.1402   -1.9286 H       1  UNL1        0.0281
     96 H          -5.1524    2.1289   -1.8380 H       1  UNL1        0.0281
@<TRIPOS>UNITY_ATOM_ATTR
3 1
charge 1
20 1
charge 1
30 1
charge 1
@<TRIPOS>BOND
     1     1     2    1
     2     1    37    1
     3     1    38    1
     4     1    39    1
     5     2     3    1
     6     2    40    1
     7     2    41    1
     8     3     4    1
     9     3     6    1
    10     3     8    1
    11     4     5    1
    12     4    42    1
    13     4    43    1
    14     5    44    1
    15     5    45    1
    16     5    46    1
    17     6     7    1
    18     6    47    1
    19     6    48    1
    20     7    49    1
    21     7    50    1
    22     7    51    1
    23     8     9    1
    24     8    52    1
    25     8    53    1
    26     9    10    1
    27     9    54    1
    28     9    55    1
    29    10    11    1
    30    11    16   ar
    31    11    12   ar
    32    12    13   ar
    33    12    56    1
    34    13    14   ar
    35    13    57    1
    36    14    15   ar
    37    14    58    1
    38    15    16   ar
    39    15    27    1
    40    16    17    1
    41    17    18    1
    42    18    19    1
    43    18    59    1
    44    18    60    1
    45    19    20    1
    46    19    61    1
    47    19    62    1
    48    20    21    1
    49    20    23    1
    50    20    25    1
    51    21    22    1
    52    21    63    1
    53    21    64    1
    54    22    65    1
    55    22    66    1
    56    22    67    1
    57    23    24    1
    58    23    68    1
    59    23    69    1
    60    24    70    1
    61    24    71    1
    62    24    72    1
    63    25    26    1
    64    25    73    1
    65    25    74    1
    66    26    75    1
    67    26    76    1
    68    26    77    1
    69    27    28    1
    70    28    29    1
    71    28    78    1
    72    28    79    1
    73    29    30    1
    74    29    80    1
    75    29    81    1
    76    30    31    1
    77    30    33    1
    78    30    35    1
    79    31    32    1
    80    31    82    1
    81    31    83    1
    82    32    84    1
    83    32    85    1
    84    32    86    1
    85    33    34    1
    86    33    87    1
    87    33    88    1
    88    34    89    1
    89    34    90    1
    90    34    91    1
    91    35    36    1
    92    35    92    1
    93    35    93    1
    94    36    94    1
    95    36    95    1
    96    36    96    1
