@<TRIPOS>MOLECULE
ZINC00491073
 43 46 0 0 0
SMALL
GASTEIGER

@<TRIPOS>ATOM
      1 C           4.9962    1.1916    5.1672 C.3     1  UNL1       -0.0428
      2 N           3.7172    1.8548    5.7066 N.4     1  UNL1        0.2364
      3 C           2.7141    0.8129    6.2029 C.3     1  UNL1       -0.0306
      4 C           1.1774    1.2208    6.3818 C.3     1  UNL1        0.0041
      5 C           0.4852    1.4718    4.8828 C.3     1  UNL1        0.0595
      6 C           0.9581    0.2546    4.1047 C.2     1  UNL1       -0.0713
      7 C           1.9517    0.3799    3.1839 C.2     1  UNL1       -0.0588
      8 C           0.8154    0.0982    2.1126 C.3     1  UNL1        0.0768
      9 H           0.5342   -0.9732    2.1485 H       1  UNL1        0.0639
     10 C          -0.6232    0.9988    2.4285 C.3     1  UNL1        0.0151
     11 C          -0.9703    1.5252    4.0400 C.3     1  UNL1        0.1163
     12 H          -1.7016    0.8428    4.4944 H       1  UNL1        0.0746
     13 O          -1.4444    2.8801    4.1134 O.3     1  UNL1       -0.4836
     14 C          -0.3570    3.6712    4.3990 C.ar    1  UNL1        0.1669
     15 C           0.8489    2.9796    4.5839 C.ar    1  UNL1        0.0197
     16 C           2.0609    3.6351    4.7767 C.ar    1  UNL1        0.0049
     17 C           2.0170    5.0354    4.8207 C.ar    1  UNL1       -0.0496
     18 C           0.8049    5.7331    4.7476 C.ar    1  UNL1       -0.0158
     19 C          -0.3965    5.0474    4.5678 C.ar    1  UNL1        0.1618
     20 O          -1.6183    5.6566    4.5964 O.3     1  UNL1       -0.4914
     21 C          -1.6843    6.7298    5.5496 C.3     1  UNL1        0.0790
     22 C           3.3897    2.9599    4.7380 C.3     1  UNL1       -0.0058
     23 O           1.3478    0.3236    0.8193 O.3     1  UNL1       -0.3876
     24 H           5.2327    0.3094    5.7631 H       1  UNL1        0.0778
     25 H           5.8068    1.9259    5.2329 H       1  UNL1        0.0778
     26 H           4.8395    0.9087    4.1184 H       1  UNL1        0.0778
     27 H           2.8440   -0.0753    5.5708 H       1  UNL1        0.0815
     28 H           3.1088    0.4982    7.1755 H       1  UNL1        0.0815
     29 H           0.6783    0.3577    6.8429 H       1  UNL1        0.0330
     30 H           1.0819    2.0821    7.0462 H       1  UNL1        0.0330
     31 H           0.6252    1.1114    4.6524 H       1  UNL1        0.0580
     32 H           2.5110    1.2530    2.9010 H       1  UNL1        0.0595
     33 H          -1.4468    0.3148    2.1676 H       1  UNL1        0.0329
     34 H          -0.6786    1.8434    1.7379 H       1  UNL1        0.0329
     35 H           2.9301    5.6196    4.9148 H       1  UNL1        0.0623
     36 H           0.8290    6.8187    4.8269 H       1  UNL1        0.0655
     37 H          -1.1602    6.4940    6.4867 H       1  UNL1        0.0660
     38 H          -1.2809    7.6475    5.1092 H       1  UNL1        0.0660
     39 H          -2.7343    6.9018    5.7960 H       1  UNL1        0.0660
     40 H           4.1761    3.7082    4.9160 H       1  UNL1        0.0867
     41 H           3.5861    2.6258    3.7126 H       1  UNL1        0.0867
     42 H           1.7465   -0.5097    0.5272 H       1  UNL1        0.2102
     43 H           3.9977    2.3486    6.5595 H       1  UNL1        0.2034
@<TRIPOS>UNITY_ATOM_ATTR
2 1
charge 1
@<TRIPOS>BOND
     1     1     2    1
     2     1    24    1
     3     1    25    1
     4     1    26    1
     5     2    22    1
     6     2     3    1
     7     2    43    1
     8     3     4    1
     9     3    27    1
    10     3    28    1
    11     4     5    1
    12     4    29    1
    13     4    30    1
    14     5    11    1
    15     5    15    1
    16     5     6    1
    17     6     7    2
    18     6    31    1
    19     7     8    1
    20     7    32    1
    21     8    10    1
    22    10    11    1
    23    10    33    1
    24    10    34    1
    25    11    12    1
    26    11    13    1
    27    13    14    1
    28    14    19   ar
    29    14    15   ar
    30    15    16   ar
    31    16    17   ar
    32    16    22    1
    33    17    18   ar
    34    17    35    1
    35    18    19   ar
    36    18    36    1
    37    19    20    1
    38    20    21    1
    39    21    37    1
    40    21    38    1
    41    21    39    1
    42    22    40    1
    43    22    41    1
    44    23    42    1
    45     8    23    1
    46     8     9    1
