@<TRIPOS>MOLECULE
ZINC01481966
 49 50 0 0 0
SMALL
GASTEIGER

@<TRIPOS>ATOM
      1 C           1.0994   -0.1024    0.2166 C.3     1  UNL1       -0.0245
      2 C           0.5110    1.2639    0.5177 C.3     1  UNL1       -0.0348
      3 N           0.9481    2.3215   -0.5033 N.4     1  UNL1        0.2351
      4 C           0.4408    2.0003   -1.9103 C.3     1  UNL1       -0.0316
      5 C           0.8140    3.0289   -2.9895 C.3     1  UNL1       -0.0085
      6 C           2.3141    3.2911   -3.1521 C.3     1  UNL1       -0.0229
      7 C           2.6137    4.3422   -4.1990 C.ar    1  UNL1       -0.0472
      8 C           2.8134    3.9874   -5.5409 C.ar    1  UNL1       -0.0586
      9 C           3.1418    4.9574   -6.4948 C.ar    1  UNL1       -0.0615
     10 C           3.2572    6.2946   -6.1247 C.ar    1  UNL1       -0.0617
     11 C           3.0400    6.6638   -4.7998 C.ar    1  UNL1       -0.0615
     12 C           2.7167    5.6949   -3.8428 C.ar    1  UNL1       -0.0586
     13 C           0.5422    3.7198   -0.0459 C.3     1  UNL1       -0.0316
     14 C           1.2204    4.1721    1.2469 C.3     1  UNL1       -0.0085
     15 C           2.7507    4.1524    1.1910 C.3     1  UNL1       -0.0229
     16 C           3.3400    4.6177    2.4954 C.ar    1  UNL1       -0.0472
     17 C           3.5905    5.9776    2.7209 C.ar    1  UNL1       -0.0586
     18 C           4.0889    6.4083    3.9516 C.ar    1  UNL1       -0.0615
     19 C           4.3395    5.4871    4.9661 C.ar    1  UNL1       -0.0617
     20 C           4.1013    4.1320    4.7495 C.ar    1  UNL1       -0.0615
     21 C           3.6043    3.6976    3.5204 C.ar    1  UNL1       -0.0586
     22 H           0.6593   -0.5503   -0.6783 H       1  UNL1        0.0281
     23 H           0.8935   -0.7821    1.0467 H       1  UNL1        0.0281
     24 H           2.1851   -0.0501    0.0901 H       1  UNL1        0.0281
     25 H          -0.5839    1.2457    0.5405 H       1  UNL1        0.0812
     26 H           0.8851    1.5780    1.4953 H       1  UNL1        0.0812
     27 H           0.8645    1.0301   -2.1850 H       1  UNL1        0.0814
     28 H          -0.6486    1.9056   -1.8404 H       1  UNL1        0.0814
     29 H           0.4215    2.6552   -3.9450 H       1  UNL1        0.0320
     30 H           0.2789    3.9692   -2.8154 H       1  UNL1        0.0320
     31 H           2.7560    3.6179   -2.2038 H       1  UNL1        0.0315
     32 H           2.8319    2.3611   -3.4170 H       1  UNL1        0.0315
     33 H           2.7372    2.9514   -5.8631 H       1  UNL1        0.0620
     34 H           3.3142    4.6706   -7.5302 H       1  UNL1        0.0618
     35 H           3.5222    7.0464   -6.8661 H       1  UNL1        0.0618
     36 H           3.1321    7.7087   -4.5117 H       1  UNL1        0.0618
     37 H           2.5696    6.0139   -2.8153 H       1  UNL1        0.0620
     38 H           0.8245    4.4207   -0.8334 H       1  UNL1        0.0814
     39 H          -0.5485    3.7220    0.0576 H       1  UNL1        0.0814
     40 H           0.8874    5.1998    1.4468 H       1  UNL1        0.0320
     41 H           0.8584    3.5870    2.0996 H       1  UNL1        0.0320
     42 H           3.1233    3.1432    0.9818 H       1  UNL1        0.0315
     43 H           3.1102    4.7864    0.3710 H       1  UNL1        0.0315
     44 H           3.4007    6.7161    1.9452 H       1  UNL1        0.0620
     45 H           4.2809    7.4653    4.1224 H       1  UNL1        0.0618
     46 H           4.7231    5.8257    5.9257 H       1  UNL1        0.0618
     47 H           4.3035    3.4151    5.5420 H       1  UNL1        0.0618
     48 H           3.4278    2.6351    3.3761 H       1  UNL1        0.0620
     49 H           1.9727    2.2808   -0.5480 H       1  UNL1        0.2033
@<TRIPOS>UNITY_ATOM_ATTR
3 1
charge 1
@<TRIPOS>BOND
     1     1     2    1
     2     1    22    1
     3     1    23    1
     4     1    24    1
     5     2     3    1
     6     2    25    1
     7     2    26    1
     8     3     4    1
     9     3    13    1
    10     3    49    1
    11     4     5    1
    12     4    27    1
    13     4    28    1
    14     5     6    1
    15     5    29    1
    16     5    30    1
    17     6     7    1
    18     6    31    1
    19     6    32    1
    20     7    12   ar
    21     7     8   ar
    22     8     9   ar
    23     8    33    1
    24     9    10   ar
    25     9    34    1
    26    10    11   ar
    27    10    35    1
    28    11    12   ar
    29    11    36    1
    30    12    37    1
    31    13    14    1
    32    13    38    1
    33    13    39    1
    34    14    15    1
    35    14    40    1
    36    14    41    1
    37    15    16    1
    38    15    42    1
    39    15    43    1
    40    16    21   ar
    41    16    17   ar
    42    17    18   ar
    43    17    44    1
    44    18    19   ar
    45    18    45    1
    46    19    20   ar
    47    19    46    1
    48    20    21   ar
    49    20    47    1
    50    21    48    1
