@<TRIPOS>MOLECULE
ZINC00056647
 41 43 0 0 0
SMALL
GASTEIGER

@<TRIPOS>ATOM
      1 C           1.0144    0.1796    2.1810 C.3     1  UNL1       -0.0201
      2 C           0.3833    0.9020    0.9867 C.3     1  UNL1       -0.0078
      3 H           0.8234    1.9054    0.9173 H       1  UNL1        0.0864
      4 C          -1.1651    1.0848    1.1505 C.3     1  UNL1        0.0599
      5 N          -1.9238   -0.1810    1.2930 N.pl3   1  UNL1       -0.2929
      6 C          -2.0288   -0.7709    2.5860 C.ar    1  UNL1        0.0480
      7 C          -2.1580    0.0016    3.7566 C.ar    1  UNL1       -0.0393
      8 C          -2.2890   -0.5937    5.0165 C.ar    1  UNL1       -0.0599
      9 C          -2.3141   -1.9772    5.1367 C.ar    1  UNL1       -0.0606
     10 C          -2.2205   -2.7686    3.9958 C.ar    1  UNL1       -0.0462
     11 C          -2.0885   -2.1765    2.7295 C.ar    1  UNL1        0.0341
     12 S          -1.9569   -3.2553    1.3114 S.3     1  UNL1       -0.0857
     13 C          -2.6228   -2.1788    0.0500 C.ar    1  UNL1        0.0341
     14 C          -2.5213   -0.7749    0.1586 C.ar    1  UNL1        0.0480
     15 C          -3.1202   -0.0065   -0.8581 C.ar    1  UNL1       -0.0393
     16 C          -3.7261   -0.6061   -1.9696 C.ar    1  UNL1       -0.0599
     17 C          -3.7735   -1.9872   -2.0766 C.ar    1  UNL1       -0.0606
     18 C          -3.2336   -2.7734   -1.0659 C.ar    1  UNL1       -0.0462
     19 N           0.7993    0.1889   -0.3215 N.4     1  UNL1        0.2340
     20 C           0.2895    0.8530   -1.5758 C.3     1  UNL1       -0.0430
     21 C           2.2973    0.0137   -0.4582 C.3     1  UNL1       -0.0430
     22 H           2.0660    0.4666    2.2921 H       1  UNL1        0.0285
     23 H           0.9700   -0.9093    2.0718 H       1  UNL1        0.0285
     24 H           0.5308    0.4541    3.1217 H       1  UNL1        0.0285
     25 H          -1.3293    1.7447    2.0082 H       1  UNL1        0.0524
     26 H          -1.5259    1.6846    0.3094 H       1  UNL1        0.0524
     27 H          -2.2143    1.0852    3.7242 H       1  UNL1        0.0636
     28 H          -2.3978    0.0272    5.9036 H       1  UNL1        0.0618
     29 H          -2.4280   -2.4407    6.1144 H       1  UNL1        0.0618
     30 H          -2.2664   -3.8498    4.0982 H       1  UNL1        0.0629
     31 H          -3.1772    1.0753   -0.7887 H       1  UNL1        0.0636
     32 H          -4.1894    0.0137   -2.7353 H       1  UNL1        0.0618
     33 H          -4.2697   -2.4569   -2.9266 H       1  UNL1        0.0618
     34 H          -3.3135   -3.8571   -1.1356 H       1  UNL1        0.0629
     35 H           0.5447    1.9149   -1.5384 H       1  UNL1        0.0777
     36 H           0.7559    0.3738   -2.4420 H       1  UNL1        0.0777
     37 H          -0.7837    0.7108   -1.6410 H       1  UNL1        0.0777
     38 H           2.6779   -0.5603    0.3872 H       1  UNL1        0.0777
     39 H           2.4939   -0.5451   -1.3780 H       1  UNL1        0.0777
     40 H           2.7554    1.0065   -0.5035 H       1  UNL1        0.0777
     41 H           0.3740   -0.7518   -0.2785 H       1  UNL1        0.2031
@<TRIPOS>UNITY_ATOM_ATTR
19 1
charge 1
@<TRIPOS>BOND
     1     1    22    1
     2     1    23    1
     3     1    24    1
     4     2     4    1
     5     2    19    1
     6     4     5    1
     7     4    25    1
     8     4    26    1
     9     5    14    1
    10     5     6    1
    11     6    11   ar
    12     6     7   ar
    13     7     8   ar
    14     7    27    1
    15     8     9   ar
    16     8    28    1
    17     9    10   ar
    18     9    29    1
    19    10    11   ar
    20    10    30    1
    21    11    12    1
    22    12    13    1
    23    13    18   ar
    24    13    14   ar
    25    14    15   ar
    26    15    16   ar
    27    15    31    1
    28    16    17   ar
    29    16    32    1
    30    17    18   ar
    31    17    33    1
    32    18    34    1
    33    19    20    1
    34    19    21    1
    35    19    41    1
    36    20    35    1
    37    20    36    1
    38    20    37    1
    39    21    38    1
    40    21    39    1
    41    21    40    1
    42     2     3    1
    43     2     1    1
