@<TRIPOS>MOLECULE
ZINC00402979
 39 39 0 0 0
SMALL
GASTEIGER

@<TRIPOS>ATOM
      1 C          -1.1328    0.0656    1.0705 C.3     1  UNL1       -0.0601
      2 C           0.3502   -0.2583    1.2053 C.3     1  UNL1       -0.0098
      3 C           1.0039    0.4742    2.3802 C.3     1  UNL1        0.0081
      4 H           0.8731    1.5565    2.2668 H       1  UNL1        0.0880
      5 C           0.4678    0.0889    3.8038 C.3     1  UNL1        0.1226
      6 H          -0.5699    0.4245    3.9131 H       1  UNL1        0.0701
      7 C           0.5754   -1.3838    4.1609 C.ar    1  UNL1       -0.0101
      8 C           1.7253   -1.9062    4.7870 C.ar    1  UNL1       -0.0522
      9 C           1.8340   -3.2698    5.0700 C.ar    1  UNL1       -0.0162
     10 C           0.7926   -4.1168    4.7339 C.ar    1  UNL1        0.1582
     11 C          -0.3627   -3.6240    4.1431 C.ar    1  UNL1        0.1586
     12 C          -0.4842   -2.2645    3.8618 C.ar    1  UNL1       -0.0107
     13 O          -1.3500   -4.5182    3.8441 O.3     1  UNL1       -0.5033
     14 O           0.9139   -5.4475    5.0021 O.3     1  UNL1       -0.5033
     15 O           1.2506    0.8499    4.7403 O.3     1  UNL1       -0.3816
     16 N           2.5151    0.2616    2.3751 N.4     1  UNL1        0.2330
     17 C           3.3449    0.7482    1.2224 C.3     1  UNL1       -0.0281
     18 C           3.1808    2.2480    1.0185 C.3     1  UNL1       -0.0219
     19 C           4.8007    0.3975    1.5194 C.3     1  UNL1       -0.0219
     20 H          -1.7172   -0.3185    1.9088 H       1  UNL1        0.0232
     21 H          -1.5337   -0.3826    0.1559 H       1  UNL1        0.0232
     22 H          -1.2935    1.1470    1.0168 H       1  UNL1        0.0232
     23 H           0.4888   -1.3416    1.2892 H       1  UNL1        0.0318
     24 H           0.8286    0.0405    0.2665 H       1  UNL1        0.0318
     25 H           2.5503   -1.2608    5.0855 H       1  UNL1        0.0622
     26 H           2.7162   -3.6677    5.5643 H       1  UNL1        0.0655
     27 H          -1.4018   -1.8974    3.4195 H       1  UNL1        0.0659
     28 H          -2.1364   -4.0480    3.5184 H       1  UNL1        0.2923
     29 H           0.0681   -5.8486    4.7165 H       1  UNL1        0.2923
     30 H           0.8754    0.6690    5.6279 H       1  UNL1        0.2105
     31 H           2.8379    0.7140    3.2501 H       1  UNL1        0.2020
     32 H           3.0226    0.1985    0.3331 H       1  UNL1        0.0845
     33 H           3.3459    2.8047    1.9468 H       1  UNL1        0.0284
     34 H           3.8986    2.6151    0.2756 H       1  UNL1        0.0284
     35 H           2.1822    2.4915    0.6428 H       1  UNL1        0.0284
     36 H           4.9248   -0.6824    1.6599 H       1  UNL1        0.0284
     37 H           5.4468    0.6995    0.6882 H       1  UNL1        0.0284
     38 H           5.1590    0.9011    2.4241 H       1  UNL1        0.0284
     39 H           2.6953   -0.7406    2.5173 H       1  UNL1        0.2020
@<TRIPOS>UNITY_ATOM_ATTR
16 1
charge 1
@<TRIPOS>BOND
     1     1     2    1
     2     1    20    1
     3     1    21    1
     4     1    22    1
     5     2     3    1
     6     2    23    1
     7     2    24    1
     8     3     4    1
     9     3     5    1
    10     3    16    1
    11     5     6    1
    12     5     7    1
    13     5    15    1
    14     7    12   ar
    15     7     8   ar
    16     8     9   ar
    17     8    25    1
    18     9    10   ar
    19     9    26    1
    20    10    11   ar
    21    10    14    1
    22    11    12   ar
    23    11    13    1
    24    12    27    1
    25    13    28    1
    26    14    29    1
    27    15    30    1
    28    16    17    1
    29    16    31    1
    30    16    39    1
    31    17    18    1
    32    17    19    1
    33    17    32    1
    34    18    33    1
    35    18    34    1
    36    18    35    1
    37    19    36    1
    38    19    37    1
    39    19    38    1
