@<TRIPOS>MOLECULE
ZINC00968273
 54 56 0 0 0
SMALL
GASTEIGER

@<TRIPOS>ATOM
      1 C           1.0379   -0.6893    1.6928 C.ar    1  UNL1       -0.0617
      2 C           0.1996   -1.6074    1.0835 C.ar    1  UNL1       -0.0614
      3 C          -0.9747   -1.1875    0.4486 C.ar    1  UNL1       -0.0558
      4 C          -1.3371    0.1704    0.4145 C.ar    1  UNL1       -0.0157
      5 C          -0.4379    1.0863    1.0036 C.ar    1  UNL1       -0.0558
      6 C           0.7339    0.6654    1.6404 C.ar    1  UNL1       -0.0614
      7 C          -2.7009    0.6227   -0.1319 C.3     1  UNL1        0.0985
      8 C          -3.3334    1.5251    0.9735 C.3     1  UNL1        0.0208
      9 C          -4.7866    1.9369    0.7684 C.3     1  UNL1       -0.0289
     10 N          -5.3428    2.6978    1.9801 N.4     1  UNL1        0.2353
     11 C          -5.7482    1.7926    3.1289 C.3     1  UNL1       -0.0319
     12 C          -6.4910    2.6179    4.1763 C.3     1  UNL1       -0.0123
     13 C          -5.6516    3.7930    4.6662 C.3     1  UNL1       -0.0434
     14 C          -5.2012    4.6621    3.4975 C.3     1  UNL1       -0.0123
     15 C          -4.4693    3.8435    2.4450 C.3     1  UNL1       -0.0319
     16 C          -2.6922    1.2446   -1.5827 C.3     1  UNL1       -0.0078
     17 C          -2.0420    2.6286   -1.7737 C.3     1  UNL1       -0.0473
     18 C          -0.5468    2.6310   -2.0861 C.3     1  UNL1       -0.0527
     19 C          -0.1543    1.6542   -3.1850 C.3     1  UNL1       -0.0530
     20 C          -0.7224    0.2622   -2.9551 C.3     1  UNL1       -0.0527
     21 C          -2.2270    0.2820   -2.7043 C.3     1  UNL1       -0.0473
     22 O          -3.5899   -0.5172   -0.1365 O.3     1  UNL1       -0.3835
     23 H           1.9399   -1.0208    2.2095 H       1  UNL1        0.0618
     24 H           0.4460   -2.6700    1.1148 H       1  UNL1        0.0618
     25 H          -1.6161   -1.9425   -0.0022 H       1  UNL1        0.0621
     26 H          -0.6317    2.1557    0.9922 H       1  UNL1        0.0621
     27 H           1.4010    1.3879    2.0995 H       1  UNL1        0.0618
     28 H          -3.2855    0.9691    1.9214 H       1  UNL1        0.0348
     29 H          -2.7315    2.4264    1.1044 H       1  UNL1        0.0348
     30 H          -4.8819    2.6223   -0.0795 H       1  UNL1        0.0815
     31 H          -5.4530    1.0846    0.6014 H       1  UNL1        0.0815
     32 H          -4.8422    1.3393    3.5430 H       1  UNL1        0.0814
     33 H          -6.4018    1.0141    2.7228 H       1  UNL1        0.0814
     34 H          -6.7633    1.9819    5.0259 H       1  UNL1        0.0317
     35 H          -7.4287    2.9976    3.7505 H       1  UNL1        0.0317
     36 H          -6.2279    4.3963    5.3765 H       1  UNL1        0.0269
     37 H          -4.7735    3.4162    5.2059 H       1  UNL1        0.0269
     38 H          -6.0715    5.1529    3.0462 H       1  UNL1        0.0317
     39 H          -4.5407    5.4555    3.8651 H       1  UNL1        0.0317
     40 H          -4.2338    4.4530    1.5672 H       1  UNL1        0.0814
     41 H          -3.5509    3.4205    2.8656 H       1  UNL1        0.0814
     42 H          -3.7592    1.4052   -1.8042 H       1  UNL1        0.0332
     43 H          -2.5422    3.1035   -2.6311 H       1  UNL1        0.0269
     44 H          -2.2460    3.2843   -0.9225 H       1  UNL1        0.0269
     45 H           0.0328    2.4091   -1.1895 H       1  UNL1        0.0265
     46 H          -0.2479    3.6426   -2.3880 H       1  UNL1        0.0265
     47 H           0.9397    1.5946   -3.2435 H       1  UNL1        0.0265
     48 H          -0.4982    2.0357   -4.1538 H       1  UNL1        0.0265
     49 H          -0.2020   -0.2134   -2.1201 H       1  UNL1        0.0265
     50 H          -0.5132   -0.3569   -3.8364 H       1  UNL1        0.0265
     51 H          -2.5774   -0.7396   -2.5252 H       1  UNL1        0.0269
     52 H          -2.7114    0.6003   -3.6392 H       1  UNL1        0.0269
     53 H          -4.0610   -0.5719   -0.9854 H       1  UNL1        0.2106
     54 H          -6.2184    3.1189    1.6415 H       1  UNL1        0.2033
@<TRIPOS>UNITY_ATOM_ATTR
10 1
charge 1
@<TRIPOS>BOND
     1     1     6   ar
     2     1     2   ar
     3     1    23    1
     4     2     3   ar
     5     2    24    1
     6     3     4   ar
     7     3    25    1
     8     4     5   ar
     9     4     7    1
    10     5     6   ar
    11     5    26    1
    12     6    27    1
    13     7     8    1
    14     7    16    1
    15     7    22    1
    16     8     9    1
    17     8    28    1
    18     8    29    1
    19     9    10    1
    20     9    30    1
    21     9    31    1
    22    10    15    1
    23    10    11    1
    24    10    54    1
    25    11    12    1
    26    11    32    1
    27    11    33    1
    28    12    13    1
    29    12    34    1
    30    12    35    1
    31    13    14    1
    32    13    36    1
    33    13    37    1
    34    14    15    1
    35    14    38    1
    36    14    39    1
    37    15    40    1
    38    15    41    1
    39    16    21    1
    40    16    17    1
    41    16    42    1
    42    17    18    1
    43    17    43    1
    44    17    44    1
    45    18    19    1
    46    18    45    1
    47    18    46    1
    48    19    20    1
    49    19    47    1
    50    19    48    1
    51    20    21    1
    52    20    49    1
    53    20    50    1
    54    21    51    1
    55    21    52    1
    56    22    53    1
