@<TRIPOS>MOLECULE
ZINC03787097
 48 51 0 0 0
SMALL
GASTEIGER

@<TRIPOS>ATOM
      1 C           1.2410    1.3536    0.0650 C.ar    1  UNL1       -0.0117
      2 C           0.0357    0.6582    0.0624 C.ar    1  UNL1        0.0503
      3 C          -0.0050   -0.7506   -0.0170 C.ar    1  UNL1        0.0735
      4 C           1.2571   -1.4364   -0.0952 C.ar    1  UNL1        0.0889
      5 C           2.5158   -0.7456   -0.0010 C.ar    1  UNL1        0.0861
      6 C           2.4356    0.6652    0.0438 C.ar    1  UNL1        0.1465
      7 F           3.5533    1.4147    0.0788 F       1  UNL1       -0.2035
      8 N           3.7821   -1.3710    0.0393 N.pl3   1  UNL1       -0.3211
      9 C           4.0080   -2.6150    0.7945 C.3     1  UNL1        0.0125
     10 C           5.1190   -2.4995    1.8507 C.3     1  UNL1       -0.0370
     11 C           6.5277   -2.3395    1.2755 C.3     1  UNL1       -0.0465
     12 C           6.9342   -0.8928    0.9761 C.3     1  UNL1       -0.0083
     13 C           5.8057   -0.0195    0.4336 C.3     1  UNL1       -0.0084
     14 H           5.1946    0.3172    1.2796 H       1  UNL1        0.0865
     15 C           4.9238   -0.7411   -0.6214 C.3     1  UNL1        0.0551
     16 CL          1.3136   -3.1397   -0.5019 Cl      1  UNL1       -0.0794
     17 N          -1.3051   -1.3619   -0.0143 N.ar    1  UNL1       -0.3414
     18 C          -2.4407   -0.5707    0.0802 C.ar    1  UNL1        0.0233
     19 C          -2.4920    0.7655    0.1180 C.ar    1  UNL1        0.1263
     20 C          -1.2043    1.4752    0.1468 C.ar    1  UNL1        0.2036
     21 O          -1.0802    2.6852    0.2949 O.2     1  UNL1       -0.2863
     22 C          -3.8401    1.4615    0.0472 C.2     1  UNL1        0.3916
     23 O          -4.8025    0.8123    0.5603 O.co2   1  UNL1       -0.2404
     24 C          -1.4981   -2.8162   -0.2226 C.3     1  UNL1        0.0347
     25 C          -1.9773   -2.8764   -1.7407 C.3     1  UNL1       -0.0302
     26 C          -2.3428   -3.9235   -0.8403 C.3     1  UNL1       -0.0302
     27 H           1.2530    2.4404    0.1017 H       1  UNL1        0.0654
     28 H           3.1170   -2.9095    1.3581 H       1  UNL1        0.0464
     29 H           4.2464   -3.4260    0.0944 H       1  UNL1        0.0464
     30 H           5.1065   -3.4321    2.4298 H       1  UNL1        0.0280
     31 H           4.8937   -1.6947    2.5588 H       1  UNL1        0.0280
     32 H           6.6307   -2.9486    0.3688 H       1  UNL1        0.0268
     33 H           7.2525   -2.7474    1.9912 H       1  UNL1        0.0268
     34 H           7.7849   -0.9086    0.2826 H       1  UNL1        0.0320
     35 H           7.3084   -0.4357    1.9015 H       1  UNL1        0.0320
     36 H           5.5100   -1.4958   -1.1585 H       1  UNL1        0.0519
     37 H           4.5934   -0.0474   -1.4030 H       1  UNL1        0.0519
     38 H           7.0091    1.0813   -0.9202 H       1  UNL1        0.1997
     39 H           5.6099    1.8497   -0.4378 H       1  UNL1        0.1997
     40 H          -3.3743   -1.1367    0.0742 H       1  UNL1        0.0819
     41 H          -1.7922   -3.0978    0.7906 H       1  UNL1        0.0528
     42 H          -2.7768   -2.2174   -2.0687 H       1  UNL1        0.0286
     43 H          -1.1998   -3.0126   -2.4798 H       1  UNL1        0.0286
     44 H          -1.8555   -4.8869   -0.9654 H       1  UNL1        0.0286
     45 H          -3.3802   -4.0153   -0.5398 H       1  UNL1        0.0286
     46 N           6.3833    1.2410   -0.1243 N.4     1  UNL1        0.2218
     47 H           6.8915    1.7651    0.5966 H       1  UNL1        0.1997
     48 O          -3.8807    2.5484   -0.5904 O.co2   1  UNL1       -0.2404
@<TRIPOS>UNITY_ATOM_ATTR
46 1
charge 1
@<TRIPOS>BOND
     1     1     6   ar
     2     1     2   ar
     3     1    27    1
     4     2    20   ar
     5     2     3   ar
     6     3     4   ar
     7     3    17   ar
     8     4     5   ar
     9     4    16    1
    10     5     6   ar
    11     5     8    1
    12     6     7    1
    13     8    15    1
    14     8     9    1
    15     9    10    1
    16     9    28    1
    17     9    29    1
    18    10    11    1
    19    10    30    1
    20    10    31    1
    21    11    12    1
    22    11    32    1
    23    11    33    1
    24    12    13    1
    25    12    34    1
    26    12    35    1
    27    13    15    1
    28    15    36    1
    29    15    37    1
    30    17    18   ar
    31    17    24    1
    32    18    19   ar
    33    18    40    1
    34    19    20   ar
    35    19    22    1
    36    20    21    2
    37    22    23   ar
    38    22    48   ar
    39    24    26    1
    40    24    25    1
    41    24    41    1
    42    25    26    1
    43    25    42    1
    44    25    43    1
    45    26    44    1
    46    26    45    1
    47    38    46    1
    48    39    46    1
    49    46    47    1
    50    13    46    1
    51    13    14    1
