@<TRIPOS>MOLECULE
ZINC01530866
 64 66 0 0 0
SMALL
GASTEIGER

@<TRIPOS>ATOM
      1 C           1.4595   -6.3035    5.7479 C.3     1  UNL1       -0.0651
      2 C           0.7313   -5.1018    5.1659 C.3     1  UNL1       -0.0511
      3 C          -0.7794   -5.3323    5.1004 C.3     1  UNL1       -0.0128
      4 C          -1.5555   -4.1520    4.5100 C.3     1  UNL1       -0.0319
      5 N          -1.1363   -3.7858    3.0860 N.4     1  UNL1        0.2353
      6 C          -1.3794   -4.9400    2.1187 C.3     1  UNL1       -0.0319
      7 C          -0.9541   -4.6630    0.6728 C.3     1  UNL1       -0.0128
      8 C           0.4960   -4.2199    0.4612 C.3     1  UNL1       -0.0511
      9 C           1.5192   -5.2872    0.8158 C.3     1  UNL1       -0.0651
     10 C          -1.7937   -2.4791    2.6128 C.3     1  UNL1       -0.0292
     11 C          -1.3127   -1.2869    3.4359 C.3     1  UNL1        0.0177
     12 C          -1.8226    0.0498    2.8676 C.3     1  UNL1        0.0856
     13 H          -2.9142    0.0470    2.8530 H       1  UNL1        0.0645
     14 C          -1.2554    1.2334    3.6412 C.ar    1  UNL1       -0.0106
     15 C           0.1446    1.3830    3.5793 C.ar    1  UNL1       -0.0464
     16 C           0.8409    2.4203    4.2101 C.ar    1  UNL1        0.0015
     17 C           0.0888    3.3901    4.9113 C.ar    1  UNL1       -0.0074
     18 C           0.8305    4.4560    5.4867 C.ar    1  UNL1       -0.0350
     19 C           2.2202    4.5434    5.3822 C.ar    1  UNL1        0.0430
     20 C           2.9419    3.5746    4.7207 C.ar    1  UNL1       -0.0244
     21 C           2.2581    2.5121    4.1419 C.ar    1  UNL1        0.0501
     22 CL          3.2311    1.3110    3.3522 Cl      1  UNL1       -0.0829
     23 CL          3.0424    5.8883    6.0826 Cl      1  UNL1       -0.0835
     24 C          -1.3495    3.2668    5.0043 C.ar    1  UNL1       -0.0092
     25 C          -2.0205    2.1700    4.3881 C.ar    1  UNL1       -0.0116
     26 C          -3.4274    2.0700    4.5435 C.ar    1  UNL1       -0.0531
     27 C          -4.1756    3.0247    5.2397 C.ar    1  UNL1       -0.0495
     28 C          -3.5475    4.1230    5.8101 C.ar    1  UNL1        0.0554
     29 C          -2.1501    4.2168    5.6950 C.ar    1  UNL1       -0.0418
     30 C          -4.3255    5.2074    6.5213 C.3     1  UNL1        0.4174
     31 F          -5.6662    4.9762    6.5575 F       1  UNL1       -0.1659
     32 F          -3.9351    5.3626    7.8162 F       1  UNL1       -0.1659
     33 F          -4.1689    6.4240    5.9325 F       1  UNL1       -0.1659
     34 O          -1.4140    0.1276    1.5005 O.3     1  UNL1       -0.3870
     35 H           1.0819   -6.5547    6.7438 H       1  UNL1        0.0230
     36 H           2.5297   -6.0893    5.8332 H       1  UNL1        0.0230
     37 H           1.3415   -7.1798    5.1022 H       1  UNL1        0.0230
     38 H           0.9415   -4.2193    5.7813 H       1  UNL1        0.0264
     39 H           1.1378   -4.9074    4.1694 H       1  UNL1        0.0264
     40 H          -1.0035   -6.2561    4.5572 H       1  UNL1        0.0317
     41 H          -1.1508   -5.4962    6.1210 H       1  UNL1        0.0317
     42 H          -2.6316   -4.3567    4.4883 H       1  UNL1        0.0814
     43 H          -1.3775   -3.2804    5.1437 H       1  UNL1        0.0814
     44 H          -0.8173   -5.7987    2.4930 H       1  UNL1        0.0814
     45 H          -2.4483   -5.1748    2.1655 H       1  UNL1        0.0814
     46 H          -1.1292   -5.5776    0.0918 H       1  UNL1        0.0317
     47 H          -1.6214   -3.9159    0.2285 H       1  UNL1        0.0317
     48 H           0.6257   -3.9634   -0.5980 H       1  UNL1        0.0264
     49 H           0.7077   -3.3058    1.0252 H       1  UNL1        0.0264
     50 H           1.4696   -6.1208    0.1078 H       1  UNL1        0.0230
     51 H           2.5294   -4.8675    0.7676 H       1  UNL1        0.0230
     52 H           1.3706   -5.6826    1.8233 H       1  UNL1        0.0230
     53 H          -1.4866   -2.3342    1.5758 H       1  UNL1        0.0815
     54 H          -2.8778   -2.6173    2.6565 H       1  UNL1        0.0815
     55 H          -1.6299   -1.3608    4.4796 H       1  UNL1        0.0345
     56 H          -0.2154   -1.3131    3.4265 H       1  UNL1        0.0345
     57 H           0.7048    0.6573    2.9916 H       1  UNL1        0.0628
     58 H           0.3319    5.2552    6.0311 H       1  UNL1        0.0638
     59 H           4.0245    3.6427    4.6511 H       1  UNL1        0.0647
     60 H          -3.9909    1.2430    4.1211 H       1  UNL1        0.0624
     61 H          -5.2573    2.9097    5.3201 H       1  UNL1        0.0623
     62 H          -1.6928    5.0851    6.1707 H       1  UNL1        0.0629
     63 H          -1.2986    1.0718    1.2733 H       1  UNL1        0.2102
     64 H          -0.1235   -3.6111    3.0956 H       1  UNL1        0.2033
@<TRIPOS>UNITY_ATOM_ATTR
5 1
charge 1
@<TRIPOS>BOND
     1     1     2    1
     2     1    35    1
     3     1    36    1
     4     1    37    1
     5     2     3    1
     6     2    38    1
     7     2    39    1
     8     3     4    1
     9     3    40    1
    10     3    41    1
    11     4     5    1
    12     4    42    1
    13     4    43    1
    14     5     6    1
    15     5    10    1
    16     5    64    1
    17     6     7    1
    18     6    44    1
    19     6    45    1
    20     7     8    1
    21     7    46    1
    22     7    47    1
    23     8     9    1
    24     8    48    1
    25     8    49    1
    26     9    50    1
    27     9    51    1
    28     9    52    1
    29    10    11    1
    30    10    53    1
    31    10    54    1
    32    11    12    1
    33    11    55    1
    34    11    56    1
    35    12    13    1
    36    12    14    1
    37    12    34    1
    38    14    25   ar
    39    14    15   ar
    40    15    16   ar
    41    15    57    1
    42    16    21   ar
    43    16    17   ar
    44    17    18   ar
    45    17    24   ar
    46    18    19   ar
    47    18    58    1
    48    19    20   ar
    49    19    23    1
    50    20    21   ar
    51    20    59    1
    52    21    22    1
    53    24    29   ar
    54    24    25   ar
    55    25    26   ar
    56    26    27   ar
    57    26    60    1
    58    27    28   ar
    59    27    61    1
    60    28    29   ar
    61    28    30    1
    62    29    62    1
    63    30    31    1
    64    30    32    1
    65    30    33    1
    66    34    63    1
