@<TRIPOS>MOLECULE
ZINC00896463
 46 47 0 0 0
SMALL
GASTEIGER

@<TRIPOS>ATOM
      1 C           1.3628   -4.9459    1.8051 C.3     1  UNL1       -0.0193
      2 C           2.6239   -4.6761    0.9790 C.3     1  UNL1       -0.0203
      3 C           3.5888   -3.7331    1.7045 C.3     1  UNL1       -0.0193
      4 C           3.3400   -6.0114    0.7079 C.3     1  UNL1       -0.0193
      5 N           2.2413   -4.0898   -0.3810 N.4     1  UNL1        0.2327
      6 C           1.5596   -2.7425   -0.4089 C.3     1  UNL1       -0.0033
      7 C           1.2981   -2.2138   -1.8378 C.3     1  UNL1        0.1285
      8 H           2.2286   -2.2412   -2.4161 H       1  UNL1        0.0681
      9 C           0.2022   -2.9569   -2.6265 C.3     1  UNL1        0.1204
     10 O          -0.9627   -3.1306   -1.8178 O.3     1  UNL1       -0.4889
     11 C          -2.0672   -3.6958   -2.4107 C.ar    1  UNL1        0.1256
     12 C          -2.2241   -3.8960   -3.7871 C.ar    1  UNL1       -0.0195
     13 C          -3.3676   -4.5230   -4.2921 C.ar    1  UNL1       -0.0565
     14 C          -4.3638   -4.9713   -3.4306 C.ar    1  UNL1       -0.0400
     15 C          -4.2338   -4.7437   -2.0684 C.ar    1  UNL1        0.0401
     16 C          -3.1032   -4.0875   -1.5417 C.ar    1  UNL1        0.0159
     17 C          -3.0122   -3.9265   -0.0470 C.3     1  UNL1       -0.0142
     18 C          -4.3919   -3.7613    0.5692 C.3     1  UNL1        0.0284
     19 C          -5.3132   -4.8699    0.1219 C.2     1  UNL1        0.2175
     20 O          -6.1481   -5.3762    0.8657 O.2     1  UNL1       -0.2755
     21 N          -5.2328   -5.2045   -1.1997 N.am    1  UNL1       -0.2851
     22 O           0.9552   -0.8288   -1.7022 O.3     1  UNL1       -0.3831
     23 H           1.6304   -5.2197    2.8329 H       1  UNL1        0.0287
     24 H           0.7845   -5.7772    1.3865 H       1  UNL1        0.0287
     25 H           0.7040   -4.0769    1.8736 H       1  UNL1        0.0287
     26 H           3.9671   -4.2002    2.6220 H       1  UNL1        0.0287
     27 H           4.4574   -3.4931    1.0802 H       1  UNL1        0.0287
     28 H           3.1091   -2.7950    1.9989 H       1  UNL1        0.0287
     29 H           2.7957   -6.6248   -0.0187 H       1  UNL1        0.0287
     30 H           4.3541   -5.8559    0.3227 H       1  UNL1        0.0287
     31 H           3.4290   -6.5980    1.6306 H       1  UNL1        0.0287
     32 H           3.1026   -4.0276   -0.9419 H       1  UNL1        0.2020
     33 H           0.6288   -2.8122    0.1593 H       1  UNL1        0.0841
     34 H           2.2195   -2.0395    0.1090 H       1  UNL1        0.0841
     35 H          -0.0396   -2.3580   -3.5117 H       1  UNL1        0.0725
     36 H           0.5754   -3.9418   -2.9298 H       1  UNL1        0.0725
     37 H          -1.4851   -3.5693   -4.5111 H       1  UNL1        0.0654
     38 H          -3.4842   -4.6644   -5.3664 H       1  UNL1        0.0619
     39 H          -5.2419   -5.4688   -3.8375 H       1  UNL1        0.0636
     40 H          -2.4102   -3.0482    0.2149 H       1  UNL1        0.0319
     41 H          -2.5179   -4.8121    0.3637 H       1  UNL1        0.0319
     42 H          -4.8484   -2.8102    0.2639 H       1  UNL1        0.0362
     43 H          -4.3199   -3.7685    1.6610 H       1  UNL1        0.0362
     44 H          -5.9575   -5.8270   -1.5396 H       1  UNL1        0.1548
     45 H           0.6832   -0.4685   -2.5688 H       1  UNL1        0.2102
     46 H           1.6329   -4.7711   -0.8536 H       1  UNL1        0.2020
@<TRIPOS>UNITY_ATOM_ATTR
5 1
charge 1
@<TRIPOS>BOND
     1     1     2    1
     2     1    23    1
     3     1    24    1
     4     1    25    1
     5     2     3    1
     6     2     4    1
     7     2     5    1
     8     3    26    1
     9     3    27    1
    10     3    28    1
    11     4    29    1
    12     4    30    1
    13     4    31    1
    14     5     6    1
    15     5    32    1
    16     5    46    1
    17     6     7    1
    18     6    33    1
    19     6    34    1
    20     7     8    1
    21     7     9    1
    22     7    22    1
    23     9    10    1
    24     9    35    1
    25     9    36    1
    26    10    11    1
    27    11    16   ar
    28    11    12   ar
    29    12    13   ar
    30    12    37    1
    31    13    14   ar
    32    13    38    1
    33    14    15   ar
    34    14    39    1
    35    15    21    1
    36    15    16   ar
    37    16    17    1
    38    17    18    1
    39    17    40    1
    40    17    41    1
    41    18    19    1
    42    18    42    1
    43    18    43    1
    44    19    20    2
    45    19    21   am
    46    21    44    1
    47    22    45    1
