@<TRIPOS>MOLECULE
ZINC01530635
 42 43 0 0 0
SMALL
GASTEIGER

@<TRIPOS>ATOM
      1 C           2.4826   -0.1859   -0.7724 C.3     1  UNL1        0.0332
      2 C           2.1518   -1.5695   -1.2434 C.2     1  UNL1        0.3040
      3 O           2.9348   -2.3014   -1.8239 O.2     1  UNL1       -0.2512
      4 O           0.8756   -1.8943   -0.8866 O.3     1  UNL1       -0.4644
      5 C           0.4615   -3.2184   -1.2574 C.3     1  UNL1        0.0984
      6 C           0.8908   -4.2372   -0.1920 C.3     1  UNL1        0.0291
      7 C           0.3632   -3.9092    1.2312 C.3     1  UNL1       -0.0258
      8 C          -1.1630   -3.8993    1.3640 C.3     1  UNL1        0.0265
      9 N          -1.6740   -3.6172    2.6941 N.ar    1  UNL1       -0.3149
     10 C          -2.6224   -2.6717    2.9951 C.ar    1  UNL1        0.0982
     11 N          -3.1112   -2.8271    4.2091 N.ar    1  UNL1       -0.2326
     12 C          -2.4591   -3.9268    4.7102 C.ar    1  UNL1        0.1260
     13 C          -1.5313   -4.4096    3.8002 C.ar    1  UNL1        0.1653
     14 N          -0.7305   -5.4746    3.9519 N.ar    1  UNL1       -0.1950
     15 C          -0.9101   -6.0774    5.1358 C.ar    1  UNL1        0.2145
     16 N          -1.7976   -5.7379    6.0884 N.ar    1  UNL1       -0.2209
     17 C          -2.5796   -4.6441    5.8915 C.ar    1  UNL1        0.0602
     18 N          -0.1789   -7.2290    5.3552 N.pl3   1  UNL1       -0.3274
     19 C           0.5388   -5.6538   -0.6757 C.3     1  UNL1        0.0984
     20 O           0.9602   -6.6524    0.2644 O.3     1  UNL1       -0.4644
     21 C           2.2765   -7.0008    0.1986 C.2     1  UNL1        0.3040
     22 O           3.0932   -6.5408   -0.5847 O.2     1  UNL1       -0.2512
     23 C           2.5856   -8.0766    1.1941 C.3     1  UNL1        0.0332
     24 H           3.2287    0.2491   -1.4430 H       1  UNL1        0.0342
     25 H           2.8750   -0.2310    0.2459 H       1  UNL1        0.0342
     26 H           1.5942    0.4489   -0.8046 H       1  UNL1        0.0342
     27 H          -0.6280   -3.1980   -1.3654 H       1  UNL1        0.0701
     28 H           0.8564   -3.4806   -2.2471 H       1  UNL1        0.0701
     29 H           1.9828   -4.1809   -0.1004 H       1  UNL1        0.0367
     30 H           0.7928   -4.6345    1.9326 H       1  UNL1        0.0287
     31 H           0.7565   -2.9339    1.5448 H       1  UNL1        0.0287
     32 H          -1.5919   -3.1448    0.6963 H       1  UNL1        0.0493
     33 H          -1.5860   -4.8694    1.0837 H       1  UNL1        0.0493
     34 H          -2.9505   -1.9233    2.2841 H       1  UNL1        0.1029
     35 H          -3.3003   -4.4020    6.6618 H       1  UNL1        0.0853
     36 H           0.1069   -7.6049    4.4617 H       1  UNL1        0.1452
     37 H          -0.7161   -7.8390    5.9569 H       1  UNL1        0.1452
     38 H          -0.5440   -5.7656   -0.7968 H       1  UNL1        0.0701
     39 H           0.9760   -5.8572   -1.6618 H       1  UNL1        0.0701
     40 H           1.8635   -8.0608    2.0150 H       1  UNL1        0.0342
     41 H           2.5563   -9.0489    0.6970 H       1  UNL1        0.0342
     42 H           3.5775   -7.8989    1.6185 H       1  UNL1        0.0342
@<TRIPOS>BOND
     1     1     2    1
     2     1    24    1
     3     1    25    1
     4     1    26    1
     5     2     3    2
     6     2     4    1
     7     4     5    1
     8     5     6    1
     9     5    27    1
    10     5    28    1
    11     6     7    1
    12     6    19    1
    13     6    29    1
    14     7     8    1
    15     7    30    1
    16     7    31    1
    17     8     9    1
    18     8    32    1
    19     8    33    1
    20     9    13   ar
    21     9    10   ar
    22    10    11   ar
    23    10    34    1
    24    11    12   ar
    25    12    17   ar
    26    12    13   ar
    27    13    14   ar
    28    14    15   ar
    29    15    16   ar
    30    15    18    1
    31    16    17   ar
    32    17    35    1
    33    18    36    1
    34    18    37    1
    35    19    20    1
    36    19    38    1
    37    19    39    1
    38    20    21    1
    39    21    22    2
    40    21    23    1
    41    23    40    1
    42    23    41    1
    43    23    42    1
