@<TRIPOS>MOLECULE
ZINC01482164
 31 31 0 0 0
SMALL
GASTEIGER

@<TRIPOS>ATOM
      1 C          -2.6231   -1.1800   -0.1612 C.3     1  UNL1       -0.0623
      2 C          -1.3869   -0.4027    0.2817 C.3     1  UNL1       -0.0415
      3 H          -1.4089   -0.3369    1.3765 H       1  UNL1        0.0299
      4 C          -1.4011    1.0144   -0.2950 C.3     1  UNL1       -0.0500
      5 C          -0.1830    1.8115    0.1649 C.3     1  UNL1       -0.0474
      6 C           1.1542    1.1201   -0.1492 C.3     1  UNL1       -0.0126
      7 H           1.2683    1.1067   -1.2449 H       1  UNL1        0.0328
      8 C           1.1436   -0.3614    0.3115 C.3     1  UNL1        0.0585
      9 H           1.1949   -0.4340    1.4045 H       1  UNL1        0.0596
     10 C          -0.1045   -1.1163   -0.1447 C.3     1  UNL1       -0.0240
     11 O           2.2712   -1.0480   -0.2300 O.3     1  UNL1       -0.3915
     12 C           2.3774    1.9242    0.4012 C.3     1  UNL1       -0.0415
     13 C           2.4699    3.3347   -0.2037 C.3     1  UNL1       -0.0623
     14 C           2.4130    2.0484    1.9262 C.3     1  UNL1       -0.0623
     15 H          -2.6605   -1.2842   -1.2520 H       1  UNL1        0.0232
     16 H          -2.6259   -2.1841    0.2748 H       1  UNL1        0.0232
     17 H          -3.5384   -0.6724    0.1612 H       1  UNL1        0.0232
     18 H          -1.4138    0.9748   -1.3942 H       1  UNL1        0.0268
     19 H          -2.3096    1.5391    0.0151 H       1  UNL1        0.0268
     20 H          -0.2278    2.7930   -0.3125 H       1  UNL1        0.0269
     21 H          -0.2722    1.9775    1.2462 H       1  UNL1        0.0269
     22 H          -0.0833   -2.1328    0.2713 H       1  UNL1        0.0293
     23 H          -0.0824   -1.2479   -1.2346 H       1  UNL1        0.0293
     24 H           2.9722   -1.0485    0.4461 H       1  UNL1        0.2098
     25 H           3.2892    1.3923    0.0957 H       1  UNL1        0.0299
     26 H           1.5832    3.9407    0.0156 H       1  UNL1        0.0232
     27 H           3.3302    3.8791    0.2021 H       1  UNL1        0.0232
     28 H           2.5878    3.2902   -1.2911 H       1  UNL1        0.0232
     29 H           2.2563    1.0884    2.4275 H       1  UNL1        0.0232
     30 H           3.3933    2.4199    2.2522 H       1  UNL1        0.0232
     31 H           1.6593    2.7529    2.2957 H       1  UNL1        0.0232
@<TRIPOS>BOND
     1     1     2    1
     2     1    15    1
     3     1    16    1
     4     1    17    1
     5     2     3    1
     6     2    10    1
     7     2     4    1
     8     4     5    1
     9     4    18    1
    10     4    19    1
    11     5     6    1
    12     5    20    1
    13     5    21    1
    14     6     7    1
    15     6     8    1
    16     6    12    1
    17     8     9    1
    18     8    10    1
    19     8    11    1
    20    10    22    1
    21    10    23    1
    22    11    24    1
    23    12    13    1
    24    12    14    1
    25    12    25    1
    26    13    26    1
    27    13    27    1
    28    13    28    1
    29    14    29    1
    30    14    30    1
    31    14    31    1
