@<TRIPOS>MOLECULE
ZINC03806104
 66 67 0 0 0
SMALL
GASTEIGER

@<TRIPOS>ATOM
      1 C          -7.0886   -1.9682   -2.4769 C.3     1  UNL1       -0.0652
      2 C          -7.5138   -0.5385   -2.1788 C.3     1  UNL1       -0.0544
      3 C          -8.2977   -0.3702   -0.8819 C.3     1  UNL1       -0.0324
      4 C          -7.5999   -0.7914    0.4116 C.3     1  UNL1        0.0817
      5 S          -6.1928    0.1477    1.0074 S.O2    1  UNL1        0.0301
      6 O          -6.4950    1.5596    0.8438 O.2     1  UNL1       -0.1582
      7 O          -5.8921   -0.3874    2.3093 O.2     1  UNL1       -0.1582
      8 N          -4.8894   -0.1990    0.0298 N.3     1  UNL1       -0.1803
      9 C          -3.5458    0.5320    0.2975 C.3     1  UNL1        0.1333
     10 H          -3.7689    1.6093    0.2793 H       1  UNL1        0.0597
     11 C          -2.8492    0.1798    1.6323 C.3     1  UNL1       -0.0001
     12 C          -2.3153   -1.2336    1.7659 C.ar    1  UNL1       -0.0451
     13 C          -2.9710   -2.2999    1.1516 C.ar    1  UNL1       -0.0551
     14 C          -2.3779   -3.5472    1.0549 C.ar    1  UNL1       -0.0197
     15 C          -1.1031   -3.7547    1.5590 C.ar    1  UNL1        0.1205
     16 C          -0.5178   -2.7661    2.3506 C.ar    1  UNL1       -0.0197
     17 C          -1.1240   -1.5052    2.4555 C.ar    1  UNL1       -0.0551
     18 O          -0.3560   -4.8667    1.2654 O.3     1  UNL1       -0.4920
     19 C          -0.6242   -5.4588   -0.0224 C.3     1  UNL1        0.0896
     20 C          -0.2261   -4.5475   -1.1956 C.3     1  UNL1       -0.0186
     21 C          -0.4419   -5.1601   -2.5833 C.3     1  UNL1       -0.0497
     22 C          -1.8848   -5.5293   -2.9625 C.3     1  UNL1       -0.0497
     23 C          -2.9120   -4.3719   -2.9892 C.3     1  UNL1       -0.0314
     24 C          -4.3252   -4.8945   -3.3209 C.3     1  UNL1       -0.0096
     25 C          -4.4698   -5.3436   -4.7680 C.3     1  UNL1       -0.0334
     26 N          -4.0391   -4.2517   -5.6876 N.4     1  UNL1        0.2270
     27 C          -2.6662   -3.7104   -5.4306 C.3     1  UNL1       -0.0334
     28 C          -2.5614   -3.2551   -3.9853 C.3     1  UNL1       -0.0096
     29 C          -2.5728    0.2964   -0.9092 C.2     1  UNL1        0.3745
     30 O          -1.4313    0.8432   -0.8397 O.co2   1  UNL1       -0.2445
     31 O          -3.0751   -0.3714   -1.8728 O.co2   1  UNL1       -0.2445
     32 H          -6.9109   -2.5618   -1.5776 H       1  UNL1        0.0230
     33 H          -6.1646   -1.9628   -3.0629 H       1  UNL1        0.0230
     34 H          -7.8521   -2.4827   -3.0710 H       1  UNL1        0.0230
     35 H          -6.6436    0.1211   -2.1662 H       1  UNL1        0.0263
     36 H          -8.1365   -0.1895   -3.0134 H       1  UNL1        0.0263
     37 H          -8.6298    0.6721   -0.8057 H       1  UNL1        0.0281
     38 H          -9.2171   -0.9667   -0.9703 H       1  UNL1        0.0281
     39 H          -8.3450   -0.6395    1.2113 H       1  UNL1        0.0515
     40 H          -7.3534   -1.8517    0.4384 H       1  UNL1        0.0515
     41 H          -5.0041   -0.1547   -0.9930 H       1  UNL1        0.1485
     42 H          -1.9914    0.8616    1.7388 H       1  UNL1        0.0334
     43 H          -3.5000    0.3987    2.4848 H       1  UNL1        0.0334
     44 H          -3.9201   -2.1638    0.6547 H       1  UNL1        0.0621
     45 H          -2.9187   -4.3039    0.5039 H       1  UNL1        0.0654
     46 H           0.4441   -2.9404    2.8250 H       1  UNL1        0.0654
     47 H          -0.6216   -0.7168    3.0131 H       1  UNL1        0.0621
     48 H          -0.0244   -6.3752   -0.0677 H       1  UNL1        0.0696
     49 H          -1.6636   -5.7960   -0.0857 H       1  UNL1        0.0696
     50 H          -0.7437   -3.5841   -1.1457 H       1  UNL1        0.0298
     51 H           0.8378   -4.3006   -1.0849 H       1  UNL1        0.0298
     52 H          -0.0404   -4.4675   -3.3328 H       1  UNL1        0.0266
     53 H           0.1709   -6.0667   -2.6624 H       1  UNL1        0.0266
     54 H          -1.8412   -6.0043   -3.9498 H       1  UNL1        0.0268
     55 H          -2.2445   -6.3101   -2.2821 H       1  UNL1        0.0268
     56 H          -2.9548   -3.9320   -1.9868 H       1  UNL1        0.0304
     57 H          -4.5981   -5.7167   -2.6495 H       1  UNL1        0.0319
     58 H          -5.0500   -4.0930   -3.1320 H       1  UNL1        0.0319
     59 H          -3.8654   -6.2265   -4.9976 H       1  UNL1        0.0814
     60 H          -5.5145   -5.5654   -5.0109 H       1  UNL1        0.0814
     61 H          -4.7034   -3.4673   -5.6138 H       1  UNL1        0.2013
     62 H          -2.5250   -2.8784   -6.1265 H       1  UNL1        0.0814
     63 H          -1.9541   -4.5030   -5.6799 H       1  UNL1        0.0814
     64 H          -3.2566   -2.4186   -3.8338 H       1  UNL1        0.0319
     65 H          -1.5611   -2.8565   -3.7926 H       1  UNL1        0.0319
     66 H          -4.0917   -4.5791   -6.6588 H       1  UNL1        0.2013
@<TRIPOS>UNITY_ATOM_ATTR
26 1
charge 1
@<TRIPOS>BOND
     1     1     2    1
     2     1    32    1
     3     1    33    1
     4     1    34    1
     5     2     3    1
     6     2    35    1
     7     2    36    1
     8     3     4    1
     9     3    37    1
    10     3    38    1
    11     4     5    1
    12     4    39    1
    13     4    40    1
    14     5     6    2
    15     5     7    2
    16     5     8    1
    17     8     9    1
    18     8    41    1
    19     9    10    1
    20     9    11    1
    21     9    29    1
    22    11    12    1
    23    11    42    1
    24    11    43    1
    25    12    17   ar
    26    12    13   ar
    27    13    14   ar
    28    13    44    1
    29    14    15   ar
    30    14    45    1
    31    15    16   ar
    32    15    18    1
    33    16    17   ar
    34    16    46    1
    35    17    47    1
    36    18    19    1
    37    19    20    1
    38    19    48    1
    39    19    49    1
    40    20    21    1
    41    20    50    1
    42    20    51    1
    43    21    22    1
    44    21    52    1
    45    21    53    1
    46    22    23    1
    47    22    54    1
    48    22    55    1
    49    23    28    1
    50    23    24    1
    51    23    56    1
    52    24    25    1
    53    24    57    1
    54    24    58    1
    55    25    26    1
    56    25    59    1
    57    25    60    1
    58    26    27    1
    59    26    61    1
    60    26    66    1
    61    27    28    1
    62    27    62    1
    63    27    63    1
    64    28    64    1
    65    28    65    1
    66    29    30   ar
    67    29    31   ar
