@<TRIPOS>MOLECULE
ZINC00538159
 50 53 0 0 0
SMALL
GASTEIGER

@<TRIPOS>ATOM
      1 C           2.5602    0.4817   -6.4712 C.ar    1  UNL1       -0.0599
      2 C           2.7848   -0.8815   -6.5638 C.ar    1  UNL1       -0.0606
      3 C           3.1623   -1.5744   -5.4250 C.ar    1  UNL1       -0.0462
      4 C           3.3147   -0.9116   -4.1897 C.ar    1  UNL1        0.0341
      5 C           3.0905    0.4799   -4.0581 C.ar    1  UNL1        0.0479
      6 C           2.7058    1.1457   -5.2417 C.ar    1  UNL1       -0.0393
      7 N           3.2181    1.1536   -2.8016 N.pl3   1  UNL1       -0.2981
      8 C           3.4875    0.4961   -1.5601 C.ar    1  UNL1        0.0491
      9 C           3.4962    1.1920   -0.3358 C.ar    1  UNL1       -0.0219
     10 C           3.7090    0.5524    0.8954 C.ar    1  UNL1        0.0536
     11 C           3.9254   -0.8128    0.9561 C.ar    1  UNL1       -0.0432
     12 C           3.9432   -1.5312   -0.2297 C.ar    1  UNL1       -0.0450
     13 C           3.7258   -0.8930   -1.4704 C.ar    1  UNL1        0.0342
     14 S           3.8248   -1.9696   -2.8664 S.3     1  UNL1       -0.0857
     15 C           3.6699    1.3295    2.0891 C.1     1  UNL1        0.0992
     16 N           3.6059    2.0222    3.0110 N.1     1  UNL1       -0.1909
     17 C           3.2773    2.6433   -2.8042 C.3     1  UNL1        0.0221
     18 C           1.9175    3.3122   -2.4533 C.3     1  UNL1        0.0036
     19 C           2.0830    4.8354   -2.2961 C.3     1  UNL1       -0.0304
     20 N           0.7546    5.5848   -2.2094 N.4     1  UNL1        0.2354
     21 C           0.8601    7.0328   -2.6724 C.3     1  UNL1       -0.0295
     22 C           1.4587    7.9077   -1.5822 C.3     1  UNL1        0.0137
     23 C           0.5736    7.8938   -0.3464 C.3     1  UNL1        0.0649
     24 C           0.3854    6.4701    0.1609 C.3     1  UNL1        0.0137
     25 C          -0.0555    5.4891   -0.9270 C.3     1  UNL1       -0.0295
     26 O          -0.6953    8.4354   -0.6991 O.3     1  UNL1       -0.3914
     27 H           2.2661    1.0324   -7.3607 H       1  UNL1        0.0618
     28 H           2.6678   -1.4070   -7.5091 H       1  UNL1        0.0618
     29 H           3.3413   -2.6475   -5.5021 H       1  UNL1        0.0629
     30 H           2.4887    2.2063   -5.2585 H       1  UNL1        0.0636
     31 H           3.3274    2.2613   -0.2897 H       1  UNL1        0.0649
     32 H           4.0883   -1.3247    1.9031 H       1  UNL1        0.0631
     33 H           4.1213   -2.6074   -0.1865 H       1  UNL1        0.0630
     34 H           4.0590    2.9954   -2.1175 H       1  UNL1        0.0470
     35 H           3.6371    3.0301   -3.7653 H       1  UNL1        0.0470
     36 H           1.1928    3.0873   -3.2444 H       1  UNL1        0.0332
     37 H           1.5081    2.8922   -1.5292 H       1  UNL1        0.0332
     38 H           2.6769    5.1029   -1.4173 H       1  UNL1        0.0815
     39 H           2.5836    5.2168   -3.1932 H       1  UNL1        0.0815
     40 H          -0.1537    7.3495   -2.9425 H       1  UNL1        0.0815
     41 H           1.4685    7.0500   -3.5817 H       1  UNL1        0.0815
     42 H           1.5432    8.9321   -1.9638 H       1  UNL1        0.0342
     43 H           2.4692    7.5711   -1.3230 H       1  UNL1        0.0342
     44 H           1.0100    8.5301    0.4329 H       1  UNL1        0.0597
     45 H           1.3133    6.1196    0.6242 H       1  UNL1        0.0342
     46 H          -0.3856    6.4744    0.9437 H       1  UNL1        0.0342
     47 H          -0.0107    4.4557   -0.5727 H       1  UNL1        0.0815
     48 H          -1.0924    5.7010   -1.2161 H       1  UNL1        0.0815
     49 H          -1.0711    8.8733    0.0911 H       1  UNL1        0.2098
     50 H           0.1524    5.1443   -2.9185 H       1  UNL1        0.2033
@<TRIPOS>UNITY_ATOM_ATTR
20 1
charge 1
@<TRIPOS>BOND
     1     1     6   ar
     2     1     2   ar
     3     1    27    1
     4     2     3   ar
     5     2    28    1
     6     3     4   ar
     7     3    29    1
     8     4    14    1
     9     4     5   ar
    10     5     6   ar
    11     5     7    1
    12     6    30    1
    13     7     8    1
    14     7    17    1
    15     8    13   ar
    16     8     9   ar
    17     9    10   ar
    18     9    31    1
    19    10    11   ar
    20    10    15    1
    21    11    12   ar
    22    11    32    1
    23    12    13   ar
    24    12    33    1
    25    13    14    1
    26    15    16    3
    27    17    18    1
    28    17    34    1
    29    17    35    1
    30    18    19    1
    31    18    36    1
    32    18    37    1
    33    19    38    1
    34    19    39    1
    35    20    25    1
    36    20    21    1
    37    21    22    1
    38    21    40    1
    39    21    41    1
    40    22    23    1
    41    22    42    1
    42    22    43    1
    43    23    24    1
    44    24    25    1
    45    24    45    1
    46    24    46    1
    47    25    47    1
    48    25    48    1
    49    26    49    1
    50    20    50    1
    51    20    19    1
    52    23    44    1
    53    23    26    1
