@<TRIPOS>MOLECULE
ZINC00000655
 47 50 0 0 0
SMALL
GASTEIGER

@<TRIPOS>ATOM
      1 C           3.5484   -0.1853   -0.5427 C.ar    1  UNL1       -0.0615
      2 C           3.0775   -1.3670    0.0169 C.ar    1  UNL1       -0.0614
      3 C           1.7629   -1.4483    0.4802 C.ar    1  UNL1       -0.0565
      4 C           0.8827   -0.3563    0.3757 C.ar    1  UNL1       -0.0223
      5 C           1.3927    0.8622   -0.1367 C.ar    1  UNL1       -0.0409
      6 C           2.7107    0.9278   -0.6176 C.ar    1  UNL1       -0.0582
      7 C           0.5300    2.0981   -0.2053 C.3     1  UNL1       -0.0115
      8 C          -0.6074    2.0377    0.8094 C.3     1  UNL1        0.0194
      9 N          -1.3232    0.7780    0.6530 N.am    1  UNL1       -0.2913
     10 C          -0.5439   -0.4473    0.9284 C.3     1  UNL1        0.0672
     11 H          -0.4044   -0.4394    2.0203 H       1  UNL1        0.0566
     12 C          -1.3116   -1.7604    0.6015 C.3     1  UNL1        0.0380
     13 N          -2.2839   -1.5994   -0.4792 N.am    1  UNL1       -0.2903
     14 C          -3.2532   -0.5419   -0.2257 C.3     1  UNL1        0.0913
     15 C          -2.6128    0.7939    0.1548 C.2     1  UNL1        0.2335
     16 O          -3.2839    1.8267    0.0888 O.2     1  UNL1       -0.2739
     17 C          -2.2108   -2.4203   -1.5925 C.2     1  UNL1        0.2191
     18 O          -1.3596   -3.3106   -1.6479 O.2     1  UNL1       -0.2753
     19 C          -3.1791   -2.1967   -2.7745 C.3     1  UNL1        0.0358
     20 C          -2.7318   -2.9634   -4.0376 C.3     1  UNL1       -0.0419
     21 C          -2.9913   -4.4714   -3.9785 C.3     1  UNL1       -0.0524
     22 C          -4.4068   -4.8342   -3.5429 C.3     1  UNL1       -0.0530
     23 C          -4.9043   -4.0290   -2.3530 C.3     1  UNL1       -0.0524
     24 C          -4.6480   -2.5347   -2.4878 C.3     1  UNL1       -0.0419
     25 H           4.5692   -0.1254   -0.9101 H       1  UNL1        0.0618
     26 H           3.7335   -2.2295    0.0962 H       1  UNL1        0.0618
     27 H           1.4444   -2.3830    0.9337 H       1  UNL1        0.0621
     28 H           3.0973    1.8498   -1.0416 H       1  UNL1        0.0620
     29 H           0.1278    2.1794   -1.2218 H       1  UNL1        0.0328
     30 H           1.1337    2.9935   -0.0078 H       1  UNL1        0.0328
     31 H          -1.2683    2.8964    0.6651 H       1  UNL1        0.0468
     32 H          -0.2263    2.0813    1.8375 H       1  UNL1        0.0468
     33 H          -1.8986   -2.0467    1.4839 H       1  UNL1        0.0486
     34 H          -0.6404   -2.5997    0.4089 H       1  UNL1        0.0486
     35 H          -3.8781   -0.3533   -1.0970 H       1  UNL1        0.0560
     36 H          -3.8882   -0.8672    0.6064 H       1  UNL1        0.0560
     37 H          -3.1037   -1.1277   -3.0216 H       1  UNL1        0.0394
     38 H          -3.2735   -2.5556   -4.9013 H       1  UNL1        0.0272
     39 H          -1.6664   -2.7901   -4.2315 H       1  UNL1        0.0272
     40 H          -2.2753   -4.9467   -3.2976 H       1  UNL1        0.0265
     41 H          -2.7998   -4.9071   -4.9676 H       1  UNL1        0.0265
     42 H          -4.4449   -5.9015   -3.2983 H       1  UNL1        0.0265
     43 H          -5.0887   -4.6869   -4.3891 H       1  UNL1        0.0265
     44 H          -4.4310   -4.3994   -1.4319 H       1  UNL1        0.0265
     45 H          -5.9858   -4.1968   -2.2383 H       1  UNL1        0.0265
     46 H          -5.0166   -2.0437   -1.5831 H       1  UNL1        0.0272
     47 H          -5.2587   -2.1477   -3.3147 H       1  UNL1        0.0272
@<TRIPOS>BOND
     1     1     6   ar
     2     1     2   ar
     3     1    25    1
     4     2     3   ar
     5     2    26    1
     6     3     4   ar
     7     3    27    1
     8     4    10    1
     9     4     5   ar
    10     5     6   ar
    11     5     7    1
    12     6    28    1
    13     7     8    1
    14     7    29    1
    15     7    30    1
    16     8     9    1
    17     8    31    1
    18     8    32    1
    19     9    15   am
    20     9    10    1
    21    10    11    1
    22    10    12    1
    23    12    13    1
    24    12    33    1
    25    12    34    1
    26    13    14    1
    27    13    17   am
    28    14    15    1
    29    14    35    1
    30    14    36    1
    31    15    16    2
    32    17    18    2
    33    17    19    1
    34    19    24    1
    35    19    20    1
    36    19    37    1
    37    20    21    1
    38    20    38    1
    39    20    39    1
    40    21    22    1
    41    21    40    1
    42    21    41    1
    43    22    23    1
    44    22    42    1
    45    22    43    1
    46    23    24    1
    47    23    44    1
    48    23    45    1
    49    24    46    1
    50    24    47    1
