@<TRIPOS>MOLECULE
ZINC00000404
 40 42 0 0 0
SMALL
GASTEIGER

@<TRIPOS>ATOM
      1 C           1.2506   -1.2958   -1.5820 C.3     1  UNL1       -0.0201
      2 C           0.5496   -0.9599   -0.2678 C.3     1  UNL1       -0.0078
      3 H           0.8102    0.0716   -0.0334 H       1  UNL1        0.0864
      4 C          -1.0068   -1.1293   -0.3451 C.3     1  UNL1        0.0613
      5 N          -1.6448   -0.1887   -1.2958 N.pl3   1  UNL1       -0.2779
      6 C          -2.2979   -0.6549   -2.4627 C.ar    1  UNL1        0.0491
      7 C          -2.6934   -1.9996   -2.6300 C.ar    1  UNL1       -0.0392
      8 C          -3.3294   -2.4592   -3.7925 C.ar    1  UNL1       -0.0599
      9 C          -3.6152   -1.5817   -4.8236 C.ar    1  UNL1       -0.0606
     10 C          -3.2753   -0.2433   -4.6840 C.ar    1  UNL1       -0.0462
     11 C          -2.6278    0.2215   -3.5227 C.ar    1  UNL1        0.0342
     12 S          -2.2510    1.9606   -3.5160 S.3     1  UNL1       -0.0841
     13 C          -1.6294    2.2053   -1.8800 C.ar    1  UNL1        0.0530
     14 C          -1.4303    1.1773   -0.9501 C.ar    1  UNL1        0.1395
     15 N          -0.9443    1.4535    0.2977 N.ar    1  UNL1       -0.2388
     16 C          -0.6174    2.7313    0.6038 C.ar    1  UNL1        0.0298
     17 C          -0.7302    3.7810   -0.2793 C.ar    1  UNL1       -0.0424
     18 C          -1.2563    3.5112   -1.5335 C.ar    1  UNL1       -0.0432
     19 C           1.1315   -3.2514    0.7986 C.3     1  UNL1       -0.0430
     20 C           2.4993   -1.2373    1.3276 C.3     1  UNL1       -0.0430
     21 H           0.8476   -0.6853   -2.3973 H       1  UNL1        0.0285
     22 H           1.1290   -2.3430   -1.8680 H       1  UNL1        0.0285
     23 H           2.3199   -1.0702   -1.5239 H       1  UNL1        0.0285
     24 H          -1.1969   -2.1763   -0.5884 H       1  UNL1        0.0524
     25 H          -1.4530   -0.9938    0.6504 H       1  UNL1        0.0524
     26 H          -2.5649   -2.7414   -1.8507 H       1  UNL1        0.0636
     27 H          -3.6148   -3.5053   -3.8824 H       1  UNL1        0.0618
     28 H          -4.1138   -1.9294   -5.7252 H       1  UNL1        0.0618
     29 H          -3.5200    0.4445   -5.4926 H       1  UNL1        0.0629
     30 H          -0.2316    2.8900    1.6075 H       1  UNL1        0.0830
     31 H          -0.4237    4.7845   -0.0046 H       1  UNL1        0.0633
     32 H          -1.3637    4.3243   -2.2494 H       1  UNL1        0.0630
     33 H           1.6671   -3.5431   -0.1084 H       1  UNL1        0.0777
     34 H           1.6324   -3.6685    1.6746 H       1  UNL1        0.0777
     35 H           0.0931   -3.5869    0.7751 H       1  UNL1        0.0777
     36 H           2.4316   -0.1538    1.4551 H       1  UNL1        0.0777
     37 H           2.7600   -1.6990    2.2840 H       1  UNL1        0.0777
     38 H           3.2252   -1.5040    0.5572 H       1  UNL1        0.0777
     39 N           1.1382   -1.7517    0.9226 N.4     1  UNL1        0.2340
     40 H           0.5373   -1.5149    1.7245 H       1  UNL1        0.2031
@<TRIPOS>UNITY_ATOM_ATTR
39 1
charge 1
@<TRIPOS>BOND
     1     1     2    1
     2     1    21    1
     3     1    22    1
     4     1    23    1
     5     2     3    1
     6     2     4    1
     7     2    39    1
     8     4     5    1
     9     4    24    1
    10     4    25    1
    11     5    14    1
    12     5     6    1
    13     6    11   ar
    14     6     7   ar
    15     7     8   ar
    16     7    26    1
    17     8     9   ar
    18     8    27    1
    19     9    10   ar
    20     9    28    1
    21    10    11   ar
    22    10    29    1
    23    11    12    1
    24    12    13    1
    25    13    18   ar
    26    13    14   ar
    27    14    15   ar
    28    15    16   ar
    29    16    17   ar
    30    16    30    1
    31    17    18   ar
    32    17    31    1
    33    18    32    1
    34    19    33    1
    35    19    34    1
    36    19    35    1
    37    19    39    1
    38    20    36    1
    39    20    37    1
    40    20    38    1
    41    20    39    1
    42    39    40    1
