@<TRIPOS>MOLECULE
ZINC03812983
 41 45 0 0 0
SMALL
GASTEIGER

@<TRIPOS>ATOM
      1 C           3.3009    1.6632    1.9400 C.3     1  UNL1       -0.0428
      2 C           1.6687    0.8079    0.2019 C.3     1  UNL1       -0.0309
      3 C           0.8515    1.2091   -1.0403 C.3     1  UNL1        0.0015
      4 C           0.0832    2.5567   -0.9025 C.3     1  UNL1        0.0553
      5 C          -0.9939    2.3010    0.0974 C.ar    1  UNL1        0.0120
      6 C          -0.7847    2.1665    1.4510 C.ar    1  UNL1       -0.0345
      7 C          -1.6949    1.3587    2.1324 C.ar    1  UNL1       -0.0544
      8 C          -2.8217    0.8364    1.4556 C.ar    1  UNL1       -0.0162
      9 C          -3.0931    1.1994    0.1353 C.ar    1  UNL1        0.1588
     10 C          -2.1560    1.9405   -0.5405 C.ar    1  UNL1        0.1663
     11 O          -2.1647    2.2830   -1.8615 O.3     1  UNL1       -0.4811
     12 C          -0.8374    2.8719   -2.1060 C.3     1  UNL1        0.1402
     13 H          -0.4755    2.3749   -3.0153 H       1  UNL1        0.0772
     14 C          -0.9245    4.3828   -2.4004 C.3     1  UNL1        0.1110
     15 H          -0.1157    4.6051   -3.1137 H       1  UNL1        0.0675
     16 C          -0.6210    5.2983   -1.2453 C.2     1  UNL1       -0.0558
     17 C           0.4300    5.0289   -0.4493 C.2     1  UNL1       -0.0761
     18 C           1.0441    3.6557   -0.4188 C.3     1  UNL1        0.0339
     19 H           1.9115    3.6937   -1.0984 H       1  UNL1        0.0408
     20 C           1.5302    3.2234    0.9992 C.3     1  UNL1       -0.0097
     21 H           2.1960    3.9903    1.4154 H       1  UNL1        0.0860
     22 C           0.3881    2.9078    2.0343 C.3     1  UNL1        0.0165
     23 O          -2.1042    4.8037   -3.0493 O.3     1  UNL1       -0.3841
     24 O          -4.2237    0.7520   -0.4629 O.3     1  UNL1       -0.5033
     25 H           2.6864    1.4843    2.8236 H       1  UNL1        0.0778
     26 H           3.9681    2.5169    2.0991 H       1  UNL1        0.0778
     27 H           3.8882    0.7768    1.6905 H       1  UNL1        0.0778
     28 H           1.0548    0.3892    1.0023 H       1  UNL1        0.0815
     29 H           2.4108    0.0505   -0.0686 H       1  UNL1        0.0815
     30 H           1.5248    1.2737   -1.8973 H       1  UNL1        0.0327
     31 H           0.1540    0.3846   -1.2563 H       1  UNL1        0.0327
     32 H          -1.5380    1.0849    3.1729 H       1  UNL1        0.0622
     33 H          -3.4935    0.1458    1.9640 H       1  UNL1        0.0655
     34 H          -1.1288    6.2571   -1.1921 H       1  UNL1        0.0596
     35 H           0.8737    5.8350    0.1325 H       1  UNL1        0.0575
     36 H           0.0015    3.8673    2.4062 H       1  UNL1        0.0368
     37 H           0.7719    2.3706    2.9044 H       1  UNL1        0.0368
     38 H          -2.8322    4.2470   -2.6812 H       1  UNL1        0.2104
     39 H          -4.2874    1.1946   -1.3327 H       1  UNL1        0.2923
     40 N           2.4240    1.9911    0.7606 N.4     1  UNL1        0.2359
     41 H           3.0976    2.2541    0.0285 H       1  UNL1        0.2034
@<TRIPOS>UNITY_ATOM_ATTR
40 1
charge 1
@<TRIPOS>BOND
     1     1    25    1
     2     1    26    1
     3     1    27    1
     4     2     3    1
     5     2    28    1
     6     2    29    1
     7     2    40    1
     8     3     4    1
     9     3    30    1
    10     3    31    1
    11     4    12    1
    12     4    18    1
    13     4     5    1
    14     5    10   ar
    15     5     6   ar
    16     6    22    1
    17     6     7   ar
    18     7     8   ar
    19     7    32    1
    20     8     9   ar
    21     8    33    1
    22     9    10   ar
    23     9    24    1
    24    10    11    1
    25    11    12    1
    26    12    13    1
    27    12    14    1
    28    14    16    1
    29    16    17    2
    30    16    34    1
    31    17    18    1
    32    17    35    1
    33    18    19    1
    34    18    20    1
    35    20    21    1
    36    20    22    1
    37    20    40    1
    38    22    36    1
    39    22    37    1
    40    23    38    1
    41    24    39    1
    42    14    23    1
    43    14    15    1
    44    40    41    1
    45    40     1    1
