@<TRIPOS>MOLECULE
ZINC00000267
 18 17 0 0 0
SMALL
GASTEIGER

@<TRIPOS>ATOM
      1 C           0.9065   -2.6072   -0.2569 C.3     1  UNL1       -0.0614
      2 C           0.4388   -2.2875   -1.6735 C.3     1  UNL1       -0.0117
      3 C           1.0166   -0.9776   -2.2381 C.3     1  UNL1        0.1456
      4 C           0.6273    0.2398   -1.4374 C.2     1  UNL1       -0.0297
      5 C           1.4743    1.0594   -0.8091 C.2     1  UNL1        0.0043
      6 CL          0.9573    2.4478    0.0535 Cl      1  UNL1       -0.0921
      7 C           0.5100   -0.7657   -3.6554 C.1     1  UNL1       -0.0667
      8 C           0.0754   -0.5839   -4.8712 C.1     1  UNL1       -0.1160
      9 O           2.4369   -1.0766   -2.2815 O.3     1  UNL1       -0.3730
     10 H           1.9928   -2.7346   -0.2179 H       1  UNL1        0.0231
     11 H           0.4467   -3.5391    0.0869 H       1  UNL1        0.0231
     12 H           0.6248   -1.8184    0.4468 H       1  UNL1        0.0231
     13 H           0.7438   -3.1245   -2.3157 H       1  UNL1        0.0303
     14 H          -0.6586   -2.2624   -1.6914 H       1  UNL1        0.0303
     15 H          -0.4382    0.4587   -1.3949 H       1  UNL1        0.0619
     16 H           2.5513    0.9370   -0.7867 H       1  UNL1        0.0744
     17 H          -0.2786   -0.4283   -5.8643 H       1  UNL1        0.1229
     18 H           2.6482   -1.7439   -2.9562 H       1  UNL1        0.2117
@<TRIPOS>BOND
     1     1     2    1
     2     1    10    1
     3     1    11    1
     4     1    12    1
     5     2    13    1
     6     2    14    1
     7     3     7    1
     8     3     9    1
     9     4     5    2
    10     4    15    1
    11     5     6    1
    12     5    16    1
    13     7     8    3
    14     8    17    1
    15     9    18    1
    16     3     4    1
    17     3     2    1
