@<TRIPOS>MOLECULE
ZINC00005152
 28 27 0 0 0
SMALL
GASTEIGER

@<TRIPOS>ATOM
      1 C          -0.4047   -2.9044   -2.4454 C.3     1  UNL1       -0.0627
      2 C          -0.9285   -2.7207   -1.0203 C.3     1  UNL1       -0.0463
      3 C          -0.1667   -3.6408   -0.0618 C.3     1  UNL1       -0.0627
      4 C          -0.8025   -1.2647   -0.5311 C.3     1  UNL1       -0.0425
      5 C          -1.5192   -0.2013   -1.3931 C.3     1  UNL1        0.0095
      6 H          -1.1344   -0.2765   -2.4180 H       1  UNL1        0.0358
      7 C          -3.0402   -0.4657   -1.4380 C.3     1  UNL1        0.0568
      8 C          -3.6981    0.8154   -1.9259 C.2     1  UNL1        0.3565
      9 O          -3.6938    1.0118   -3.1629 O.co2   1  UNL1       -0.2464
     10 O          -3.9283    1.6178   -0.9565 O.co2   1  UNL1       -0.2464
     11 C          -1.1304    1.2193   -0.9134 C.3     1  UNL1       -0.0320
     12 N          -1.8289    1.5757    0.3401 N.4     1  UNL1        0.2187
     13 H           0.5851   -2.4520   -2.5666 H       1  UNL1        0.0232
     14 H          -1.0806   -2.4460   -3.1742 H       1  UNL1        0.0232
     15 H          -0.3248   -3.9661   -2.7018 H       1  UNL1        0.0232
     16 H          -1.9824   -3.0222   -0.9976 H       1  UNL1        0.0296
     17 H           0.8995   -3.3900   -0.0325 H       1  UNL1        0.0232
     18 H          -0.5633   -3.5541    0.9556 H       1  UNL1        0.0232
     19 H          -0.2616   -4.6874   -0.3684 H       1  UNL1        0.0232
     20 H          -1.1847   -1.2127    0.4967 H       1  UNL1        0.0272
     21 H           0.2635   -1.0077   -0.4737 H       1  UNL1        0.0272
     22 H          -3.2869   -1.3039   -2.0976 H       1  UNL1        0.0383
     23 H          -3.4301   -0.7081   -0.4414 H       1  UNL1        0.0383
     24 H          -0.0565    1.3005   -0.7190 H       1  UNL1        0.0816
     25 H          -1.3895    1.9907   -1.6467 H       1  UNL1        0.0816
     26 H          -1.8223    0.8465    1.0533 H       1  UNL1        0.1994
     27 H          -1.5440    2.4771    0.7226 H       1  UNL1        0.1994
     28 H          -2.8439    1.7124    0.0610 H       1  UNL1        0.1994
@<TRIPOS>UNITY_ATOM_ATTR
12 1
charge 1
@<TRIPOS>BOND
     1     1     2    1
     2     1    13    1
     3     1    14    1
     4     1    15    1
     5     2     3    1
     6     2     4    1
     7     2    16    1
     8     3    17    1
     9     3    18    1
    10     3    19    1
    11     4     5    1
    12     4    20    1
    13     4    21    1
    14     5     6    1
    15     5     7    1
    16     5    11    1
    17     7     8    1
    18     7    22    1
    19     7    23    1
    20     8     9   ar
    21     8    10   ar
    22    11    12    1
    23    11    24    1
    24    11    25    1
    25    12    26    1
    26    12    27    1
    27    12    28    1
