@<TRIPOS>MOLECULE
ZINC01530973
 42 44 0 0 0
SMALL
GASTEIGER

@<TRIPOS>ATOM
      1 C          -1.2876   -2.1341   -1.8175 C.ar    1  UNL1       -0.0589
      2 C          -1.3476   -1.0445   -2.6816 C.ar    1  UNL1       -0.0422
      3 C          -1.0221    0.2435   -2.2231 C.ar    1  UNL1        0.0558
      4 C          -0.6332    0.4635   -0.8854 C.ar    1  UNL1        0.0448
      5 C          -0.5612   -0.6644   -0.0409 C.ar    1  UNL1        0.0558
      6 C          -0.8963   -1.9406   -0.5009 C.ar    1  UNL1       -0.0422
      7 CL         -0.0212   -0.5739    1.6060 Cl      1  UNL1       -0.0824
      8 S          -0.0607    2.0690   -0.3061 S.3     1  UNL1       -0.1172
      9 C          -1.6307    2.9932    0.0017 C.3     1  UNL1        0.0282
     10 H          -2.2994    2.7407   -0.8320 H       1  UNL1        0.0433
     11 C          -2.4033    2.5622    1.2772 C.3     1  UNL1       -0.0352
     12 C          -1.6632    2.5872    2.6206 C.3     1  UNL1       -0.0266
     13 C          -2.4519    2.0396    3.8001 C.ar    1  UNL1       -0.0472
     14 C          -2.5814    2.8012    4.9739 C.ar    1  UNL1       -0.0572
     15 C          -3.1675    2.2592    6.1245 C.ar    1  UNL1       -0.0431
     16 C          -3.6283    0.9462    6.1102 C.ar    1  UNL1        0.0410
     17 C          -3.5405    0.1851    4.9482 C.ar    1  UNL1       -0.0431
     18 C          -2.9541    0.7292    3.7996 C.ar    1  UNL1       -0.0572
     19 CL         -4.2805    0.2505    7.5441 Cl      1  UNL1       -0.0835
     20 C          -1.4072    4.5245   -0.1363 C.3     1  UNL1        0.0363
     21 N          -0.3023    5.1297    0.5779 N.ar    1  UNL1       -0.3358
     22 C          -0.3566    5.7680    1.7850 C.ar    1  UNL1        0.0240
     23 C           0.9262    6.2073    2.0177 C.ar    1  UNL1        0.0454
     24 N           1.7344    5.9324    0.9485 N.ar    1  UNL1       -0.2441
     25 C           0.9630    5.3103    0.0851 C.ar    1  UNL1        0.0959
     26 CL         -1.0827    1.5154   -3.4018 Cl      1  UNL1       -0.0824
     27 H          -1.5232   -3.1352   -2.1745 H       1  UNL1        0.0618
     28 H          -1.6231   -1.2077   -3.7219 H       1  UNL1        0.0632
     29 H          -0.8327   -2.7958    0.1720 H       1  UNL1        0.0632
     30 H          -3.2990    3.1940    1.3655 H       1  UNL1        0.0280
     31 H          -2.7887    1.5504    1.0958 H       1  UNL1        0.0280
     32 H          -0.7293    2.0221    2.5697 H       1  UNL1        0.0314
     33 H          -1.3792    3.6134    2.8537 H       1  UNL1        0.0314
     34 H          -2.2013    3.8200    5.0162 H       1  UNL1        0.0621
     35 H          -3.2330    2.8570    7.0297 H       1  UNL1        0.0632
     36 H          -3.8982   -0.8412    4.9376 H       1  UNL1        0.0632
     37 H          -2.8600    0.1001    2.9183 H       1  UNL1        0.0621
     38 H          -1.2482    4.7641   -1.1975 H       1  UNL1        0.0503
     39 H          -2.3158    5.0656    0.1556 H       1  UNL1        0.0503
     40 H          -1.2584    5.8415    2.3746 H       1  UNL1        0.0825
     41 H           1.3074    6.7226    2.8898 H       1  UNL1        0.0845
     42 H           1.2703    4.9700   -0.8967 H       1  UNL1        0.1029
@<TRIPOS>BOND
     1     1     6   ar
     2     1     2   ar
     3     1    27    1
     4     2     3   ar
     5     2    28    1
     6     3     4   ar
     7     3    26    1
     8     4     5   ar
     9     4     8    1
    10     5     6   ar
    11     5     7    1
    12     6    29    1
    13     8     9    1
    14     9    10    1
    15     9    11    1
    16     9    20    1
    17    11    12    1
    18    11    30    1
    19    11    31    1
    20    12    13    1
    21    12    32    1
    22    12    33    1
    23    13    18   ar
    24    13    14   ar
    25    14    15   ar
    26    14    34    1
    27    15    16   ar
    28    15    35    1
    29    16    17   ar
    30    16    19    1
    31    17    18   ar
    32    17    36    1
    33    18    37    1
    34    20    21    1
    35    20    38    1
    36    20    39    1
    37    21    25   ar
    38    21    22   ar
    39    22    23   ar
    40    22    40    1
    41    23    24   ar
    42    23    41    1
    43    24    25   ar
    44    25    42    1
