@<TRIPOS>MOLECULE
ZINC02548959
 24 26 0 0 0
SMALL
GASTEIGER

@<TRIPOS>ATOM
      1 C          -0.6579   -1.1947   -1.5929 C.3     1  UNL1        0.0791
      2 O           0.5182   -0.4238   -1.3696 O.3     1  UNL1       -0.4884
      3 C           0.7706    0.5415   -2.3265 C.ar    1  UNL1        0.2061
      4 C           2.0949    0.9900   -2.4717 C.ar    1  UNL1        0.1841
      5 C           2.4697    1.9594   -3.4064 C.ar    1  UNL1        0.0221
      6 C           3.8695    2.3426   -3.5109 C.ar    1  UNL1       -0.0442
      7 C           4.7790    1.7634   -2.7227 C.ar    1  UNL1        0.0236
      8 C           4.4229    0.7391   -1.7265 C.ar    1  UNL1        0.3373
      9 O           5.2866    0.2267   -1.0227 O.2     1  UNL1       -0.2452
     10 O           3.0810    0.3984   -1.6389 O.2     1  UNL1       -0.4183
     11 C           1.5030    2.5391   -4.2394 C.ar    1  UNL1       -0.0401
     12 C           0.1608    2.1322   -4.1125 C.ar    1  UNL1        0.0246
     13 C          -0.1659    1.1614   -3.1663 C.ar    1  UNL1        0.1799
     14 O          -1.5124    0.9298   -3.2038 O.2     1  UNL1       -0.4591
     15 C          -2.0408    1.7219   -4.1675 C.ar    1  UNL1        0.0933
     16 C          -1.0569    2.4783   -4.7593 C.ar    1  UNL1       -0.0160
     17 H          -0.6202   -2.0650   -0.9313 H       1  UNL1        0.0660
     18 H          -0.7077   -1.5655   -2.6231 H       1  UNL1        0.0660
     19 H          -1.5539   -0.6244   -1.3294 H       1  UNL1        0.0660
     20 H           4.1600    3.0948   -4.2378 H       1  UNL1        0.0627
     21 H           5.8301    2.0195   -2.7791 H       1  UNL1        0.0689
     22 H           1.7734    3.2903   -4.9756 H       1  UNL1        0.0632
     23 H          -3.1079    1.6344   -4.3114 H       1  UNL1        0.1030
     24 H          -1.1987    3.1915   -5.5584 H       1  UNL1        0.0655
@<TRIPOS>BOND
     1     1     2    1
     2     1    17    1
     3     1    18    1
     4     1    19    1
     5     2     3    1
     6     3    13   ar
     7     3     4   ar
     8     4    10   ar
     9     4     5   ar
    10     5     6   ar
    11     5    11   ar
    12     6     7   ar
    13     6    20    1
    14     7     8   ar
    15     7    21    1
    16     8     9    2
    17     8    10   ar
    18    11    12   ar
    19    11    22    1
    20    12    16   ar
    21    12    13   ar
    22    13    14   ar
    23    14    15   ar
    24    15    16   ar
    25    15    23    1
    26    16    24    1
