@<TRIPOS>MOLECULE
ZINC00057480
 43 44 0 0 0
SMALL
GASTEIGER

@<TRIPOS>ATOM
      1 C           0.8043    0.7206    0.1142 C.3     1  UNL1       -0.0189
      2 C           0.2687    0.2367    1.4612 C.3     1  UNL1        0.0052
      3 H           0.5696    0.9191    2.2611 H       1  UNL1        0.0877
      4 C          -1.2959    0.1100    1.4767 C.3     1  UNL1        0.1222
      5 H          -1.6140   -0.3051    2.4414 H       1  UNL1        0.0701
      6 C          -1.9749    1.4550    1.2964 C.ar    1  UNL1       -0.0136
      7 C          -2.2499    2.2598    2.4164 C.ar    1  UNL1       -0.0525
      8 C          -2.8310    3.5230    2.2623 C.ar    1  UNL1       -0.0198
      9 C          -3.1336    3.9876    0.9879 C.ar    1  UNL1        0.1169
     10 C          -2.8612    3.2153   -0.1319 C.ar    1  UNL1       -0.0198
     11 C          -2.2817    1.9561    0.0195 C.ar    1  UNL1       -0.0525
     12 O          -3.6994    5.2089    0.7846 O.3     1  UNL1       -0.5068
     13 O          -1.7266   -0.8460    0.5038 O.3     1  UNL1       -0.3816
     14 N           0.8936   -1.1171    1.7964 N.4     1  UNL1        0.2313
     15 C           2.3908   -1.2177    1.9994 C.3     1  UNL1       -0.0293
     16 C           2.9182   -0.3041    3.1144 C.3     1  UNL1        0.0126
     17 C           4.4144   -0.4392    3.3181 C.ar    1  UNL1       -0.0421
     18 C           4.9448   -1.3644    4.2327 C.ar    1  UNL1       -0.0549
     19 C           6.3259   -1.4309    4.4665 C.ar    1  UNL1       -0.0199
     20 C           7.1797   -0.5674    3.8013 C.ar    1  UNL1        0.1169
     21 C           6.6731    0.3476    2.8747 C.ar    1  UNL1       -0.0199
     22 C           5.3025    0.3864    2.6135 C.ar    1  UNL1       -0.0549
     23 O           8.5237   -0.5643    4.0089 O.3     1  UNL1       -0.5068
     24 H           0.3489    1.6728   -0.1671 H       1  UNL1        0.0285
     25 H           0.6095    0.0071   -0.6931 H       1  UNL1        0.0285
     26 H           1.8796    0.9113    0.1616 H       1  UNL1        0.0285
     27 H          -2.0198    1.9183    3.4239 H       1  UNL1        0.0622
     28 H          -3.0452    4.1259    3.1404 H       1  UNL1        0.0654
     29 H          -3.0957    3.5984   -1.1227 H       1  UNL1        0.0654
     30 H          -2.0504    1.3867   -0.8797 H       1  UNL1        0.0622
     31 H          -3.7731    5.6799    1.6310 H       1  UNL1        0.2921
     32 H          -2.6850   -0.6856    0.3427 H       1  UNL1        0.2105
     33 H           0.4187   -1.5088    2.6190 H       1  UNL1        0.2017
     34 H           2.5823   -2.2660    2.2565 H       1  UNL1        0.0817
     35 H           2.8698   -1.0097    1.0418 H       1  UNL1        0.0817
     36 H           2.7011    0.7460    2.8860 H       1  UNL1        0.0365
     37 H           2.4060   -0.5148    4.0629 H       1  UNL1        0.0365
     38 H           4.2966   -2.0355    4.7933 H       1  UNL1        0.0621
     39 H           6.7162   -2.1459    5.1847 H       1  UNL1        0.0654
     40 H           7.3563    1.0078    2.3500 H       1  UNL1        0.0654
     41 H           4.9461    1.0922    1.8652 H       1  UNL1        0.0621
     42 H           8.7617   -1.3102    4.5843 H       1  UNL1        0.2921
     43 H           0.6245   -1.7629    1.0296 H       1  UNL1        0.2017
@<TRIPOS>UNITY_ATOM_ATTR
14 1
charge 1
@<TRIPOS>BOND
     1     1     2    1
     2     1    24    1
     3     1    25    1
     4     1    26    1
     5     2     3    1
     6     2     4    1
     7     2    14    1
     8     4     5    1
     9     4     6    1
    10     4    13    1
    11     6    11   ar
    12     6     7   ar
    13     7     8   ar
    14     7    27    1
    15     8     9   ar
    16     8    28    1
    17     9    10   ar
    18     9    12    1
    19    10    11   ar
    20    10    29    1
    21    11    30    1
    22    12    31    1
    23    13    32    1
    24    14    15    1
    25    14    33    1
    26    14    43    1
    27    15    16    1
    28    15    34    1
    29    15    35    1
    30    16    17    1
    31    16    36    1
    32    16    37    1
    33    17    22   ar
    34    17    18   ar
    35    18    19   ar
    36    18    38    1
    37    19    20   ar
    38    19    39    1
    39    20    21   ar
    40    20    23    1
    41    21    22   ar
    42    21    40    1
    43    22    41    1
    44    23    42    1
