@<TRIPOS>MOLECULE
ZINC00591993
 52 53 0 0 0
SMALL
GASTEIGER

@<TRIPOS>ATOM
      1 C          -2.3239    1.4272    0.0892 C.3     1  UNL1       -0.0260
      2 C          -1.2087    0.4068    0.0050 C.2     1  UNL1        0.0157
      3 C          -1.2964   -0.9230    0.2826 C.2     1  UNL1        0.0652
      4 C          -0.0322   -1.8066    0.1163 C.3     1  UNL1        0.0526
      5 H          -0.0986   -2.1882   -0.9176 H       1  UNL1        0.0452
      6 C           1.3017   -0.9866    0.1234 C.2     1  UNL1        0.0652
      7 C           1.2352    0.3556   -0.0939 C.2     1  UNL1        0.0157
      8 N           0.0119    0.9507   -0.3573 N.pl3   1  UNL1       -0.3207
      9 C           2.3524    1.3789   -0.0069 C.3     1  UNL1       -0.0260
     10 C           2.5668   -1.6987    0.4713 C.2     1  UNL1        0.3375
     11 O           2.6250   -2.8096    0.9931 O.2     1  UNL1       -0.2452
     12 O           3.6708   -0.9920    0.1669 O.3     1  UNL1       -0.4611
     13 C           4.8859   -1.3064    0.8673 C.3     1  UNL1        0.0951
     14 C           5.9177   -1.8367   -0.1270 C.3     1  UNL1       -0.0123
     15 C           6.2023   -0.8164   -1.2309 C.3     1  UNL1       -0.0596
     16 C           7.2186   -2.2160    0.5701 C.3     1  UNL1       -0.0596
     17 C          -0.0406   -3.0429    1.0238 C.ar    1  UNL1       -0.0090
     18 C          -0.0804   -4.3223    0.4176 C.ar    1  UNL1       -0.0556
     19 C          -0.2153   -5.4825    1.1855 C.ar    1  UNL1       -0.0613
     20 C          -0.1811   -5.4070    2.5750 C.ar    1  UNL1       -0.0597
     21 C          -0.0742   -4.1667    3.2006 C.ar    1  UNL1       -0.0352
     22 C          -0.0453   -2.9980    2.4291 C.ar    1  UNL1        0.0792
     23 N          -0.0770   -1.7371    3.1562 N.pl3   1  UNL1       -0.1863
     24 O           0.8918   -0.9768    3.0431 O.2     1  UNL1       -0.1726
     25 O          -1.0738   -1.5285    3.8601 O.co2   1  UNL1       -0.7770
     26 C          -2.5672   -1.4410    0.8705 C.2     1  UNL1        0.3373
     27 O          -3.3181   -0.7620    1.5569 O.2     1  UNL1       -0.2452
     28 O          -2.7620   -2.7598    0.6213 O.3     1  UNL1       -0.4646
     29 C          -3.8674   -3.3529    1.3270 C.3     1  UNL1        0.0820
     30 H          -2.1310    2.1074    0.9247 H       1  UNL1        0.0290
     31 H          -2.3551    2.0237   -0.8340 H       1  UNL1        0.0290
     32 H          -3.3304    1.0188    0.2020 H       1  UNL1        0.0290
     33 H           0.0243    1.9693   -0.4006 H       1  UNL1        0.1516
     34 H           2.3588    2.0037   -0.9064 H       1  UNL1        0.0290
     35 H           2.1757    2.0199    0.8669 H       1  UNL1        0.0290
     36 H           3.3697    1.0252    0.1000 H       1  UNL1        0.0290
     37 H           5.2339   -0.3736    1.3275 H       1  UNL1        0.0700
     38 H           4.7130   -2.0132    1.6847 H       1  UNL1        0.0700
     39 H           5.4984   -2.7321   -0.6005 H       1  UNL1        0.0328
     40 H           6.5703    0.1272   -0.8138 H       1  UNL1        0.0233
     41 H           6.9612   -1.2003   -1.9214 H       1  UNL1        0.0233
     42 H           5.3021   -0.6016   -1.8157 H       1  UNL1        0.0233
     43 H           7.0486   -2.9799    1.3362 H       1  UNL1        0.0233
     44 H           7.9333   -2.6184   -0.1517 H       1  UNL1        0.0233
     45 H           7.6829   -1.3467    1.0557 H       1  UNL1        0.0233
     46 H          -0.0144   -4.4313   -0.6646 H       1  UNL1        0.0621
     47 H          -0.3350   -6.4471    0.6962 H       1  UNL1        0.0618
     48 H          -0.2274   -6.3163    3.1686 H       1  UNL1        0.0618
     49 H          -0.0078   -4.1139    4.2857 H       1  UNL1        0.0639
     50 H          -3.5002   -3.8633    2.2242 H       1  UNL1        0.0661
     51 H          -4.6386   -2.6309    1.6138 H       1  UNL1        0.0661
     52 H          -4.3291   -4.0927    0.6703 H       1  UNL1        0.0661
@<TRIPOS>UNITY_ATOM_ATTR
25 1
charge -1
@<TRIPOS>BOND
     1     1     2    1
     2     1    30    1
     3     1    31    1
     4     1    32    1
     5     2     8    1
     6     2     3    2
     7     3     4    1
     8     3    26    1
     9     4     6    1
    10     6     7    2
    11     6    10    1
    12     7     8    1
    13     7     9    1
    14     8    33    1
    15     9    34    1
    16     9    35    1
    17     9    36    1
    18    10    11    2
    19    10    12    1
    20    12    13    1
    21    13    14    1
    22    13    37    1
    23    13    38    1
    24    14    15    1
    25    14    16    1
    26    14    39    1
    27    15    40    1
    28    15    41    1
    29    15    42    1
    30    16    43    1
    31    16    44    1
    32    16    45    1
    33    17    22   ar
    34    17    18   ar
    35    18    19   ar
    36    18    46    1
    37    19    20   ar
    38    19    47    1
    39    20    21   ar
    40    20    48    1
    41    21    22   ar
    42    21    49    1
    43    22    23    1
    44    23    24    2
    45    23    25    1
    46    26    27    2
    47    26    28    1
    48    28    29    1
    49    29    50    1
    50    29    51    1
    51    29    52    1
    52     4    17    1
    53     4     5    1
