@<TRIPOS>MOLECULE
ZINC01530800
 38 37 0 0 0
SMALL
GASTEIGER

@<TRIPOS>ATOM
      1 C          -2.5455   -0.7342   -7.0666 C.3     1  UNL1       -0.0306
      2 C          -2.4123   -1.3031   -5.6638 C.3     1  UNL1        0.0896
      3 O          -1.3953   -0.6259   -4.8959 O.3     1  UNL1       -0.4649
      4 C          -0.0966   -1.0010   -5.0578 C.2     1  UNL1        0.3087
      5 O           0.3304   -1.8064   -5.8642 O.2     1  UNL1       -0.2508
      6 C           0.7586   -0.2484   -4.0361 C.3     1  UNL1        0.0674
      7 C           2.2968   -0.4155   -4.0508 C.3     1  UNL1        0.1206
      8 H           2.6740    0.3700   -3.3885 H       1  UNL1        0.0537
      9 C           2.9740   -0.1533   -5.3982 C.2     1  UNL1        0.3212
     10 O           3.7445   -0.9232   -5.9618 O.2     1  UNL1       -0.2496
     11 O           2.7489    1.1378   -5.7975 O.3     1  UNL1       -0.4641
     12 C           3.5954    1.6658   -6.8422 C.3     1  UNL1        0.0897
     13 C           3.1528    1.2308   -8.2276 C.3     1  UNL1       -0.0306
     14 S           2.9002   -1.9927   -3.2897 S.3     1  UNL1       -0.0586
     15 P           4.9450   -1.9237   -2.7342 P.3     1  UNL1        0.2294
     16 S           4.6071   -0.4618   -1.3781 S.2     1  UNL1        0.0032
     17 O           4.8479   -3.3959   -1.9866 O.3     1  UNL1       -0.3267
     18 C           5.1501   -4.5481   -2.7481 C.3     1  UNL1        0.0441
     19 O           6.6136   -1.8674   -2.2809 O.3     1  UNL1       -0.3267
     20 C           7.6035   -1.9723   -3.2746 C.3     1  UNL1        0.0441
     21 H          -2.7184    0.3468   -7.0338 H       1  UNL1        0.0262
     22 H          -3.3793   -1.2022   -7.5967 H       1  UNL1        0.0262
     23 H          -1.6335   -0.9007   -7.6442 H       1  UNL1        0.0262
     24 H          -3.3640   -1.1542   -5.1378 H       1  UNL1        0.0694
     25 H          -2.2299   -2.3835   -5.6858 H       1  UNL1        0.0694
     26 H           0.5339    0.8158   -4.2001 H       1  UNL1        0.0394
     27 H           0.3740   -0.5016   -3.0378 H       1  UNL1        0.0394
     28 H           3.5272    2.7585   -6.7798 H       1  UNL1        0.0694
     29 H           4.6458    1.4074   -6.6605 H       1  UNL1        0.0694
     30 H           2.0857    1.4210   -8.3747 H       1  UNL1        0.0262
     31 H           3.7149    1.7712   -8.9974 H       1  UNL1        0.0262
     32 H           3.3196    0.1605   -8.3779 H       1  UNL1        0.0262
     33 H           4.9389   -4.3939   -3.8098 H       1  UNL1        0.0528
     34 H           6.2044   -4.8048   -2.6181 H       1  UNL1        0.0528
     35 H           4.5393   -5.3782   -2.3827 H       1  UNL1        0.0528
     36 H           7.4727   -2.8805   -3.8645 H       1  UNL1        0.0528
     37 H           7.5934   -1.0870   -3.9132 H       1  UNL1        0.0528
     38 H           8.5740   -2.0215   -2.7682 H       1  UNL1        0.0528
@<TRIPOS>BOND
     1     1     2    1
     2     1    21    1
     3     1    22    1
     4     1    23    1
     5     2     3    1
     6     2    24    1
     7     2    25    1
     8     3     4    1
     9     4     5    2
    10     4     6    1
    11     6    26    1
    12     6    27    1
    13     7     9    1
    14     7    14    1
    15     9    10    2
    16     9    11    1
    17    11    12    1
    18    12    13    1
    19    12    28    1
    20    12    29    1
    21    13    30    1
    22    13    31    1
    23    13    32    1
    24    14    15    1
    25    15    16    2
    26    15    17    1
    27    15    19    1
    28    17    18    1
    29    18    33    1
    30    18    34    1
    31    18    35    1
    32    19    20    1
    33    20    36    1
    34    20    37    1
    35    20    38    1
    36     7     8    1
    37     7     6    1
