@<TRIPOS>MOLECULE
ZINC00000494
 50 50 0 0 0
SMALL
GASTEIGER

@<TRIPOS>ATOM
      1 C           3.2323    0.1244    0.0610 C.3     1  UNL1       -0.0361
      2 C           1.7366   -0.0157    0.1257 C.ar    1  UNL1       -0.0043
      3 C           1.2120   -1.3154    0.2311 C.ar    1  UNL1       -0.0133
      4 C          -0.1661   -1.5610    0.2092 C.ar    1  UNL1        0.1242
      5 C          -1.0680   -0.4849    0.0829 C.ar    1  UNL1       -0.0024
      6 C          -0.5620    0.8416    0.0434 C.ar    1  UNL1       -0.0015
      7 C           0.8413    1.0557    0.0697 C.ar    1  UNL1        0.1379
      8 O           1.2569    2.4069   -0.1366 O.3     1  UNL1       -0.4255
      9 C           2.2066    3.0940    0.6273 C.2     1  UNL1        0.3092
     10 O           2.8594    2.6457    1.5585 O.2     1  UNL1       -0.2507
     11 C           2.2622    4.5231    0.1644 C.3     1  UNL1        0.0336
     12 C          -1.4764    2.0419   -0.0364 C.3     1  UNL1       -0.0359
     13 C          -2.5537   -0.7395   -0.0023 C.3     1  UNL1       -0.0359
     14 O          -0.7044   -2.8258    0.2453 O.3     1  UNL1       -0.4889
     15 C           0.0823   -3.8409    0.8651 C.3     1  UNL1        0.1204
     16 C          -0.8056   -5.0645    1.1392 C.3     1  UNL1        0.1285
     17 H          -1.5792   -4.7903    1.8664 H       1  UNL1        0.0681
     18 C          -1.5115   -5.6105   -0.1139 C.3     1  UNL1       -0.0035
     19 N          -0.4977   -6.1598   -1.0871 N.4     1  UNL1        0.2307
     20 C          -1.0447   -6.9005   -2.2741 C.3     1  UNL1       -0.0283
     21 C          -1.9058   -5.9669   -3.1174 C.3     1  UNL1       -0.0219
     22 C           0.1335   -7.4250   -3.0886 C.3     1  UNL1       -0.0219
     23 O          -0.0175   -6.1367    1.6715 O.3     1  UNL1       -0.3831
     24 H           3.5221    0.7798   -0.7652 H       1  UNL1        0.0279
     25 H           3.6360    0.4921    1.0046 H       1  UNL1        0.0279
     26 H           3.7101   -0.8443   -0.1209 H       1  UNL1        0.0279
     27 H           1.9159   -2.1388    0.2944 H       1  UNL1        0.0658
     28 H           2.3744    4.5698   -0.9218 H       1  UNL1        0.0342
     29 H           1.3531    5.0432    0.4766 H       1  UNL1        0.0342
     30 H           3.1267    5.0211    0.6148 H       1  UNL1        0.0342
     31 H          -1.3086    2.6966    0.8258 H       1  UNL1        0.0279
     32 H          -1.2864    2.5995   -0.9591 H       1  UNL1        0.0279
     33 H          -2.5370    1.7805   -0.0305 H       1  UNL1        0.0279
     34 H          -3.0614   -0.3284    0.8758 H       1  UNL1        0.0279
     35 H          -2.9631   -0.2883   -0.9129 H       1  UNL1        0.0279
     36 H          -2.8051   -1.8037   -0.0473 H       1  UNL1        0.0279
     37 H           0.9134   -4.1278    0.2097 H       1  UNL1        0.0725
     38 H           0.5056   -3.4925    1.8152 H       1  UNL1        0.0725
     39 H          -2.1415   -6.4636    0.1635 H       1  UNL1        0.0841
     40 H          -2.1070   -4.8496   -0.6199 H       1  UNL1        0.0841
     41 H           0.1103   -5.3991   -1.4150 H       1  UNL1        0.2017
     42 H          -1.6369   -7.7374   -1.8881 H       1  UNL1        0.0845
     43 H          -1.3491   -5.0730   -3.4200 H       1  UNL1        0.0284
     44 H          -2.2507   -6.4738   -4.0249 H       1  UNL1        0.0284
     45 H          -2.7993   -5.6438   -2.5745 H       1  UNL1        0.0284
     46 H           0.7478   -8.1135   -2.4998 H       1  UNL1        0.0284
     47 H          -0.2207   -7.9669   -3.9725 H       1  UNL1        0.0284
     48 H           0.7769   -6.6080   -3.4349 H       1  UNL1        0.0284
     49 H          -0.2398   -6.2169    2.6229 H       1  UNL1        0.2102
     50 H           0.1127   -6.7834   -0.5295 H       1  UNL1        0.2017
@<TRIPOS>UNITY_ATOM_ATTR
19 1
charge 1
@<TRIPOS>BOND
     1     1     2    1
     2     1    24    1
     3     1    25    1
     4     1    26    1
     5     2     7   ar
     6     2     3   ar
     7     3     4   ar
     8     3    27    1
     9     4     5   ar
    10     4    14    1
    11     5     6   ar
    12     5    13    1
    13     6     7   ar
    14     6    12    1
    15     7     8    1
    16     8     9    1
    17     9    10    2
    18     9    11    1
    19    11    28    1
    20    11    29    1
    21    11    30    1
    22    12    31    1
    23    12    32    1
    24    12    33    1
    25    13    34    1
    26    13    35    1
    27    13    36    1
    28    14    15    1
    29    15    16    1
    30    15    37    1
    31    15    38    1
    32    16    17    1
    33    16    18    1
    34    16    23    1
    35    18    19    1
    36    18    39    1
    37    18    40    1
    38    19    20    1
    39    19    41    1
    40    19    50    1
    41    20    21    1
    42    20    22    1
    43    20    42    1
    44    21    43    1
    45    21    44    1
    46    21    45    1
    47    22    46    1
    48    22    47    1
    49    22    48    1
    50    23    49    1
