@<TRIPOS>MOLECULE
ZINC00008667
 30 31 0 0 0
SMALL
GASTEIGER

@<TRIPOS>ATOM
      1 C           1.2381    0.5686    2.2727 C.3     1  UNL1       -0.0480
      2 C           0.6244    1.1996    1.0195 C.3     1  UNL1        0.0829
      3 H           0.9641    2.2447    0.9945 H       1  UNL1        0.0461
      4 C          -0.8960    1.1845    1.0389 C.ar    1  UNL1       -0.0311
      5 C          -1.6112   -0.0186    1.0085 C.ar    1  UNL1       -0.0570
      6 C          -3.0115   -0.0279    0.9773 C.ar    1  UNL1       -0.0510
      7 C          -3.7594    1.1641    0.9607 C.ar    1  UNL1        0.0173
      8 C          -3.0196    2.3611    1.0052 C.ar    1  UNL1        0.1313
      9 C          -1.6220    2.3782    1.0517 C.ar    1  UNL1       -0.0219
     10 F          -3.6441    3.5509    0.9794 F       1  UNL1       -0.2048
     11 C          -5.2434    1.1391    0.8771 C.ar    1  UNL1       -0.0151
     12 C          -5.9219    0.1290    0.1661 C.ar    1  UNL1       -0.0539
     13 C          -7.3186    0.1019    0.0756 C.ar    1  UNL1       -0.0612
     14 C          -8.0756    1.0965    0.6841 C.ar    1  UNL1       -0.0617
     15 C          -7.4361    2.1088    1.3909 C.ar    1  UNL1       -0.0612
     16 C          -6.0401    2.1216    1.4928 C.ar    1  UNL1       -0.0539
     17 C           1.1434    0.5498   -0.2847 C.2     1  UNL1        0.3630
     18 O           1.3800    1.3652   -1.2297 O.co2   1  UNL1       -0.2457
     19 O           1.2960   -0.7051   -0.2670 O.co2   1  UNL1       -0.2457
     20 H           1.5934    1.3581    2.9458 H       1  UNL1        0.0241
     21 H           2.1060   -0.0596    2.0453 H       1  UNL1        0.0241
     22 H           0.5255   -0.0329    2.8466 H       1  UNL1        0.0241
     23 H          -1.0688   -0.9642    0.9742 H       1  UNL1        0.0621
     24 H          -3.5033   -0.9970    0.9536 H       1  UNL1        0.0625
     25 H          -1.1091    3.3354    1.0641 H       1  UNL1        0.0649
     26 H          -5.3638   -0.6499   -0.3498 H       1  UNL1        0.0624
     27 H          -7.8075   -0.6931   -0.4809 H       1  UNL1        0.0618
     28 H          -9.1585    1.0861    0.6035 H       1  UNL1        0.0618
     29 H          -8.0167    2.8958    1.8641 H       1  UNL1        0.0618
     30 H          -5.5774    2.9234    2.0646 H       1  UNL1        0.0624
@<TRIPOS>BOND
     1     1    20    1
     2     1    21    1
     3     1    22    1
     4     2     4    1
     5     2    17    1
     6     4     9   ar
     7     4     5   ar
     8     5     6   ar
     9     5    23    1
    10     6     7   ar
    11     6    24    1
    12     7     8   ar
    13     7    11    1
    14     8     9   ar
    15     8    10    1
    16     9    25    1
    17    11    16   ar
    18    11    12   ar
    19    12    13   ar
    20    12    26    1
    21    13    14   ar
    22    13    27    1
    23    14    15   ar
    24    14    28    1
    25    15    16   ar
    26    15    29    1
    27    16    30    1
    28    17    18   ar
    29    17    19   ar
    30     2     3    1
    31     2     1    1
