@<TRIPOS>MOLECULE
ZINC00000271
 27 28 0 0 0
SMALL
GASTEIGER

@<TRIPOS>ATOM
      1 C          -0.7699   -0.8176    1.7531 C.3     1  UNL1       -0.0488
      2 C           0.6094   -0.2479    1.4595 C.3     1  UNL1        0.0211
      3 N           0.9643    0.7912    2.4023 N.am    1  UNL1       -0.2245
      4 C           1.5199    0.5712    3.6378 C.2     1  UNL1        0.2479
      5 O           1.8296   -0.5164    4.1055 O.2     1  UNL1       -0.2727
      6 C           1.6423    1.9216    4.3512 C.3     1  UNL1        0.1267
      7 H           0.9313    1.9380    5.1845 H       1  UNL1        0.0646
      8 N           1.1300    2.8014    3.3348 N.am    1  UNL1       -0.2836
      9 C           0.7111    2.1176    2.2203 C.2     1  UNL1        0.3094
     10 O           0.1980    2.6495    1.2509 O.2     1  UNL1       -0.2522
     11 C           3.0332    2.3041    4.7836 C.ar    1  UNL1       -0.0183
     12 C           3.2946    2.5652    6.1382 C.ar    1  UNL1       -0.0563
     13 C           4.5647    2.9692    6.5547 C.ar    1  UNL1       -0.0614
     14 C           5.5910    3.1135    5.6245 C.ar    1  UNL1       -0.0617
     15 C           5.3515    2.8464    4.2787 C.ar    1  UNL1       -0.0614
     16 C           4.0821    2.4432    3.8596 C.ar    1  UNL1       -0.0563
     17 H          -0.8068   -1.2615    2.7533 H       1  UNL1        0.0245
     18 H          -1.0251   -1.5928    1.0249 H       1  UNL1        0.0245
     19 H          -1.5356   -0.0369    1.7070 H       1  UNL1        0.0245
     20 H           1.3570   -1.0463    1.5180 H       1  UNL1        0.0467
     21 H           0.6251    0.1703    0.4474 H       1  UNL1        0.0467
     22 H           1.0387    3.8044    3.4142 H       1  UNL1        0.1513
     23 H           2.5086    2.4619    6.8838 H       1  UNL1        0.0621
     24 H           4.7524    3.1744    7.6057 H       1  UNL1        0.0618
     25 H           6.5780    3.4337    5.9485 H       1  UNL1        0.0618
     26 H           6.1532    2.9570    3.5527 H       1  UNL1        0.0618
     27 H           3.9178    2.2497    2.8013 H       1  UNL1        0.0621
@<TRIPOS>BOND
     1     1     2    1
     2     1    17    1
     3     1    18    1
     4     1    19    1
     5     2     3    1
     6     2    20    1
     7     2    21    1
     8     3     9   am
     9     3     4   am
    10     4     5    2
    11     4     6    1
    12     6     8    1
    13     8     9   am
    14     8    22    1
    15     9    10    2
    16    11    16   ar
    17    11    12   ar
    18    12    13   ar
    19    12    23    1
    20    13    14   ar
    21    13    24    1
    22    14    15   ar
    23    14    25    1
    24    15    16   ar
    25    15    26    1
    26    16    27    1
    27     6    11    1
    28     6     7    1
