@<TRIPOS>MOLECULE
ZINC01319234
 49 52 0 0 0
SMALL
GASTEIGER

@<TRIPOS>ATOM
      1 C          -3.9019    1.1232    0.7121 C.3     1  UNL1        0.0788
      2 O          -3.4309    1.6414   -0.5282 O.3     1  UNL1       -0.4951
      3 C          -4.1346    2.6927   -1.0405 C.ar    1  UNL1        0.1208
      4 C          -4.8593    3.6242   -0.3157 C.ar    1  UNL1       -0.0179
      5 C          -5.4964    4.6738   -0.9853 C.ar    1  UNL1       -0.0323
      6 C          -5.4395    4.8152   -2.3662 C.ar    1  UNL1        0.0715
      7 C          -4.7162    3.8624   -3.1188 C.ar    1  UNL1        0.0097
      8 C          -4.0540    2.8222   -2.4256 C.ar    1  UNL1       -0.0104
      9 C          -4.7125    4.0086   -4.5336 C.ar    1  UNL1       -0.0031
     10 C          -5.3875    5.1026   -5.0997 C.ar    1  UNL1       -0.0372
     11 C          -6.0446    5.9837   -4.2672 C.ar    1  UNL1        0.0286
     12 N          -6.0705    5.8550   -2.9318 N.ar    1  UNL1       -0.2550
     13 C          -3.9992    3.0082   -5.4294 C.3     1  UNL1        0.1232
     14 H          -4.0554    2.0120   -4.9795 H       1  UNL1        0.0701
     15 C          -2.4941    3.3797   -5.6435 C.3     1  UNL1        0.0102
     16 H          -2.0669    3.6257   -4.6618 H       1  UNL1        0.0880
     17 C          -1.6277    2.2708   -6.2738 C.3     1  UNL1       -0.0032
     18 C          -0.9008    2.7848   -7.5358 C.3     1  UNL1       -0.0200
     19 H          -0.2771    1.9912   -7.9636 H       1  UNL1        0.0312
     20 C          -0.0141    3.9827   -7.1280 C.3     1  UNL1       -0.0088
     21 C          -0.8459    5.0696   -6.4438 C.3     1  UNL1       -0.0312
     22 N          -2.2995    4.6487   -6.5004 N.4     1  UNL1        0.2399
     23 C          -2.7146    4.4701   -7.9628 C.3     1  UNL1       -0.0249
     24 C          -1.9346    3.2862   -8.5765 C.3     1  UNL1        0.0203
     25 H          -1.3842    3.6779   -9.4434 H       1  UNL1        0.0398
     26 C          -2.8282    2.1704   -9.0689 C.2     1  UNL1       -0.0828
     27 C          -2.9199    1.7719  -10.3435 C.2     1  UNL1       -0.1022
     28 O          -4.7008    2.8768   -6.6635 O.3     1  UNL1       -0.3815
     29 H          -3.3432    0.2052    0.9180 H       1  UNL1        0.0660
     30 H          -4.9640    0.8635    0.6513 H       1  UNL1        0.0660
     31 H          -3.7089    1.8209    1.5320 H       1  UNL1        0.0660
     32 H          -4.9365    3.5775    0.7667 H       1  UNL1        0.0655
     33 H          -6.0592    5.4073   -0.4080 H       1  UNL1        0.0640
     34 H          -3.4699    2.0674   -2.9446 H       1  UNL1        0.0661
     35 H          -5.4284    5.2668   -6.1726 H       1  UNL1        0.0636
     36 H          -6.5887    6.8383   -4.6599 H       1  UNL1        0.0830
     37 H          -0.8750    1.9504   -5.5404 H       1  UNL1        0.0324
     38 H          -2.2165    1.3731   -6.4881 H       1  UNL1        0.0324
     39 H           0.7873    3.6550   -6.4557 H       1  UNL1        0.0320
     40 H           0.4795    4.4043   -8.0124 H       1  UNL1        0.0320
     41 H          -0.7619    6.0391   -6.9454 H       1  UNL1        0.0814
     42 H          -0.5768    5.1969   -5.3897 H       1  UNL1        0.0814
     43 H          -3.8007    4.3955   -8.0230 H       1  UNL1        0.0820
     44 H          -2.4472    5.4077   -8.4649 H       1  UNL1        0.0820
     45 H          -3.4384    1.6309   -8.3467 H       1  UNL1        0.0571
     46 H          -3.5756    0.9466  -10.6144 H       1  UNL1        0.0532
     47 H          -2.3539    2.2329  -11.1462 H       1  UNL1        0.0532
     48 H          -5.6570    2.8439   -6.4660 H       1  UNL1        0.2105
     49 H          -2.8686    5.3991   -6.0896 H       1  UNL1        0.2037
@<TRIPOS>UNITY_ATOM_ATTR
22 1
charge 1
@<TRIPOS>BOND
     1     1     2    1
     2     1    29    1
     3     1    30    1
     4     1    31    1
     5     2     3    1
     6     3     8   ar
     7     3     4   ar
     8     4     5   ar
     9     4    32    1
    10     5     6   ar
    11     5    33    1
    12     6    12   ar
    13     6     7   ar
    14     7     8   ar
    15     7     9   ar
    16     8    34    1
    17     9    10   ar
    18    10    11   ar
    19    10    35    1
    20    11    12   ar
    21    11    36    1
    22    13    28    1
    23    15    22    1
    24    15    17    1
    25    17    18    1
    26    17    37    1
    27    17    38    1
    28    18    19    1
    29    18    24    1
    30    18    20    1
    31    20    21    1
    32    20    39    1
    33    20    40    1
    34    21    22    1
    35    21    41    1
    36    21    42    1
    37    22    23    1
    38    22    49    1
    39    23    24    1
    40    23    43    1
    41    23    44    1
    42    26    27    2
    43    26    45    1
    44    27    46    1
    45    27    47    1
    46    28    48    1
    47    13    14    1
    48    13     9    1
    49    15    16    1
    50    15    13    1
    51    24    26    1
    52    24    25    1
