@<TRIPOS>MOLECULE
ZINC03809192
 70 72 0 0 0
SMALL
GASTEIGER

@<TRIPOS>ATOM
      1 C          -8.0060    2.2344    0.4637 C.3     1  UNL1       -0.0615
      2 C          -7.4203    1.0136    1.1795 C.3     1  UNL1       -0.0323
      3 C          -7.6301    1.1755    2.6905 C.3     1  UNL1       -0.0615
      4 C          -8.0498   -0.3219    0.7318 C.3     1  UNL1        0.0229
      5 N          -7.8669   -0.6306   -0.7011 N.3     1  UNL1       -0.1738
      6 C          -6.4864   -0.6793   -1.2666 C.3     1  UNL1        0.0483
      7 C          -5.5124   -1.6101   -0.5232 C.3     1  UNL1        0.0882
      8 H          -5.5064   -1.3577    0.5418 H       1  UNL1        0.0625
      9 C          -4.0387   -1.5547   -1.0526 C.3     1  UNL1        0.0573
     10 H          -4.0322   -2.1031   -2.0065 H       1  UNL1        0.0528
     11 C          -3.1101   -2.3512   -0.1047 C.3     1  UNL1       -0.0066
     12 C          -1.7050   -2.6057   -0.6005 C.ar    1  UNL1       -0.0455
     13 C          -1.4085   -3.6809   -1.4557 C.ar    1  UNL1       -0.0585
     14 C          -0.0880   -3.9490   -1.8252 C.ar    1  UNL1       -0.0615
     15 C           0.9502   -3.1504   -1.3489 C.ar    1  UNL1       -0.0617
     16 C           0.6652   -2.0756   -0.5099 C.ar    1  UNL1       -0.0615
     17 C          -0.6535   -1.8035   -0.1408 C.ar    1  UNL1       -0.0585
     18 N          -3.5737   -0.2220   -1.4481 N.am    1  UNL1       -0.2754
     19 C          -3.3680    0.9597   -0.8065 C.2     1  UNL1        0.4009
     20 O          -3.2887    1.9751   -1.4927 O.2     1  UNL1       -0.2265
     21 O          -3.2997    0.9448    0.5510 O.3     1  UNL1       -0.4447
     22 C          -3.2640    2.2772    1.1054 C.3     1  UNL1        0.1299
     23 H          -4.1866    2.7961    0.8128 H       1  UNL1        0.0758
     24 C          -3.1888    2.2976    2.6205 C.3     1  UNL1        0.0101
     25 C          -2.8287    3.7487    2.8695 C.3     1  UNL1        0.0513
     26 O          -1.8900    4.0965    1.8432 O.3     1  UNL1       -0.3760
     27 C          -2.0499    3.1491    0.7649 C.3     1  UNL1        0.0848
     28 O          -5.9918   -2.9636   -0.6184 O.3     1  UNL1       -0.3886
     29 S          -9.1488   -1.3866   -1.5242 S.O2    1  UNL1        0.0609
     30 O         -10.3766   -0.7312   -1.1190 O.2     1  UNL1       -0.1528
     31 O          -8.7914   -1.4627   -2.9308 O.2     1  UNL1       -0.1528
     32 C          -9.2620   -3.0657   -0.9184 C.ar    1  UNL1        0.1056
     33 C          -9.9038   -3.3150    0.2936 C.ar    1  UNL1       -0.0336
     34 C         -10.1511   -4.6434    0.6960 C.ar    1  UNL1       -0.0392
     35 C          -9.8216   -5.7179   -0.1351 C.ar    1  UNL1        0.0247
     36 C          -9.1548   -5.4537   -1.3360 C.ar    1  UNL1       -0.0392
     37 C          -8.8950   -4.1331   -1.7438 C.ar    1  UNL1       -0.0336
     38 N          -9.9637   -7.0325    0.3212 N.pl3   1  UNL1       -0.3580
     39 H          -9.1001    2.2413    0.5086 H       1  UNL1        0.0233
     40 H          -7.7045    2.2637   -0.5873 H       1  UNL1        0.0233
     41 H          -7.6506    3.1624    0.9293 H       1  UNL1        0.0233
     42 H          -6.3404    0.9973    0.9958 H       1  UNL1        0.0308
     43 H          -8.6965    1.2374    2.9361 H       1  UNL1        0.0233
     44 H          -7.2050    0.3268    3.2357 H       1  UNL1        0.0233
     45 H          -7.1464    2.0861    3.0596 H       1  UNL1        0.0233
     46 H          -7.6376   -1.1468    1.3222 H       1  UNL1        0.0446
     47 H          -9.1191   -0.2789    0.9722 H       1  UNL1        0.0446
     48 H          -6.5236   -0.9687   -2.3230 H       1  UNL1        0.0470
     49 H          -6.1137    0.3498   -1.2594 H       1  UNL1        0.0470
     50 H          -3.0704   -1.8654    0.8759 H       1  UNL1        0.0332
     51 H          -3.5578   -3.3377    0.0817 H       1  UNL1        0.0332
     52 H          -2.1958   -4.3384   -1.8171 H       1  UNL1        0.0620
     53 H           0.1401   -4.7955   -2.4717 H       1  UNL1        0.0618
     54 H           1.9790   -3.3672   -1.6233 H       1  UNL1        0.0618
     55 H           1.4718   -1.4552   -0.1285 H       1  UNL1        0.0618
     56 H          -0.8543   -0.9732    0.5320 H       1  UNL1        0.0620
     57 H          -3.5830   -0.0455   -2.4455 H       1  UNL1        0.1524
     58 H          -2.3882    1.6378    2.9759 H       1  UNL1        0.0324
     59 H          -4.1181    1.9971    3.1104 H       1  UNL1        0.0324
     60 H          -3.7026    4.4028    2.7585 H       1  UNL1        0.0561
     61 H          -2.3861    3.9295    3.8531 H       1  UNL1        0.0561
     62 H          -1.1230    2.5703    0.6787 H       1  UNL1        0.0597
     63 H          -2.1818    3.7198   -0.1610 H       1  UNL1        0.0597
     64 H          -5.7665   -3.3222   -1.4955 H       1  UNL1        0.2099
     65 H         -10.2587   -2.5060    0.9209 H       1  UNL1        0.0638
     66 H         -10.6309   -4.8248    1.6534 H       1  UNL1        0.0636
     67 H          -8.8498   -6.2753   -1.9779 H       1  UNL1        0.0636
     68 H          -8.4373   -3.9611   -2.7116 H       1  UNL1        0.0638
     69 H         -10.6746   -7.1540    1.0343 H       1  UNL1        0.1423
     70 H         -10.0443   -7.7220   -0.4194 H       1  UNL1        0.1423
@<TRIPOS>BOND
     1     1     2    1
     2     1    39    1
     3     1    40    1
     4     1    41    1
     5     2     3    1
     6     2     4    1
     7     2    42    1
     8     3    43    1
     9     3    44    1
    10     3    45    1
    11     4     5    1
    12     4    46    1
    13     4    47    1
    14     5     6    1
    15     5    29    1
    16     6    48    1
    17     6    49    1
    18     7    28    1
    19     9    11    1
    20     9    18    1
    21    11    12    1
    22    11    50    1
    23    11    51    1
    24    12    17   ar
    25    12    13   ar
    26    13    14   ar
    27    13    52    1
    28    14    15   ar
    29    14    53    1
    30    15    16   ar
    31    15    54    1
    32    16    17   ar
    33    16    55    1
    34    17    56    1
    35    18    19   am
    36    18    57    1
    37    19    20    2
    38    19    21    1
    39    22    27    1
    40    22    24    1
    41    24    25    1
    42    24    58    1
    43    24    59    1
    44    25    26    1
    45    25    60    1
    46    25    61    1
    47    26    27    1
    48    27    62    1
    49    27    63    1
    50    28    64    1
    51    29    30    2
    52    29    31    2
    53    29    32    1
    54    32    37   ar
    55    32    33   ar
    56    33    34   ar
    57    33    65    1
    58    34    35   ar
    59    34    66    1
    60    35    36   ar
    61    35    38    1
    62    36    37   ar
    63    36    67    1
    64    37    68    1
    65    38    69    1
    66    38    70    1
    67     7     8    1
    68     7     6    1
    69     9    10    1
    70     9     7    1
    71    22    23    1
    72    22    21    1
