@<TRIPOS>MOLECULE
ZINC00001621
 18 18 0 0 0
SMALL
GASTEIGER

@<TRIPOS>ATOM
      1 C           0.7321    1.2935   -0.2391 C.3     1  UNL1        0.0691
      2 C          -0.7458    1.2929    0.2048 C.3     1  UNL1        0.0691
      3 C          -1.4971    0.0410   -0.3030 C.3     1  UNL1        0.0691
      4 C          -0.7460   -1.2357    0.1324 C.3     1  UNL1        0.0691
      5 C           0.7569   -1.2694   -0.2307 C.3     1  UNL1        0.0691
      6 C           1.4683    0.0151    0.2294 C.3     1  UNL1        0.0691
      7 CL          1.6173   -0.0458    2.0338 Cl      1  UNL1       -0.1187
      8 CL          1.0829   -1.5242   -1.9780 Cl      1  UNL1       -0.1187
      9 CL         -1.5958   -2.7360   -0.3620 Cl      1  UNL1       -0.1187
     10 CL         -1.7771    0.1060   -2.0801 Cl      1  UNL1       -0.1187
     11 CL         -1.6107    2.7972   -0.2751 Cl      1  UNL1       -0.1187
     12 CL          1.6122    2.7544    0.3443 Cl      1  UNL1       -0.1187
     13 H           0.7885    1.3594   -1.3313 H       1  UNL1        0.0495
     14 H          -0.7952    1.2962    1.2996 H       1  UNL1        0.0495
     15 H          -2.5003    0.0279    0.1406 H       1  UNL1        0.0495
     16 H          -0.8121   -1.2691    1.2264 H       1  UNL1        0.0495
     17 H           1.2190   -2.1364    0.2558 H       1  UNL1        0.0495
     18 H           2.5016    0.0255   -0.1374 H       1  UNL1        0.0495
@<TRIPOS>BOND
     1     1     6    1
     2     1     2    1
     3     1    12    1
     4     1    13    1
     5     2     3    1
     6     3     4    1
     7     3    10    1
     8     3    15    1
     9     4     5    1
    10     4     9    1
    11     4    16    1
    12     5     6    1
    13     5     8    1
    14     5    17    1
    15     2    14    1
    16     2    11    1
    17     6    18    1
    18     6     7    1
