@<TRIPOS>MOLECULE
ZINC00057321
 44 45 0 0 0
SMALL
GASTEIGER

@<TRIPOS>ATOM
      1 C           3.1845    0.4858   -0.4626 C.3     1  UNL1       -0.0213
      2 C           2.5082   -0.8709   -0.2932 C.3     1  UNL1       -0.0214
      3 H           1.4326   -0.7201   -0.1420 H       1  UNL1        0.0851
      4 C           2.6766   -1.8074   -1.5124 C.3     1  UNL1        0.0152
      5 C           4.0650   -2.1261   -2.0298 C.ar    1  UNL1       -0.0418
      6 C           4.6087   -1.3801   -3.0929 C.ar    1  UNL1       -0.0549
      7 C           5.8036   -1.7691   -3.7102 C.ar    1  UNL1       -0.0199
      8 C           6.4626   -2.9035   -3.2692 C.ar    1  UNL1        0.1169
      9 C           5.9717   -3.6326   -2.1903 C.ar    1  UNL1       -0.0199
     10 C           4.7754   -3.2451   -1.5689 C.ar    1  UNL1       -0.0549
     11 O           7.5891   -3.3618   -3.8837 O.3     1  UNL1       -0.5068
     12 N           3.0013   -1.5338    0.9553 N.4     1  UNL1        0.2313
     13 C           2.5591   -0.9450    2.2850 C.3     1  UNL1       -0.0025
     14 C           2.9040   -1.9203    3.4413 C.3     1  UNL1        0.1199
     15 H           2.4153   -1.5751    4.3609 H       1  UNL1        0.0698
     16 C           4.3864   -2.0988    3.6696 C.ar    1  UNL1       -0.0072
     17 C           5.0301   -1.5257    4.7731 C.ar    1  UNL1       -0.0141
     18 C           6.4041   -1.7019    4.9502 C.ar    1  UNL1        0.1207
     19 C           7.1710   -2.4135    4.0272 C.ar    1  UNL1        0.0213
     20 C           6.5301   -2.9852    2.9436 C.ar    1  UNL1        0.1207
     21 C           5.1570   -2.8626    2.7800 C.ar    1  UNL1       -0.0141
     22 O           7.1904   -3.6854    1.9800 O.3     1  UNL1       -0.5066
     23 O           6.9675   -1.1522    6.0627 O.3     1  UNL1       -0.5066
     24 O           2.3437   -3.1954    3.0994 O.3     1  UNL1       -0.3819
     25 H           2.7202    1.0392   -1.2853 H       1  UNL1        0.0284
     26 H           4.2534    0.3904   -0.6744 H       1  UNL1        0.0284
     27 H           3.0818    1.1035    0.4350 H       1  UNL1        0.0284
     28 H           2.1743   -2.7610   -1.3003 H       1  UNL1        0.0368
     29 H           2.1070   -1.3763   -2.3480 H       1  UNL1        0.0368
     30 H           4.0865   -0.5113   -3.4869 H       1  UNL1        0.0621
     31 H           6.1784   -1.1952   -4.5580 H       1  UNL1        0.0654
     32 H           6.4988   -4.5235   -1.8640 H       1  UNL1        0.0654
     33 H           4.3920   -3.8764   -0.7736 H       1  UNL1        0.0621
     34 H           7.7427   -2.8525   -4.6976 H       1  UNL1        0.2921
     35 H           2.6783   -2.5159    0.9881 H       1  UNL1        0.2017
     36 H           3.0338    0.0315    2.4054 H       1  UNL1        0.0843
     37 H           1.4708   -0.8363    2.2133 H       1  UNL1        0.0843
     38 H           4.4800   -0.9604    5.5240 H       1  UNL1        0.0658
     39 H           8.2414   -2.5238    4.1628 H       1  UNL1        0.0691
     40 H           4.7011   -3.3944    1.9496 H       1  UNL1        0.0658
     41 H           8.1399   -3.7095    2.1874 H       1  UNL1        0.2921
     42 H           7.8987   -1.4270    6.1283 H       1  UNL1        0.2921
     43 H           2.6874   -3.8348    3.7580 H       1  UNL1        0.2105
     44 H           4.0280   -1.5743    0.9205 H       1  UNL1        0.2017
@<TRIPOS>UNITY_ATOM_ATTR
12 1
charge 1
@<TRIPOS>BOND
     1     1     2    1
     2     1    25    1
     3     1    26    1
     4     1    27    1
     5     2     3    1
     6     2     4    1
     7     2    12    1
     8     4     5    1
     9     4    28    1
    10     4    29    1
    11     5    10   ar
    12     5     6   ar
    13     6     7   ar
    14     6    30    1
    15     7     8   ar
    16     7    31    1
    17     8     9   ar
    18     8    11    1
    19     9    10   ar
    20     9    32    1
    21    10    33    1
    22    11    34    1
    23    12    13    1
    24    12    35    1
    25    12    44    1
    26    13    36    1
    27    13    37    1
    28    14    16    1
    29    14    24    1
    30    16    21   ar
    31    16    17   ar
    32    17    18   ar
    33    17    38    1
    34    18    19   ar
    35    18    23    1
    36    19    20   ar
    37    19    39    1
    38    20    21   ar
    39    20    22    1
    40    21    40    1
    41    22    41    1
    42    23    42    1
    43    24    43    1
    44    14    15    1
    45    14    13    1
