@<TRIPOS>MOLECULE
ZINC02012726
 43 46 0 0 0
SMALL
GASTEIGER

@<TRIPOS>ATOM
      1 C           1.5217    0.1676   -2.0735 C.3     1  UNL1       -0.0067
      2 C           1.0174    1.3004   -2.9268 C.2     1  UNL1        0.1032
      3 C           0.4423    2.3429   -2.3039 C.2     1  UNL1        0.0378
      4 C          -0.7023    2.7762   -3.0941 C.2     1  UNL1        0.2464
      5 O          -1.0041    3.9344   -3.2951 O.2     1  UNL1       -0.2704
      6 N          -1.3094    1.6185   -3.5638 N.am    1  UNL1       -0.2434
      7 C          -2.3969    1.0229   -2.8879 C.3     1  UNL1        0.0960
      8 C          -3.5868    0.6689   -3.7460 C.2     1  UNL1        0.2371
      9 O          -4.5698    0.1798   -3.1716 O.2     1  UNL1       -0.2735
     10 N          -3.5396    0.7934   -5.1368 N.am    1  UNL1       -0.2727
     11 C          -2.7855    1.7789   -5.8729 C.ar    1  UNL1        0.0450
     12 C          -3.5148    2.6246   -6.7215 C.ar    1  UNL1       -0.0384
     13 C          -2.8804    3.6414   -7.4258 C.ar    1  UNL1       -0.0416
     14 C          -1.4978    3.7966   -7.3275 C.ar    1  UNL1        0.0415
     15 C          -0.7258    2.9569   -6.5129 C.ar    1  UNL1       -0.0326
     16 C          -1.3584    1.9457   -5.7626 C.ar    1  UNL1        0.0421
     17 C          -0.6323    1.0482   -4.7094 C.3     1  UNL1        0.2350
     18 O           0.7920    1.0993   -4.3298 O.2     1  UNL1       -0.4642
     19 C          -0.7098   -0.3993   -5.2908 C.ar    1  UNL1        0.0195
     20 C          -1.1558   -1.5442   -4.6029 C.ar    1  UNL1       -0.0528
     21 C          -1.2881   -2.7603   -5.2792 C.ar    1  UNL1       -0.0613
     22 C          -0.9512   -2.8894   -6.6230 C.ar    1  UNL1       -0.0617
     23 C          -0.4418   -1.7974   -7.3049 C.ar    1  UNL1       -0.0613
     24 C          -0.3139   -0.5808   -6.6394 C.ar    1  UNL1       -0.0528
     25 CL         -0.7517    5.0719   -8.2129 Cl      1  UNL1       -0.0835
     26 C          -4.6070    0.0904   -5.8247 C.3     1  UNL1        0.0083
     27 H           1.0295   -0.7742   -2.3402 H       1  UNL1        0.0308
     28 H           1.2565    0.3334   -1.0149 H       1  UNL1        0.0308
     29 H           2.6034    0.0506   -2.1189 H       1  UNL1        0.0308
     30 H           0.4402    2.5628   -1.2464 H       1  UNL1        0.0703
     31 H          -2.0158    0.1103   -2.4216 H       1  UNL1        0.0562
     32 H          -2.7146    1.6794   -2.0682 H       1  UNL1        0.0562
     33 H          -4.5980    2.5492   -6.7846 H       1  UNL1        0.0637
     34 H          -3.4807    4.3204   -8.0273 H       1  UNL1        0.0633
     35 H           0.3451    3.1189   -6.4337 H       1  UNL1        0.0637
     36 H          -1.4161   -1.5070   -3.5630 H       1  UNL1        0.0622
     37 H          -1.6671   -3.6239   -4.7422 H       1  UNL1        0.0618
     38 H          -1.0860   -3.8369   -7.1395 H       1  UNL1        0.0618
     39 H          -0.1710   -1.8865   -8.3522 H       1  UNL1        0.0618
     40 H           0.0896    0.2594   -7.2135 H       1  UNL1        0.0622
     41 H          -4.6685   -0.9279   -5.4187 H       1  UNL1        0.0433
     42 H          -5.5602    0.5926   -5.6326 H       1  UNL1        0.0433
     43 H          -4.4061    0.0061   -6.8948 H       1  UNL1        0.0433
@<TRIPOS>BOND
     1     1     2    1
     2     1    27    1
     3     1    28    1
     4     1    29    1
     5     2    18    1
     6     2     3    2
     7     3     4    1
     8     3    30    1
     9     4     5    2
    10     4     6   am
    11     6    17    1
    12     6     7    1
    13     7     8    1
    14     7    31    1
    15     7    32    1
    16     8     9    2
    17     8    10   am
    18    10    11    1
    19    10    26    1
    20    11    16   ar
    21    11    12   ar
    22    12    13   ar
    23    12    33    1
    24    13    14   ar
    25    13    34    1
    26    14    15   ar
    27    14    25    1
    28    15    16   ar
    29    15    35    1
    30    16    17    1
    31    17    18    1
    32    17    19    1
    33    19    24   ar
    34    19    20   ar
    35    20    21   ar
    36    20    36    1
    37    21    22   ar
    38    21    37    1
    39    22    23   ar
    40    22    38    1
    41    23    24   ar
    42    23    39    1
    43    24    40    1
    44    26    41    1
    45    26    42    1
    46    26    43    1
