@<TRIPOS>MOLECULE
ZINC03812923
 47 50 0 0 0
SMALL
GASTEIGER

@<TRIPOS>ATOM
      1 C           3.4630   -3.7880   -3.4107 C.3     1  UNL1        0.0789
      2 O           3.1080   -4.0939   -2.0669 O.3     1  UNL1       -0.4932
      3 C           1.9680   -3.4897   -1.6048 C.ar    1  UNL1        0.1430
      4 C           1.1636   -4.2686   -0.7741 C.ar    1  UNL1        0.0064
      5 C           0.0511   -3.7304   -0.1012 C.ar    1  UNL1        0.0775
      6 C          -0.3513   -2.4343   -0.4382 C.ar    1  UNL1       -0.0352
      7 C           0.4295   -1.6478   -1.2757 C.ar    1  UNL1       -0.0351
      8 C           1.6483   -2.1362   -1.7719 C.ar    1  UNL1        0.0737
      9 N           2.6902   -1.2139   -2.0825 N.pl3   1  UNL1       -0.3109
     10 C           2.4645   -0.1436   -2.9227 C.2     1  UNL1        0.0461
     11 C           2.6391    1.2780   -2.3962 C.ar    1  UNL1        0.0173
     12 C           1.9448    1.5443   -1.2119 C.ar    1  UNL1       -0.0510
     13 C           0.7558    2.2571   -1.3197 C.ar    1  UNL1       -0.0610
     14 C           0.4026    2.8213   -2.5490 C.ar    1  UNL1       -0.0600
     15 C           1.3242    2.8493   -3.6089 C.ar    1  UNL1       -0.0402
     16 C           2.5442    2.1830   -3.4794 C.ar    1  UNL1        0.0371
     17 N           3.3983    1.9346   -4.6335 N.pl3   1  UNL1       -0.3282
     18 C           3.5045    0.5653   -4.9359 C.3     1  UNL1        0.1071
     19 C           2.5185   -0.2995   -4.2647 C.2     1  UNL1        0.0041
     20 C           1.3193   -0.4597   -5.1247 C.2     1  UNL1       -0.0544
     21 C           1.5371   -0.4917   -6.4617 C.2     1  UNL1       -0.0616
     22 C           2.9160   -0.5096   -6.9684 C.2     1  UNL1       -0.0633
     23 C           3.8992    0.0662   -6.2407 C.2     1  UNL1       -0.0538
     24 N          -0.5419   -4.4156    0.8980 N.pl3   1  UNL1       -0.1027
     25 S          -0.2668   -3.9972    2.4109 S.O2    1  UNL1        0.0595
     26 O          -0.3781   -2.5838    2.7634 O.2     1  UNL1       -0.1538
     27 O          -0.7882   -4.9209    3.4247 O.2     1  UNL1       -0.1538
     28 C           1.5264   -4.2947    2.5322 C.3     1  UNL1        0.0754
     29 H           3.4476   -4.7129   -3.9940 H       1  UNL1        0.0660
     30 H           4.4916   -3.4047   -3.4244 H       1  UNL1        0.0660
     31 H           2.8075   -3.0790   -3.9244 H       1  UNL1        0.0660
     32 H           1.4658   -5.2958   -0.5702 H       1  UNL1        0.0674
     33 H          -1.2222   -1.9928    0.0419 H       1  UNL1        0.0638
     34 H           0.1399   -0.6126   -1.4302 H       1  UNL1        0.0638
     35 H           3.0624   -0.9190   -1.1815 H       1  UNL1        0.1523
     36 H           2.1465    0.9843   -0.3020 H       1  UNL1        0.0625
     37 H           0.0577    2.2555   -0.4848 H       1  UNL1        0.0618
     38 H          -0.6085    3.1938   -2.6915 H       1  UNL1        0.0618
     39 H           1.0296    3.2549   -4.5716 H       1  UNL1        0.0636
     40 H           0.3277   -0.3186   -4.7043 H       1  UNL1        0.0622
     41 H           0.7283   -0.4227   -7.1809 H       1  UNL1        0.0618
     42 H           3.1212   -1.0665   -7.8738 H       1  UNL1        0.0615
     43 H           4.9486   -0.0592   -6.4718 H       1  UNL1        0.0597
     44 H           1.7459   -5.2935    2.1607 H       1  UNL1        0.0483
     45 H           2.0627   -3.5338    1.9556 H       1  UNL1        0.0483
     46 H           1.8169   -4.2162    3.5785 H       1  UNL1        0.0483
     47 H           4.3415    2.1878   -4.3344 H       1  UNL1        0.1473
@<TRIPOS>BOND
     1     1     2    1
     2     1    29    1
     3     1    30    1
     4     1    31    1
     5     2     3    1
     6     3     8   ar
     7     3     4   ar
     8     4     5   ar
     9     4    32    1
    10     5     6   ar
    11     5    24    1
    12     6     7   ar
    13     6    33    1
    14     7     8   ar
    15     7    34    1
    16     8     9    1
    17     9    10    1
    18     9    35    1
    19    10    19    2
    20    10    11    1
    21    11    16   ar
    22    11    12   ar
    23    12    13   ar
    24    12    36    1
    25    13    14   ar
    26    13    37    1
    27    14    15   ar
    28    14    38    1
    29    15    16   ar
    30    15    39    1
    31    16    17    1
    32    17    18    1
    33    17    47    1
    34    18    23    1
    35    18    19    1
    36    19    20    1
    37    20    21    2
    38    20    40    1
    39    21    22    1
    40    21    41    1
    41    22    23    2
    42    22    42    1
    43    23    43    1
    44    24    25    1
    45    25    26    2
    46    25    27    2
    47    25    28    1
    48    28    44    1
    49    28    45    1
    50    28    46    1
