@<TRIPOS>MOLECULE
ZINC03831429
 35 37 0 0 0
SMALL
GASTEIGER

@<TRIPOS>ATOM
      1 C           3.1213    2.4643   -0.1516 C.3     1  UNL1       -0.0212
      2 C           2.0183    1.4076   -0.0592 C.3     1  UNL1       -0.0215
      3 H           2.1536    0.8504    0.8756 H       1  UNL1        0.0853
      4 C           0.5524    1.9419   -0.1341 C.3     1  UNL1        0.0140
      5 C           0.2876    2.9328    1.0369 C.3     1  UNL1       -0.0394
      6 C          -1.1652    3.4429    1.0173 C.3     1  UNL1       -0.0398
      7 C          -1.4336    4.1613   -0.3150 C.3     1  UNL1       -0.0473
      8 C          -1.2148    3.1915   -1.4870 C.3     1  UNL1       -0.0398
      9 C           0.2374    2.6840   -1.4652 C.3     1  UNL1       -0.0394
     10 C          -2.1718    1.9993   -1.3448 C.3     1  UNL1       -0.0473
     11 C          -1.9143    1.2767   -0.0137 C.3     1  UNL1       -0.0398
     12 C          -2.1253    2.2539    1.1516 C.3     1  UNL1       -0.0473
     13 C          -0.4634    0.7691    0.0090 C.3     1  UNL1       -0.0394
     14 N           2.2720    0.3936   -1.1311 N.4     1  UNL1        0.2209
     15 H           3.9949    2.1078   -0.7093 H       1  UNL1        0.0284
     16 H           3.4698    2.7281    0.8544 H       1  UNL1        0.0284
     17 H           2.7922    3.3902   -0.6267 H       1  UNL1        0.0284
     18 H           0.9668    3.7927    0.9757 H       1  UNL1        0.0275
     19 H           0.4891    2.4415    1.9968 H       1  UNL1        0.0275
     20 H          -1.3233    4.1379    1.8475 H       1  UNL1        0.0301
     21 H          -2.4627    4.5438   -0.3337 H       1  UNL1        0.0271
     22 H          -0.7705    5.0286   -0.4149 H       1  UNL1        0.0271
     23 H          -1.4092    3.7088   -2.4333 H       1  UNL1        0.0301
     24 H           0.3945    2.0217   -2.3237 H       1  UNL1        0.0275
     25 H           0.9061    3.5418   -1.6036 H       1  UNL1        0.0275
     26 H          -3.2118    2.3441   -1.3895 H       1  UNL1        0.0271
     27 H          -2.0313    1.3045   -2.1822 H       1  UNL1        0.0271
     28 H          -2.6023    0.4303    0.0850 H       1  UNL1        0.0301
     29 H          -3.1650    2.6083    1.1577 H       1  UNL1        0.0271
     30 H          -1.9599    1.7410    2.1061 H       1  UNL1        0.0271
     31 H          -0.3474    0.0457   -0.8056 H       1  UNL1        0.0275
     32 H          -0.2790    0.2240    0.9439 H       1  UNL1        0.0275
     33 H           1.6549   -0.4219   -1.0444 H       1  UNL1        0.1997
     34 H           2.1510    0.7841   -2.0757 H       1  UNL1        0.1997
     35 H           3.2329    0.0300   -1.0755 H       1  UNL1        0.1997
@<TRIPOS>UNITY_ATOM_ATTR
14 1
charge 1
@<TRIPOS>BOND
     1     1     2    1
     2     1    15    1
     3     1    16    1
     4     1    17    1
     5     2     3    1
     6     2    14    1
     7     4     2    1
     8     4     9    1
     9     4    13    1
    10     4     5    1
    11     5     6    1
    12     5    18    1
    13     5    19    1
    14     6    12    1
    15     6     7    1
    16     6    20    1
    17     7     8    1
    18     7    21    1
    19     7    22    1
    20     8     9    1
    21     8    10    1
    22     8    23    1
    23     9    24    1
    24     9    25    1
    25    10    11    1
    26    10    26    1
    27    10    27    1
    28    11    12    1
    29    11    13    1
    30    11    28    1
    31    12    29    1
    32    12    30    1
    33    13    31    1
    34    13    32    1
    35    14    33    1
    36    14    34    1
    37    14    35    1
