@<TRIPOS>MOLECULE
ZINC00121458
 25 26 0 0 0
SMALL
GASTEIGER

@<TRIPOS>ATOM
      1 C           0.2061    1.2238    0.0032 C.ar    1  UNL1       -0.0392
      2 C          -1.1917    1.2279   -0.0319 C.ar    1  UNL1       -0.0331
      3 C          -1.8813    0.0138   -0.0612 C.ar    1  UNL1        0.1127
      4 C          -1.1841   -1.1956   -0.0382 C.ar    1  UNL1       -0.0331
      5 C           0.2128   -1.1840   -0.0017 C.ar    1  UNL1       -0.0392
      6 C           0.9214    0.0217   -0.0242 C.ar    1  UNL1        0.0247
      7 N           2.3067    0.0226    0.1735 N.pl3   1  UNL1       -0.3580
      8 S          -3.6560    0.0015    0.0336 S.O2    1  UNL1        0.1011
      9 O          -4.0464   -1.2497    0.6568 O.2     1  UNL1       -0.1463
     10 O          -4.0641    1.2502    0.6534 O.2     1  UNL1       -0.1463
     11 N          -4.1495   -0.0042   -1.5002 N.2     1  UNL1       -0.1034
     12 C          -5.4154   -0.0312   -1.6900 C.ar    1  UNL1        0.1913
     13 N          -6.5115   -0.0602   -0.8589 N.ar    1  UNL1       -0.3391
     14 C          -7.7384   -0.0650   -1.4682 C.ar    1  UNL1        0.0106
     15 C          -7.6933   -0.0483   -2.8068 C.ar    1  UNL1       -0.0049
     16 S          -6.0342   -0.0285   -3.3782 S.2     1  UNL1       -0.0568
     17 H           0.7347    2.1719    0.0695 H       1  UNL1        0.0636
     18 H          -1.7274    2.1740   -0.0040 H       1  UNL1        0.0638
     19 H          -1.7141   -2.1451   -0.0161 H       1  UNL1        0.0638
     20 H           0.7459   -2.1296    0.0610 H       1  UNL1        0.0636
     21 H           2.7706   -0.8219   -0.1457 H       1  UNL1        0.1423
     22 H           2.7717    0.8644   -0.1508 H       1  UNL1        0.1423
     23 H          -8.6290   -0.0781   -0.8536 H       1  UNL1        0.0813
     24 H          -8.5449   -0.0451   -3.4725 H       1  UNL1        0.0709
     25 H          -6.4366   -0.0629    0.1510 H       1  UNL1        0.1673
@<TRIPOS>BOND
     1     1     6   ar
     2     1     2   ar
     3     1    17    1
     4     2     3   ar
     5     2    18    1
     6     3     4   ar
     7     3     8    1
     8     4     5   ar
     9     4    19    1
    10     5     6   ar
    11     5    20    1
    12     6     7    1
    13     7    21    1
    14     7    22    1
    15     8     9    2
    16     8    10    2
    17     8    11    1
    18    11    12    2
    19    12    16   ar
    20    12    13   ar
    21    13    14   ar
    22    13    25    1
    23    14    15   ar
    24    14    23    1
    25    15    16   ar
    26    15    24    1
