@<TRIPOS>MOLECULE
ZINC03831404
 49 52 0 0 0
SMALL
GASTEIGER

@<TRIPOS>ATOM
      1 C          -8.4224    2.2843    5.2409 C.3     1  UNL1        0.0788
      2 O          -7.2300    3.0314    5.0002 O.3     1  UNL1       -0.4951
      3 C          -6.7878    3.0232    3.7074 C.ar    1  UNL1        0.1208
      4 C          -7.5843    2.8480    2.5862 C.ar    1  UNL1       -0.0179
      5 C          -6.9970    2.8491    1.3196 C.ar    1  UNL1       -0.0323
      6 C          -5.6368    3.0287    1.1371 C.ar    1  UNL1        0.0715
      7 C          -4.8084    3.2372    2.2667 C.ar    1  UNL1        0.0097
      8 C          -5.4173    3.2378    3.5456 C.ar    1  UNL1       -0.0104
      9 C          -3.4178    3.4225    2.0308 C.ar    1  UNL1       -0.0031
     10 C          -2.9542    3.3869    0.7045 C.ar    1  UNL1       -0.0372
     11 C          -3.8518    3.1651   -0.3177 C.ar    1  UNL1        0.0286
     12 N          -5.1690    2.9972   -0.1159 N.ar    1  UNL1       -0.2550
     13 C          -2.4294    3.6635    3.1587 C.3     1  UNL1        0.1232
     14 H          -2.7212    3.0639    4.0279 H       1  UNL1        0.0701
     15 C          -2.3473    5.1659    3.5908 C.3     1  UNL1        0.0102
     16 H          -3.3538    5.4984    3.8769 H       1  UNL1        0.0880
     17 C          -1.7789    6.1269    2.5279 C.3     1  UNL1       -0.0032
     18 C          -0.6274    6.9739    3.1033 C.3     1  UNL1       -0.0200
     19 H          -0.2459    7.6560    2.3350 H       1  UNL1        0.0312
     20 C           0.4793    5.9865    3.5225 C.3     1  UNL1       -0.0088
     21 C          -0.0104    5.0874    4.6553 C.3     1  UNL1       -0.0312
     22 N          -1.4908    5.3507    4.8743 N.4     1  UNL1        0.2399
     23 C          -1.6635    6.7693    5.4022 C.3     1  UNL1       -0.0249
     24 C          -1.0849    7.7565    4.3631 C.3     1  UNL1        0.0203
     25 H          -0.1910    8.2171    4.8079 H       1  UNL1        0.0398
     26 C          -2.0688    8.8539    4.0424 C.2     1  UNL1       -0.0828
     27 C          -1.8376   10.1506    4.2858 C.2     1  UNL1       -0.1022
     28 O          -1.1365    3.1675    2.7975 O.3     1  UNL1       -0.3815
     29 H          -8.5748    2.2382    6.3235 H       1  UNL1        0.0660
     30 H          -8.3239    1.2574    4.8718 H       1  UNL1        0.0660
     31 H          -9.2953    2.7785    4.8033 H       1  UNL1        0.0660
     32 H          -8.6597    2.7168    2.6544 H       1  UNL1        0.0655
     33 H          -7.6286    2.7037    0.4426 H       1  UNL1        0.0640
     34 H          -4.8378    3.3792    4.4536 H       1  UNL1        0.0661
     35 H          -1.9059    3.5230    0.4536 H       1  UNL1        0.0636
     36 H          -3.5290    3.1133   -1.3541 H       1  UNL1        0.0830
     37 H          -1.4117    5.5831    1.6514 H       1  UNL1        0.0324
     38 H          -2.5839    6.7715    2.1550 H       1  UNL1        0.0324
     39 H           0.7830    5.3719    2.6658 H       1  UNL1        0.0320
     40 H           1.3765    6.5286    3.8429 H       1  UNL1        0.0320
     41 H           0.4965    5.3244    5.5975 H       1  UNL1        0.0814
     42 H           0.1432    4.0228    4.4745 H       1  UNL1        0.0814
     43 H          -2.7295    6.9122    5.6084 H       1  UNL1        0.0820
     44 H          -1.1199    6.8260    6.3524 H       1  UNL1        0.0820
     45 H          -3.0241    8.5872    3.5918 H       1  UNL1        0.0571
     46 H          -2.5803   10.9056    4.0370 H       1  UNL1        0.0532
     47 H          -0.9111   10.5073    4.7281 H       1  UNL1        0.0532
     48 H          -1.2634    2.2757    2.4169 H       1  UNL1        0.2105
     49 H          -1.8258    4.6966    5.5926 H       1  UNL1        0.2037
@<TRIPOS>UNITY_ATOM_ATTR
22 1
charge 1
@<TRIPOS>BOND
     1     1     2    1
     2     1    29    1
     3     1    30    1
     4     1    31    1
     5     2     3    1
     6     3     8   ar
     7     3     4   ar
     8     4     5   ar
     9     4    32    1
    10     5     6   ar
    11     5    33    1
    12     6    12   ar
    13     6     7   ar
    14     7     8   ar
    15     7     9   ar
    16     8    34    1
    17     9    10   ar
    18    10    11   ar
    19    10    35    1
    20    11    12   ar
    21    11    36    1
    22    13    15    1
    23    13    28    1
    24    15    16    1
    25    15    22    1
    26    15    17    1
    27    17    18    1
    28    17    37    1
    29    17    38    1
    30    18    19    1
    31    18    24    1
    32    18    20    1
    33    20    21    1
    34    20    39    1
    35    20    40    1
    36    21    22    1
    37    21    41    1
    38    21    42    1
    39    22    23    1
    40    22    49    1
    41    23    24    1
    42    23    43    1
    43    23    44    1
    44    26    27    2
    45    26    45    1
    46    27    46    1
    47    27    47    1
    48    28    48    1
    49    13    14    1
    50    13     9    1
    51    24    26    1
    52    24    25    1
