@<TRIPOS>MOLECULE
ZINC01530797
 31 32 0 0 0
SMALL
GASTEIGER

@<TRIPOS>ATOM
      1 C          -0.9884    1.4768   -0.0251 C.3     1  UNL1       -0.0640
      2 C           0.4973    1.4442    0.3147 C.3     1  UNL1       -0.0378
      3 C           0.9300    1.7789    1.7804 C.3     1  UNL1        0.0724
      4 C           0.3778    0.7783    2.8257 C.3     1  UNL1       -0.0267
      5 C          -1.0845    0.9800    3.1862 C.3     1  UNL1        0.0256
      6 C          -1.3754    2.4063    3.5601 C.2     1  UNL1        0.2193
      7 O          -2.3686    2.7222    4.2113 O.2     1  UNL1       -0.2754
      8 N          -0.5355    3.3594    3.0521 N.am    1  UNL1       -0.2557
      9 C           0.4189    3.2086    2.0751 C.2     1  UNL1        0.2297
     10 O           0.7980    4.2021    1.4542 O.2     1  UNL1       -0.2744
     11 C           2.4833    1.7222    1.9232 C.ar    1  UNL1       -0.0324
     12 C           3.2765    0.8470    1.1555 C.ar    1  UNL1       -0.0576
     13 C           4.6625    0.7699    1.3337 C.ar    1  UNL1       -0.0615
     14 C           5.2900    1.5553    2.2925 C.ar    1  UNL1       -0.0617
     15 C           4.5311    2.4188    3.0746 C.ar    1  UNL1       -0.0615
     16 C           3.1458    2.4980    2.8967 C.ar    1  UNL1       -0.0576
     17 H          -1.1142    1.4933   -1.1132 H       1  UNL1        0.0230
     18 H          -1.4982    2.3536    0.3798 H       1  UNL1        0.0230
     19 H          -1.4893    0.5703    0.3244 H       1  UNL1        0.0230
     20 H           0.8412    0.4426    0.0350 H       1  UNL1        0.0276
     21 H           1.0021    2.1446   -0.3654 H       1  UNL1        0.0276
     22 H           0.9451    0.8764    3.7632 H       1  UNL1        0.0283
     23 H           0.5365   -0.2540    2.4889 H       1  UNL1        0.0283
     24 H          -1.3300    0.3467    4.0461 H       1  UNL1        0.0359
     25 H          -1.7578    0.6915    2.3789 H       1  UNL1        0.0359
     26 H          -0.8290    4.3131    3.2166 H       1  UNL1        0.1575
     27 H           2.8454    0.1966    0.4017 H       1  UNL1        0.0621
     28 H           5.2490    0.0901    0.7207 H       1  UNL1        0.0618
     29 H           6.3658    1.4931    2.4309 H       1  UNL1        0.0618
     30 H           5.0169    3.0347    3.8276 H       1  UNL1        0.0618
     31 H           2.5966    3.1836    3.5391 H       1  UNL1        0.0621
@<TRIPOS>BOND
     1     1     2    1
     2     1    17    1
     3     1    18    1
     4     1    19    1
     5     2    20    1
     6     2    21    1
     7     3     2    1
     8     3     9    1
     9     3     4    1
    10     3    11    1
    11     4     5    1
    12     4    22    1
    13     4    23    1
    14     5     6    1
    15     5    24    1
    16     5    25    1
    17     6     7    2
    18     6     8   am
    19     8     9   am
    20     8    26    1
    21     9    10    2
    22    11    16   ar
    23    11    12   ar
    24    12    13   ar
    25    12    27    1
    26    13    14   ar
    27    13    28    1
    28    14    15   ar
    29    14    29    1
    30    15    16   ar
    31    15    30    1
    32    16    31    1
