@<TRIPOS>MOLECULE
ZINC00601283
 40 42 0 0 0
SMALL
GASTEIGER

@<TRIPOS>ATOM
      1 C           1.0099   -0.0617    0.0157 C.3     1  UNL1       -0.0235
      2 C           0.5479    0.9075    1.0551 C.ar    1  UNL1        0.0284
      3 C          -0.0400    0.6318    2.2849 C.ar    1  UNL1       -0.0079
      4 C          -0.1856    1.8716    2.9675 C.ar    1  UNL1        0.0077
      5 C          -0.6868    2.2172    4.2439 C.ar    1  UNL1       -0.0105
      6 C          -0.7507    3.5533    4.6486 C.ar    1  UNL1        0.1208
      7 C          -0.3508    4.5525    3.7685 C.ar    1  UNL1       -0.0180
      8 C           0.1267    4.2389    2.4902 C.ar    1  UNL1       -0.0337
      9 C           0.2627    2.8851    2.1197 C.ar    1  UNL1        0.0574
     10 N           0.7839    2.2807    0.9688 N.ar    1  UNL1       -0.2801
     11 C           1.4535    2.9394   -0.1005 C.2     1  UNL1        0.2631
     12 O           1.3631    2.4468   -1.2295 O.2     1  UNL1       -0.2667
     13 C           2.2932    4.1642    0.0277 C.ar    1  UNL1        0.0399
     14 C           2.4587    4.9965   -1.0924 C.ar    1  UNL1       -0.0480
     15 C           3.3208    6.0962   -1.0303 C.ar    1  UNL1       -0.0427
     16 C           4.0094    6.3702    0.1506 C.ar    1  UNL1        0.0410
     17 C           3.8392    5.5576    1.2706 C.ar    1  UNL1       -0.0427
     18 C           3.0024    4.4426    1.2015 C.ar    1  UNL1       -0.0480
     19 CL          5.1034    7.6947    0.2165 Cl      1  UNL1       -0.0835
     20 O          -1.2388    3.7551    5.9116 O.3     1  UNL1       -0.4951
     21 C          -1.2680    5.0950    6.3805 C.3     1  UNL1        0.0788
     22 C          -0.4615   -0.7145    2.8048 C.3     1  UNL1        0.0765
     23 C           0.6365   -1.4004    3.6211 C.2     1  UNL1        0.3603
     24 O           0.6279   -1.1527    4.8632 O.co2   1  UNL1       -0.2460
     25 O           1.3866   -2.1877    2.9724 O.co2   1  UNL1       -0.2460
     26 H           0.5511    0.1459   -0.9553 H       1  UNL1        0.0292
     27 H           0.7482   -1.0913    0.2763 H       1  UNL1        0.0292
     28 H           2.1002   -0.0215   -0.0856 H       1  UNL1        0.0292
     29 H          -1.0051    1.4252    4.9201 H       1  UNL1        0.0661
     30 H          -0.3914    5.6001    4.0429 H       1  UNL1        0.0655
     31 H           0.3971    5.0476    1.8200 H       1  UNL1        0.0640
     32 H           1.9388    4.7741   -2.0218 H       1  UNL1        0.0626
     33 H           3.4646    6.7186   -1.9093 H       1  UNL1        0.0632
     34 H           4.3707    5.7707    2.1951 H       1  UNL1        0.0632
     35 H           2.9222    3.7946    2.0741 H       1  UNL1        0.0626
     36 H          -0.2606    5.5219    6.4239 H       1  UNL1        0.0660
     37 H          -1.9334    5.7125    5.7675 H       1  UNL1        0.0660
     38 H          -1.6697    5.0866    7.3976 H       1  UNL1        0.0660
     39 H          -1.3551   -0.6046    3.4327 H       1  UNL1        0.0428
     40 H          -0.7649   -1.3681    1.9788 H       1  UNL1        0.0428
@<TRIPOS>BOND
     1     1     2    1
     2     1    26    1
     3     1    27    1
     4     1    28    1
     5     2    10   ar
     6     2     3   ar
     7     3     4   ar
     8     3    22    1
     9     4     9   ar
    10     4     5   ar
    11     5     6   ar
    12     5    29    1
    13     6     7   ar
    14     6    20    1
    15     7     8   ar
    16     7    30    1
    17     8     9   ar
    18     8    31    1
    19     9    10   ar
    20    10    11   am
    21    11    12    2
    22    11    13    1
    23    13    18   ar
    24    13    14   ar
    25    14    15   ar
    26    14    32    1
    27    15    16   ar
    28    15    33    1
    29    16    17   ar
    30    16    19    1
    31    17    18   ar
    32    17    34    1
    33    18    35    1
    34    20    21    1
    35    21    36    1
    36    21    37    1
    37    21    38    1
    38    22    23    1
    39    22    39    1
    40    22    40    1
    41    23    24   ar
    42    23    25   ar
