@<TRIPOS>MOLECULE
ZINC03831165
 50 51 0 0 0
SMALL
GASTEIGER

@<TRIPOS>ATOM
      1 C          -0.7376    4.4446   -0.5572 C.3     1  UNL1       -0.0193
      2 C           0.7336    4.4652   -0.1337 C.3     1  UNL1       -0.0203
      3 C           1.6541    3.9986   -1.2654 C.3     1  UNL1       -0.0193
      4 C           1.1331    5.8922    0.2796 C.3     1  UNL1       -0.0193
      5 N           0.9362    3.5939    1.1023 N.4     1  UNL1        0.2327
      6 C           0.7492    2.1004    0.9818 C.3     1  UNL1       -0.0033
      7 C           1.1996    1.3411    2.2463 C.3     1  UNL1        0.1285
      8 H           2.2448    1.5802    2.4617 H       1  UNL1        0.0681
      9 C           0.3681    1.6284    3.5111 C.3     1  UNL1        0.1204
     10 O          -1.0285    1.5590    3.2278 O.3     1  UNL1       -0.4889
     11 C          -1.8564    1.8068    4.2957 C.ar    1  UNL1        0.1241
     12 C          -1.5167    1.5136    5.6244 C.ar    1  UNL1       -0.0196
     13 C          -2.3952    1.8179    6.6640 C.ar    1  UNL1       -0.0580
     14 C          -3.6131    2.4273    6.3915 C.ar    1  UNL1       -0.0580
     15 C          -3.9725    2.7360    5.0728 C.ar    1  UNL1       -0.0381
     16 C          -3.1123    2.3778    4.0083 C.ar    1  UNL1        0.0001
     17 C          -3.4961    2.6735    2.5726 C.3     1  UNL1        0.0046
     18 C          -4.9359    3.1585    2.3859 C.3     1  UNL1        0.0854
     19 H          -5.6245    2.3045    2.4204 H       1  UNL1        0.0622
     20 C          -5.3212    4.1607    3.4847 C.3     1  UNL1        0.0853
     21 H          -6.3256    4.5558    3.2976 H       1  UNL1        0.0622
     22 C          -5.2815    3.4612    4.8437 C.3     1  UNL1        0.0013
     23 O          -4.4502    5.3033    3.4731 O.3     1  UNL1       -0.3889
     24 O          -5.0463    3.7419    1.0847 O.3     1  UNL1       -0.3889
     25 O           1.1645   -0.0556    1.9376 O.3     1  UNL1       -0.3831
     26 H          -0.8496    4.8322   -1.5772 H       1  UNL1        0.0287
     27 H          -1.3521    5.0756    0.0952 H       1  UNL1        0.0287
     28 H          -1.1688    3.4404   -0.5485 H       1  UNL1        0.0287
     29 H           1.5870    4.6843   -2.1206 H       1  UNL1        0.0287
     30 H           2.7023    3.9773   -0.9479 H       1  UNL1        0.0287
     31 H           1.3840    3.0071   -1.6385 H       1  UNL1        0.0287
     32 H           0.4839    6.2767    1.0751 H       1  UNL1        0.0287
     33 H           2.1649    5.9299    0.6479 H       1  UNL1        0.0287
     34 H           1.0601    6.5816   -0.5693 H       1  UNL1        0.0287
     35 H           1.8870    3.7720    1.4516 H       1  UNL1        0.2020
     36 H          -0.2968    1.9009    0.7407 H       1  UNL1        0.0841
     37 H           1.3639    1.7596    0.1417 H       1  UNL1        0.0841
     38 H           0.6478    0.8804    4.2599 H       1  UNL1        0.0725
     39 H           0.6059    2.6329    3.8818 H       1  UNL1        0.0725
     40 H          -0.5872    1.0300    5.8955 H       1  UNL1        0.0654
     41 H          -2.1238    1.5848    7.6911 H       1  UNL1        0.0619
     42 H          -4.2796    2.6717    7.2171 H       1  UNL1        0.0620
     43 H          -3.3531    1.7784    1.9546 H       1  UNL1        0.0340
     44 H          -2.8052    3.4323    2.1805 H       1  UNL1        0.0340
     45 H          -5.4140    4.2115    5.6327 H       1  UNL1        0.0339
     46 H          -6.0982    2.7337    4.9160 H       1  UNL1        0.0339
     47 H          -3.6585    5.0842    3.9957 H       1  UNL1        0.2099
     48 H          -5.9005    4.2064    1.0441 H       1  UNL1        0.2099
     49 H           1.3137   -0.5788    2.7535 H       1  UNL1        0.2102
     50 H           0.2869    3.9349    1.8260 H       1  UNL1        0.2020
@<TRIPOS>UNITY_ATOM_ATTR
5 1
charge 1
@<TRIPOS>BOND
     1     1     2    1
     2     1    26    1
     3     1    27    1
     4     1    28    1
     5     2     3    1
     6     2     4    1
     7     2     5    1
     8     3    29    1
     9     3    30    1
    10     3    31    1
    11     4    32    1
    12     4    33    1
    13     4    34    1
    14     5     6    1
    15     5    35    1
    16     5    50    1
    17     6     7    1
    18     6    36    1
    19     6    37    1
    20     7     8    1
    21     7     9    1
    22     7    25    1
    23     9    10    1
    24     9    38    1
    25     9    39    1
    26    10    11    1
    27    11    16   ar
    28    11    12   ar
    29    12    13   ar
    30    12    40    1
    31    13    14   ar
    32    13    41    1
    33    14    15   ar
    34    14    42    1
    35    15    22    1
    36    15    16   ar
    37    16    17    1
    38    17    18    1
    39    17    43    1
    40    17    44    1
    41    18    19    1
    42    18    20    1
    43    18    24    1
    44    20    22    1
    45    22    45    1
    46    22    46    1
    47    23    47    1
    48    24    48    1
    49    25    49    1
    50    20    23    1
    51    20    21    1
