@<TRIPOS>MOLECULE
ZINC00000686
 30 31 0 0 0
SMALL
GASTEIGER

@<TRIPOS>ATOM
      1 C           0.2226    0.1910   -2.3799 C.3     1  UNL1       -0.0621
      2 C           0.0899    1.6993   -2.2175 C.3     1  UNL1       -0.0208
      3 C           1.1138    2.2920   -1.2311 C.3     1  UNL1        0.0871
      4 H           0.9848    1.8282   -0.2468 H       1  UNL1        0.0706
      5 N           0.9032    3.7223   -1.1167 N.pl3   1  UNL1       -0.3252
      6 C           1.5146    4.5643   -2.0422 C.ar    1  UNL1        0.0422
      7 C           1.1007    5.8928   -2.1666 C.ar    1  UNL1       -0.0198
      8 C           1.5776    6.7001   -3.2114 C.ar    1  UNL1        0.0690
      9 C           2.4761    6.1706   -4.1437 C.ar    1  UNL1        0.1241
     10 C           2.9469    4.8624   -3.9974 C.ar    1  UNL1       -0.0200
     11 C           2.4632    4.0790   -2.9481 C.ar    1  UNL1        0.0595
     12 C           3.0039    2.7262   -2.7072 C.2     1  UNL1        0.2473
     13 O           3.9055    2.2511   -3.3849 O.2     1  UNL1       -0.2701
     14 N           2.4667    2.0543   -1.6406 N.am    1  UNL1       -0.2931
     15 S           2.9498    7.1224   -5.5478 S.O2    1  UNL1        0.0574
     16 O           1.7869    7.3155   -6.3834 O.2     1  UNL1       -0.1532
     17 O           3.8129    8.1966   -5.1158 O.2     1  UNL1       -0.1532
     18 N           3.9469    6.1035   -6.4431 N.3     1  UNL1       -0.2035
     19 CL          0.9851    8.3209   -3.2768 Cl      1  UNL1       -0.0815
     20 H           1.2214   -0.0917   -2.7270 H       1  UNL1        0.0231
     21 H          -0.4969   -0.1707   -3.1214 H       1  UNL1        0.0231
     22 H           0.0266   -0.3229   -1.4344 H       1  UNL1        0.0231
     23 H           0.1920    2.1617   -3.2074 H       1  UNL1        0.0296
     24 H          -0.9256    1.9321   -1.8736 H       1  UNL1        0.0296
     25 H           0.7747    4.0940   -0.1823 H       1  UNL1        0.1478
     26 H           0.3668    6.2928   -1.4700 H       1  UNL1        0.0651
     27 H           3.6707    4.4333   -4.6854 H       1  UNL1        0.0646
     28 H           2.8389    1.1222   -1.5270 H       1  UNL1        0.1508
     29 H           3.4886    5.8642   -7.3236 H       1  UNL1        0.1442
     30 H           4.8563    6.5518   -6.5677 H       1  UNL1        0.1442
@<TRIPOS>BOND
     1     1     2    1
     2     1    20    1
     3     1    21    1
     4     1    22    1
     5     2    23    1
     6     2    24    1
     7     3    14    1
     8     3     5    1
     9     5     6    1
    10     5    25    1
    11     6    11   ar
    12     6     7   ar
    13     7     8   ar
    14     7    26    1
    15     8     9   ar
    16     8    19    1
    17     9    10   ar
    18     9    15    1
    19    10    11   ar
    20    10    27    1
    21    11    12    1
    22    12    13    2
    23    12    14   am
    24    14    28    1
    25    15    16    2
    26    15    17    2
    27    15    18    1
    28    18    29    1
    29    18    30    1
    30     3     4    1
    31     3     2    1
