@<TRIPOS>MOLECULE
ZINC01530939
 55 56 0 0 0
SMALL
GASTEIGER

@<TRIPOS>ATOM
      1 C           1.1688   -5.5616    3.6149 C.3     1  UNL1       -0.0652
      2 C           0.3306   -4.6609    2.7154 C.3     1  UNL1       -0.0528
      3 C           0.9324   -3.2574    2.6221 C.3     1  UNL1       -0.0188
      4 C           0.1956   -2.3438    1.6394 C.3     1  UNL1        0.0912
      5 O          -1.1394   -2.0625    2.0830 O.3     1  UNL1       -0.4763
      6 C          -1.8018   -1.2316    1.2054 C.ar    1  UNL1        0.2160
      7 C          -2.7930   -0.4222    1.6988 C.ar    1  UNL1        0.0127
      8 C          -3.4319    0.4724    0.8312 C.ar    1  UNL1        0.0509
      9 C          -3.0772    0.5146   -0.5463 C.ar    1  UNL1        0.0127
     10 C          -3.5868    1.3922   -1.5466 C.ar    1  UNL1       -0.0518
     11 C          -3.1005    1.3591   -2.8596 C.ar    1  UNL1       -0.0611
     12 C          -2.1074    0.4567   -3.2062 C.ar    1  UNL1       -0.0597
     13 C          -1.6048   -0.4093   -2.2385 C.ar    1  UNL1       -0.0356
     14 C          -2.0625   -0.3911   -0.9327 C.ar    1  UNL1        0.0755
     15 N          -1.4551   -1.2317   -0.0918 N.ar    1  UNL1       -0.2129
     16 C          -4.3037    1.4468    1.5301 C.2     1  UNL1        0.2450
     17 O          -3.9282    1.8970    2.6102 O.2     1  UNL1       -0.2702
     18 N          -5.5352    1.8118    1.0060 N.am    1  UNL1       -0.3063
     19 C          -6.4686    2.4949    1.9167 C.3     1  UNL1        0.0520
     20 C          -5.9714    3.8891    2.3808 C.3     1  UNL1       -0.0160
     21 N          -5.5942    4.7399    1.1673 N.4     1  UNL1        0.2359
     22 C          -6.7713    5.0835    0.2740 C.3     1  UNL1       -0.0348
     23 C          -7.8216    5.9185    0.9887 C.3     1  UNL1       -0.0245
     24 C          -4.7416    5.9550    1.4723 C.3     1  UNL1       -0.0348
     25 C          -3.4017    5.5906    2.0844 C.3     1  UNL1       -0.0245
     26 H           2.2302   -5.5154    3.3488 H       1  UNL1        0.0230
     27 H           0.8446   -6.6031    3.5225 H       1  UNL1        0.0230
     28 H           1.0677   -5.2676    4.6646 H       1  UNL1        0.0230
     29 H           0.2796   -5.1082    1.7158 H       1  UNL1        0.0264
     30 H          -0.6928   -4.6138    3.1040 H       1  UNL1        0.0264
     31 H           0.9438   -2.8022    3.6185 H       1  UNL1        0.0298
     32 H           1.9741   -3.3415    2.2848 H       1  UNL1        0.0298
     33 H           0.7516   -1.3989    1.5760 H       1  UNL1        0.0697
     34 H           0.1899   -2.8252    0.6548 H       1  UNL1        0.0697
     35 H          -3.0200   -0.4501    2.7642 H       1  UNL1        0.0678
     36 H          -4.3573    2.1210   -1.3194 H       1  UNL1        0.0624
     37 H          -3.4864    2.0382   -3.6166 H       1  UNL1        0.0618
     38 H          -1.7071    0.4223   -4.2166 H       1  UNL1        0.0618
     39 H          -0.8131   -1.1082   -2.5087 H       1  UNL1        0.0639
     40 H          -5.9303    1.1819    0.3110 H       1  UNL1        0.1492
     41 H          -7.4313    2.5804    1.4028 H       1  UNL1        0.0515
     42 H          -6.6275    1.8557    2.7929 H       1  UNL1        0.0515
     43 H          -6.7148    4.4262    2.9742 H       1  UNL1        0.0830
     44 H          -5.0812    3.7980    3.0016 H       1  UNL1        0.0830
     45 H          -6.3736    5.6144   -0.5973 H       1  UNL1        0.0812
     46 H          -7.1978    4.1439   -0.0873 H       1  UNL1        0.0812
     47 H          -7.4314    6.8999    1.2727 H       1  UNL1        0.0281
     48 H          -8.6782    6.0817    0.3278 H       1  UNL1        0.0281
     49 H          -8.2064    5.4292    1.8877 H       1  UNL1        0.0281
     50 H          -4.5657    6.4565    0.5139 H       1  UNL1        0.0812
     51 H          -5.3127    6.6178    2.1289 H       1  UNL1        0.0812
     52 H          -2.8782    4.8303    1.4970 H       1  UNL1        0.0281
     53 H          -2.7651    6.4815    2.1275 H       1  UNL1        0.0281
     54 H          -3.5079    5.2311    3.1118 H       1  UNL1        0.0281
     55 H          -4.9903    4.1071    0.6211 H       1  UNL1        0.2034
@<TRIPOS>UNITY_ATOM_ATTR
21 1
charge 1
@<TRIPOS>BOND
     1     1     2    1
     2     1    26    1
     3     1    27    1
     4     1    28    1
     5     2     3    1
     6     2    29    1
     7     2    30    1
     8     3     4    1
     9     3    31    1
    10     3    32    1
    11     4     5    1
    12     4    33    1
    13     4    34    1
    14     5     6    1
    15     6    15   ar
    16     6     7   ar
    17     7     8   ar
    18     7    35    1
    19     8     9   ar
    20     8    16    1
    21     9    14   ar
    22     9    10   ar
    23    10    11   ar
    24    10    36    1
    25    11    12   ar
    26    11    37    1
    27    12    13   ar
    28    12    38    1
    29    13    14   ar
    30    13    39    1
    31    14    15   ar
    32    16    17    2
    33    16    18   am
    34    18    19    1
    35    18    40    1
    36    19    20    1
    37    19    41    1
    38    19    42    1
    39    20    21    1
    40    20    43    1
    41    20    44    1
    42    21    22    1
    43    21    24    1
    44    21    55    1
    45    22    23    1
    46    22    45    1
    47    22    46    1
    48    23    47    1
    49    23    48    1
    50    23    49    1
    51    24    25    1
    52    24    50    1
    53    24    51    1
    54    25    52    1
    55    25    53    1
    56    25    54    1
