@<TRIPOS>MOLECULE
ZINC03831475
 14 13 0 0 0
SMALL
GASTEIGER

@<TRIPOS>ATOM
      1 C           1.0816    0.1003    0.0631 C.3     1  UNL1        0.1254
      2 H           0.7288   -0.9101   -0.1857 H       1  UNL1        0.0542
      3 C           0.5222    1.0503   -0.9933 C.3     1  UNL1        0.1254
      4 H          -0.5692    0.9604   -0.9702 H       1  UNL1        0.0542
      5 C           0.8482    2.5675   -1.0286 C.2     1  UNL1        0.3700
      6 O           2.0683    2.8870   -1.1746 O.co2   1  UNL1       -0.2451
      7 S           0.9882    0.4856   -2.7300 S.3     1  UNL1       -0.1620
      8 C           0.4920    0.4175    1.4619 C.2     1  UNL1        0.3700
      9 O           1.1254    1.1713    2.2458 O.co2   1  UNL1       -0.2451
     10 S           2.9004   -0.1112    0.1996 S.3     1  UNL1       -0.1620
     11 H           1.5825    1.6502   -3.0607 H       1  UNL1        0.1025
     12 H           3.1387    0.1441   -1.0938 H       1  UNL1        0.1025
     13 O          -0.1624    3.3337   -1.1188 O.co2   1  UNL1       -0.2451
     14 O          -0.6089   -0.1903    1.6942 O.co2   1  UNL1       -0.2451
@<TRIPOS>BOND
     1     1     8    1
     2     1    10    1
     3     3     4    1
     4     3     5    1
     5     3     7    1
     6     5     6   ar
     7     5    13   ar
     8     7    11    1
     9     8     9   ar
    10     8    14   ar
    11    10    12    1
    12     1     3    1
    13     1     2    1
