@<TRIPOS>MOLECULE
ZINC00002212
 35 38 0 0 0
SMALL
GASTEIGER

@<TRIPOS>ATOM
      1 C           0.9279   -0.1355    0.0266 C.3     1  UNL1       -0.0041
      2 C           0.5483   -0.4323    1.4266 C.ar    1  UNL1        0.1349
      3 N           0.7286   -1.6077    1.9969 N.ar    1  UNL1       -0.1342
      4 N           0.1280   -1.5874    3.2227 N.ar    1  UNL1       -0.1321
      5 C          -0.4115   -0.4006    3.3875 C.ar    1  UNL1        0.1595
      6 N          -0.1352    0.4012    2.3007 N.ar    1  UNL1       -0.2811
      7 C          -0.4315    1.7884    2.2041 C.ar    1  UNL1        0.0587
      8 C           0.4709    2.6237    1.5195 C.ar    1  UNL1       -0.0357
      9 C           0.2413    3.9981    1.4289 C.ar    1  UNL1       -0.0414
     10 C          -0.8654    4.5558    2.0539 C.ar    1  UNL1        0.0417
     11 C          -1.7488    3.7522    2.7723 C.ar    1  UNL1       -0.0322
     12 C          -1.5659    2.3571    2.8283 C.ar    1  UNL1        0.0258
     13 C          -2.6718    1.5416    3.4569 C.2     1  UNL1        0.0766
     14 N          -2.4697    0.5154    4.2039 N.2     1  UNL1       -0.2748
     15 C          -1.1306    0.0947    4.5755 C.3     1  UNL1        0.1004
     16 C          -4.1094    1.9279    3.1838 C.ar    1  UNL1        0.0189
     17 C          -4.4400    2.4707    1.9262 C.ar    1  UNL1       -0.0512
     18 C          -5.7352    2.9166    1.6514 C.ar    1  UNL1       -0.0611
     19 C          -6.7356    2.7777    2.6062 C.ar    1  UNL1       -0.0603
     20 C          -6.4394    2.1937    3.8364 C.ar    1  UNL1       -0.0427
     21 C          -5.1340    1.7780    4.1376 C.ar    1  UNL1        0.0501
     22 CL         -4.8980    1.1653    5.7390 Cl      1  UNL1       -0.0829
     23 CL         -1.1677    6.2425    1.9145 Cl      1  UNL1       -0.0835
     24 H           0.3620    0.6941   -0.4025 H       1  UNL1        0.0308
     25 H           0.7308   -1.0111   -0.6011 H       1  UNL1        0.0308
     26 H           1.9974    0.0867   -0.0361 H       1  UNL1        0.0308
     27 H           1.3911    2.2409    1.0841 H       1  UNL1        0.0639
     28 H           0.9418    4.6283    0.8840 H       1  UNL1        0.0633
     29 H          -2.6016    4.2198    3.2598 H       1  UNL1        0.0639
     30 H          -0.5801    0.9055    5.0695 H       1  UNL1        0.0590
     31 H          -1.2133   -0.7105    5.3134 H       1  UNL1        0.0590
     32 H          -3.6943    2.5680    1.1406 H       1  UNL1        0.0625
     33 H          -5.9628    3.3723    0.6898 H       1  UNL1        0.0618
     34 H          -7.7459    3.1201    2.3963 H       1  UNL1        0.0618
     35 H          -7.2330    2.0766    4.5720 H       1  UNL1        0.0632
@<TRIPOS>BOND
     1     1     2    1
     2     1    24    1
     3     1    25    1
     4     1    26    1
     5     2     6   ar
     6     2     3   ar
     7     3     4   ar
     8     4     5   ar
     9     5    15    1
    10     5     6   ar
    11     6     7    1
    12     7    12   ar
    13     7     8   ar
    14     8     9   ar
    15     8    27    1
    16     9    10   ar
    17     9    28    1
    18    10    11   ar
    19    10    23    1
    20    11    12   ar
    21    11    29    1
    22    12    13    1
    23    13    14    2
    24    13    16    1
    25    14    15    1
    26    15    30    1
    27    15    31    1
    28    16    21   ar
    29    16    17   ar
    30    17    18   ar
    31    17    32    1
    32    18    19   ar
    33    18    33    1
    34    19    20   ar
    35    19    34    1
    36    20    21   ar
    37    20    35    1
    38    21    22    1
