@<TRIPOS>MOLECULE
ZINC03830347
 32 32 0 0 0
SMALL
GASTEIGER

@<TRIPOS>ATOM
      1 C           1.4964   -0.1436    0.0826 C.3     1  UNL1       -0.0626
      2 C           0.6822   -1.1374    0.9125 C.3     1  UNL1       -0.0453
      3 C           1.0178   -0.8898    2.3908 C.3     1  UNL1       -0.0626
      4 C          -0.8562   -1.0418    0.7164 C.3     1  UNL1       -0.0279
      5 C          -1.4577   -1.3638   -0.6886 C.3     1  UNL1        0.1270
      6 C          -1.1422   -2.8119   -1.0098 C.2     1  UNL1        0.2357
      7 O          -1.5656   -3.7541   -0.3421 O.2     1  UNL1       -0.2742
      8 N          -0.3008   -3.0496   -2.0559 N.am    1  UNL1       -0.2390
      9 C           0.2358   -2.1227   -2.8851 C.2     1  UNL1        0.3122
     10 O           1.0984   -2.4102   -3.7078 O.2     1  UNL1       -0.2520
     11 N          -0.2088   -0.8450   -2.7422 N.am    1  UNL1       -0.2390
     12 C          -0.9544   -0.3661   -1.7085 C.2     1  UNL1        0.2357
     13 O          -1.1607    0.8465   -1.6072 O.2     1  UNL1       -0.2742
     14 C          -3.0033   -1.2064   -0.6130 C.3     1  UNL1       -0.0125
     15 C          -3.7247   -1.4113   -1.9258 C.2     1  UNL1       -0.0897
     16 C          -4.2868   -2.5667   -2.3000 C.2     1  UNL1       -0.1026
     17 H           1.0720    0.8640    0.1360 H       1  UNL1        0.0232
     18 H           1.5587   -0.4471   -0.9619 H       1  UNL1        0.0232
     19 H           2.5322   -0.0891    0.4347 H       1  UNL1        0.0232
     20 H           1.0151   -2.1520    0.6636 H       1  UNL1        0.0296
     21 H           0.7087    0.1145    2.7011 H       1  UNL1        0.0232
     22 H           0.5203   -1.6179    3.0384 H       1  UNL1        0.0232
     23 H           2.0968   -0.9750    2.5640 H       1  UNL1        0.0232
     24 H          -1.3124   -1.7344    1.4393 H       1  UNL1        0.0282
     25 H          -1.1823   -0.0385    1.0247 H       1  UNL1        0.0282
     26 H          -0.0280   -4.0091   -2.2120 H       1  UNL1        0.1591
     27 H           0.2039   -0.1532   -3.3529 H       1  UNL1        0.1591
     28 H          -3.4196   -1.8889    0.1385 H       1  UNL1        0.0322
     29 H          -3.2588   -0.1957   -0.2641 H       1  UNL1        0.0322
     30 H          -3.8157   -0.5446   -2.5808 H       1  UNL1        0.0567
     31 H          -4.8144   -2.6508   -3.2454 H       1  UNL1        0.0532
     32 H          -4.2374   -3.4551   -1.6749 H       1  UNL1        0.0532
@<TRIPOS>BOND
     1     1     2    1
     2     1    17    1
     3     1    18    1
     4     1    19    1
     5     2     3    1
     6     2     4    1
     7     2    20    1
     8     3    21    1
     9     3    22    1
    10     3    23    1
    11     4     5    1
    12     4    24    1
    13     4    25    1
    14     5    12    1
    15     5     6    1
    16     5    14    1
    17     6     7    2
    18     6     8   am
    19     8     9   am
    20     8    26    1
    21     9    10    2
    22     9    11   am
    23    11    12   am
    24    11    27    1
    25    12    13    2
    26    14    15    1
    27    14    28    1
    28    14    29    1
    29    15    16    2
    30    15    30    1
    31    16    31    1
    32    16    32    1
