@<TRIPOS>MOLECULE
ZINC00004227
 47 49 0 0 0
SMALL
GASTEIGER

@<TRIPOS>ATOM
      1 C           2.6960   -0.5677    0.5165 C.3     1  UNL1       -0.0245
      2 C           2.3350   -0.5321    1.9931 C.3     1  UNL1       -0.0345
      3 N           0.8934   -0.0695    2.2196 N.4     1  UNL1        0.2379
      4 C          -0.1043   -1.0046    1.5353 C.3     1  UNL1       -0.0345
      5 C           0.0168   -2.4515    2.0175 C.3     1  UNL1       -0.0245
      6 C           0.5551    0.1850    3.7051 C.3     1  UNL1       -0.0074
      7 H           0.7636   -0.7808    4.1835 H       1  UNL1        0.0864
      8 C           1.4822    1.1864    4.3921 C.3     1  UNL1       -0.0201
      9 C          -0.9401    0.4835    3.9948 C.3     1  UNL1        0.0600
     10 N          -1.6068    1.7760    3.6812 N.pl3   1  UNL1       -0.2929
     11 C          -1.2396    2.7998    2.7939 C.ar    1  UNL1        0.0480
     12 C          -1.1133    2.5910    1.4166 C.ar    1  UNL1       -0.0393
     13 C          -0.9688    3.6694    0.5179 C.ar    1  UNL1       -0.0599
     14 C          -0.9268    4.9832    0.9820 C.ar    1  UNL1       -0.0606
     15 C          -1.0589    5.2302    2.3418 C.ar    1  UNL1       -0.0462
     16 C          -1.2435    4.1559    3.2300 C.ar    1  UNL1        0.0341
     17 S          -1.6119    4.5757    4.9296 S.3     1  UNL1       -0.0857
     18 C          -2.7702    3.2654    5.2828 C.ar    1  UNL1        0.0341
     19 C          -2.6469    2.0128    4.6515 C.ar    1  UNL1        0.0480
     20 C          -3.5647    0.9965    4.9868 C.ar    1  UNL1       -0.0393
     21 C          -4.5394    1.2019    5.9610 C.ar    1  UNL1       -0.0599
     22 C          -4.6397    2.4388    6.5880 C.ar    1  UNL1       -0.0606
     23 C          -3.7665    3.4711    6.2433 C.ar    1  UNL1       -0.0462
     24 H           2.0335   -1.2034   -0.0748 H       1  UNL1        0.0281
     25 H           3.7063   -0.9719    0.3924 H       1  UNL1        0.0281
     26 H           2.6811    0.4398    0.0901 H       1  UNL1        0.0281
     27 H           2.4549   -1.5123    2.4658 H       1  UNL1        0.0812
     28 H           3.0024    0.1768    2.4846 H       1  UNL1        0.0812
     29 H          -1.1116   -0.6227    1.7087 H       1  UNL1        0.0812
     30 H           0.0462   -0.9354    0.4587 H       1  UNL1        0.0812
     31 H           0.1516   -2.5368    3.0986 H       1  UNL1        0.0281
     32 H          -0.8868   -3.0113    1.7575 H       1  UNL1        0.0281
     33 H           0.8581   -2.9557    1.5304 H       1  UNL1        0.0281
     34 H           1.3513    2.2051    4.0250 H       1  UNL1        0.0285
     35 H           1.2759    1.1858    5.4708 H       1  UNL1        0.0285
     36 H           2.5386    0.9173    4.3045 H       1  UNL1        0.0285
     37 H          -1.5578   -0.3345    3.6127 H       1  UNL1        0.0524
     38 H          -0.9875    0.3580    5.0893 H       1  UNL1        0.0524
     39 H          -1.2778    1.6114    0.9843 H       1  UNL1        0.0636
     40 H          -0.9624    3.4948   -0.5578 H       1  UNL1        0.0618
     41 H          -0.8557    5.8145    0.2810 H       1  UNL1        0.0618
     42 H          -1.0872    6.2589    2.6940 H       1  UNL1        0.0629
     43 H          -3.5470    0.0331    4.4861 H       1  UNL1        0.0636
     44 H          -5.2224    0.3998    6.2254 H       1  UNL1        0.0618
     45 H          -5.4009    2.6022    7.3472 H       1  UNL1        0.0618
     46 H          -3.8655    4.4362    6.7359 H       1  UNL1        0.0629
     47 H           0.8068    0.8506    1.7663 H       1  UNL1        0.2036
@<TRIPOS>UNITY_ATOM_ATTR
3 1
charge 1
@<TRIPOS>BOND
     1     1     2    1
     2     1    24    1
     3     1    25    1
     4     1    26    1
     5     2     3    1
     6     2    27    1
     7     2    28    1
     8     3     4    1
     9     3     6    1
    10     3    47    1
    11     4     5    1
    12     4    29    1
    13     4    30    1
    14     5    31    1
    15     5    32    1
    16     5    33    1
    17     6     7    1
    18     6     8    1
    19     6     9    1
    20     8    34    1
    21     8    35    1
    22     8    36    1
    23     9    10    1
    24     9    37    1
    25     9    38    1
    26    10    19    1
    27    10    11    1
    28    11    16   ar
    29    11    12   ar
    30    12    13   ar
    31    12    39    1
    32    13    14   ar
    33    13    40    1
    34    14    15   ar
    35    14    41    1
    36    15    16   ar
    37    15    42    1
    38    16    17    1
    39    17    18    1
    40    18    23   ar
    41    18    19   ar
    42    19    20   ar
    43    20    21   ar
    44    20    43    1
    45    21    22   ar
    46    21    44    1
    47    22    23   ar
    48    22    45    1
    49    23    46    1
