@<TRIPOS>MOLECULE
ZINC02007682
 58 59 0 0 0
SMALL
GASTEIGER

@<TRIPOS>ATOM
      1 C           6.0261    6.3642   -5.2402 C.3     1  UNL1       -0.0619
      2 C           4.8628    5.6120   -5.8941 C.3     1  UNL1       -0.0173
      3 C           4.3767    4.4283   -5.0305 C.3     1  UNL1        0.1165
      4 H           5.2584    3.8112   -4.8346 H       1  UNL1        0.0746
      5 C           3.2510    3.4831   -5.6479 C.3     1  UNL1        0.0626
      6 C           3.0069    2.2730   -4.6093 C.3     1  UNL1        0.0071
      7 C           4.1555    1.3260   -4.1305 C.3     1  UNL1       -0.0230
      8 H           4.9760    1.8957   -3.6929 H       1  UNL1        0.0849
      9 C           4.6918    0.3630   -5.1906 C.3     1  UNL1       -0.0216
     10 C           4.7280   -0.4627   -2.3627 C.3     1  UNL1       -0.0431
     11 C           2.9398    1.1354   -1.8282 C.3     1  UNL1       -0.0431
     12 C           1.9032    4.3157   -5.7867 C.ar    1  UNL1       -0.0332
     13 C           0.9075    4.3354   -4.7855 C.ar    1  UNL1       -0.0576
     14 C          -0.3477    4.9226   -4.9920 C.ar    1  UNL1       -0.0615
     15 C          -0.6467    5.5131   -6.2161 C.ar    1  UNL1       -0.0617
     16 C           0.3384    5.5841   -7.1950 C.ar    1  UNL1       -0.0615
     17 C           1.6044    5.0250   -6.9713 C.ar    1  UNL1       -0.0576
     18 C           3.6156    2.8026   -7.0067 C.ar    1  UNL1       -0.0332
     19 C           2.6039    2.2435   -7.8239 C.ar    1  UNL1       -0.0576
     20 C           2.9013    1.5319   -8.9899 C.ar    1  UNL1       -0.0615
     21 C           4.2231    1.2954   -9.3381 C.ar    1  UNL1       -0.0617
     22 C           5.2408    1.8449   -8.5673 C.ar    1  UNL1       -0.0615
     23 C           4.9405    2.6296   -7.4436 C.ar    1  UNL1       -0.0576
     24 O           3.8972    5.0043   -3.7771 O.3     1  UNL1       -0.4603
     25 C           4.6287    4.8136   -2.6504 C.2     1  UNL1        0.3042
     26 O           5.5193    3.9840   -2.5299 O.2     1  UNL1       -0.2512
     27 C           4.1438    5.6970   -1.5402 C.3     1  UNL1        0.0332
     28 H           5.7615    6.7522   -4.2521 H       1  UNL1        0.0231
     29 H           6.3211    7.2205   -5.8550 H       1  UNL1        0.0231
     30 H           6.9028    5.7147   -5.1263 H       1  UNL1        0.0231
     31 H           4.0516    6.3297   -6.0481 H       1  UNL1        0.0298
     32 H           5.1985    5.2728   -6.8775 H       1  UNL1        0.0298
     33 H           2.6621    2.7560   -3.6955 H       1  UNL1        0.0333
     34 H           2.1725    1.6528   -4.9670 H       1  UNL1        0.0333
     35 H           5.4587   -0.3059   -4.7968 H       1  UNL1        0.0284
     36 H           3.8962   -0.2450   -5.6296 H       1  UNL1        0.0284
     37 H           5.2267    0.8788   -5.9736 H       1  UNL1        0.0284
     38 H           5.5788    0.1743   -2.1114 H       1  UNL1        0.0777
     39 H           4.3388   -0.9623   -1.4715 H       1  UNL1        0.0777
     40 H           4.9970   -1.2399   -3.0844 H       1  UNL1        0.0777
     41 H           1.9993    1.5342   -2.1999 H       1  UNL1        0.0777
     42 H           2.7078    0.4115   -1.0396 H       1  UNL1        0.0777
     43 H           3.6092    1.9156   -1.4590 H       1  UNL1        0.0777
     44 H           1.0553    3.8919   -3.8090 H       1  UNL1        0.0621
     45 H          -1.1026    4.8904   -4.2162 H       1  UNL1        0.0618
     46 H          -1.6374    5.9246   -6.3995 H       1  UNL1        0.0618
     47 H           0.1091    6.0533   -8.1509 H       1  UNL1        0.0618
     48 H           2.3325    5.0978   -7.7774 H       1  UNL1        0.0621
     49 H           1.5491    2.3703   -7.5799 H       1  UNL1        0.0621
     50 H           2.0973    1.1525   -9.6173 H       1  UNL1        0.0618
     51 H           4.4588    0.6883  -10.2090 H       1  UNL1        0.0618
     52 H           6.2780    1.6396   -8.8254 H       1  UNL1        0.0618
     53 H           5.7859    3.0102   -6.8760 H       1  UNL1        0.0621
     54 H           3.5464    6.5250   -1.9335 H       1  UNL1        0.0342
     55 H           3.5350    5.1080   -0.8507 H       1  UNL1        0.0342
     56 H           5.0029    6.1265   -1.0174 H       1  UNL1        0.0342
     57 N           3.6257    0.4090   -2.9528 N.4     1  UNL1        0.2329
     58 H           2.9375   -0.2319   -3.3644 H       1  UNL1        0.2030
@<TRIPOS>UNITY_ATOM_ATTR
57 1
charge 1
@<TRIPOS>BOND
     1     1     2    1
     2     1    28    1
     3     1    29    1
     4     1    30    1
     5     2    31    1
     6     2    32    1
     7     3     5    1
     8     3    24    1
     9     5     6    1
    10     5    12    1
    11     5    18    1
    12     6    33    1
    13     6    34    1
    14     7     9    1
    15     7    57    1
    16     9    35    1
    17     9    36    1
    18     9    37    1
    19    10    38    1
    20    10    39    1
    21    10    40    1
    22    10    57    1
    23    11    41    1
    24    11    42    1
    25    11    43    1
    26    11    57    1
    27    12    17   ar
    28    12    13   ar
    29    13    14   ar
    30    13    44    1
    31    14    15   ar
    32    14    45    1
    33    15    16   ar
    34    15    46    1
    35    16    17   ar
    36    16    47    1
    37    17    48    1
    38    18    23   ar
    39    18    19   ar
    40    19    20   ar
    41    19    49    1
    42    20    21   ar
    43    20    50    1
    44    21    22   ar
    45    21    51    1
    46    22    23   ar
    47    22    52    1
    48    23    53    1
    49    24    25    1
    50    25    26    2
    51    25    27    1
    52    27    54    1
    53    27    55    1
    54    27    56    1
    55    57    58    1
    56     3     4    1
    57     3     2    1
    58     7     8    1
    59     7     6    1
