@<TRIPOS>MOLECULE
ZINC02007680
 58 59 0 0 0
SMALL
GASTEIGER

@<TRIPOS>ATOM
      1 C           2.3141   -1.7650   -2.0654 C.3     1  UNL1       -0.0619
      2 C           2.2112   -0.4153   -2.7901 C.3     1  UNL1       -0.0173
      3 C           0.7674    0.1383   -2.7752 C.3     1  UNL1        0.1165
      4 H           0.1911   -0.6751   -3.2373 H       1  UNL1        0.0746
      5 C           0.3817    1.4608   -3.6300 C.3     1  UNL1        0.0626
      6 C           0.9493    2.8159   -2.9690 C.3     1  UNL1        0.0071
      7 C           2.4595    3.1377   -2.7959 C.3     1  UNL1       -0.0230
      8 H           2.9425    2.3963   -2.1542 H       1  UNL1        0.0849
      9 C           3.3015    3.2555   -4.0624 C.3     1  UNL1       -0.0216
     10 C           2.1748    5.7528   -2.6909 C.3     1  UNL1       -0.0431
     11 C           2.2268    4.4524   -0.5779 C.3     1  UNL1       -0.0431
     12 C           0.7600    1.2940   -5.1442 C.ar    1  UNL1       -0.0332
     13 C           0.9601    2.4014   -5.9952 C.ar    1  UNL1       -0.0576
     14 C           1.2547    2.2566   -7.3570 C.ar    1  UNL1       -0.0615
     15 C           1.3443    0.9927   -7.9206 C.ar    1  UNL1       -0.0617
     16 C           1.1169   -0.1213   -7.1258 C.ar    1  UNL1       -0.0615
     17 C           0.8106    0.0291   -5.7666 C.ar    1  UNL1       -0.0576
     18 C          -1.2108    1.6681   -3.5782 C.ar    1  UNL1       -0.0332
     19 C          -1.8123    2.7806   -4.2087 C.ar    1  UNL1       -0.0576
     20 C          -3.1695    3.0843   -4.0478 C.ar    1  UNL1       -0.0615
     21 C          -3.9755    2.2810   -3.2555 C.ar    1  UNL1       -0.0617
     22 C          -3.4387    1.1378   -2.6844 C.ar    1  UNL1       -0.0615
     23 C          -2.0876    0.8212   -2.8707 C.ar    1  UNL1       -0.0576
     24 O           0.2165    0.1095   -1.4178 O.3     1  UNL1       -0.4603
     25 C           0.7848    0.6786   -0.3436 C.2     1  UNL1        0.3042
     26 O           1.7962    1.3647   -0.3585 O.2     1  UNL1       -0.2512
     27 C           0.0060    0.3312    0.8888 C.3     1  UNL1        0.0332
     28 H           1.9411   -1.7150   -1.0363 H       1  UNL1        0.0231
     29 H           3.3564   -2.0959   -2.0147 H       1  UNL1        0.0231
     30 H           1.7412   -2.5394   -2.5880 H       1  UNL1        0.0231
     31 H           2.9100    0.2712   -2.3207 H       1  UNL1        0.0298
     32 H           2.5622   -0.5703   -3.8195 H       1  UNL1        0.0298
     33 H           0.5312    3.6640   -3.5188 H       1  UNL1        0.0333
     34 H           0.4808    2.8912   -1.9805 H       1  UNL1        0.0333
     35 H           2.9268    4.0294   -4.7356 H       1  UNL1        0.0284
     36 H           4.3365    3.5229   -3.8145 H       1  UNL1        0.0284
     37 H           3.3478    2.3097   -4.6019 H       1  UNL1        0.0284
     38 H           1.1310    5.6359   -2.9842 H       1  UNL1        0.0777
     39 H           2.2700    6.5786   -1.9791 H       1  UNL1        0.0777
     40 H           2.8158    5.9574   -3.5514 H       1  UNL1        0.0777
     41 H           2.5932    3.5339   -0.1275 H       1  UNL1        0.0777
     42 H           2.7018    5.2991   -0.0708 H       1  UNL1        0.0777
     43 H           1.1395    4.5424   -0.5298 H       1  UNL1        0.0777
     44 H           0.8677    3.4208   -5.6358 H       1  UNL1        0.0621
     45 H           1.3936    3.1350   -7.9832 H       1  UNL1        0.0618
     46 H           1.5616    0.8755   -8.9794 H       1  UNL1        0.0618
     47 H           1.1552   -1.1155   -7.5669 H       1  UNL1        0.0618
     48 H           0.5983   -0.8908   -5.2292 H       1  UNL1        0.0621
     49 H          -1.2433    3.4511   -4.8435 H       1  UNL1        0.0621
     50 H          -3.5944    3.9547   -4.5418 H       1  UNL1        0.0618
     51 H          -5.0225    2.5288   -3.1036 H       1  UNL1        0.0618
     52 H          -4.0694    0.4813   -2.0882 H       1  UNL1        0.0618
     53 H          -1.7716   -0.1136   -2.4211 H       1  UNL1        0.0621
     54 H          -1.0646    0.4685    0.7057 H       1  UNL1        0.0342
     55 H           0.2152   -0.7011    1.1693 H       1  UNL1        0.0342
     56 H           0.3053    1.0043    1.7017 H       1  UNL1        0.0342
     57 N           2.6608    4.4905   -2.0180 N.4     1  UNL1        0.2329
     58 H           3.6809    4.5956   -1.9571 H       1  UNL1        0.2030
@<TRIPOS>UNITY_ATOM_ATTR
57 1
charge 1
@<TRIPOS>BOND
     1     1     2    1
     2     1    28    1
     3     1    29    1
     4     1    30    1
     5     2    31    1
     6     2    32    1
     7     3     5    1
     8     3    24    1
     9     5     6    1
    10     5    12    1
    11     5    18    1
    12     6     7    1
    13     6    33    1
    14     6    34    1
    15     7     8    1
    16     7     9    1
    17     7    57    1
    18     9    35    1
    19     9    36    1
    20     9    37    1
    21    10    38    1
    22    10    39    1
    23    10    40    1
    24    10    57    1
    25    11    41    1
    26    11    42    1
    27    11    43    1
    28    11    57    1
    29    12    17   ar
    30    12    13   ar
    31    13    14   ar
    32    13    44    1
    33    14    15   ar
    34    14    45    1
    35    15    16   ar
    36    15    46    1
    37    16    17   ar
    38    16    47    1
    39    17    48    1
    40    18    23   ar
    41    18    19   ar
    42    19    20   ar
    43    19    49    1
    44    20    21   ar
    45    20    50    1
    46    21    22   ar
    47    21    51    1
    48    22    23   ar
    49    22    52    1
    50    23    53    1
    51    24    25    1
    52    25    26    2
    53    25    27    1
    54    27    54    1
    55    27    55    1
    56    27    56    1
    57    57    58    1
    58     3     4    1
    59     3     2    1
