@<TRIPOS>MOLECULE
ZINC02034892
 43 44 0 0 0
SMALL
GASTEIGER

@<TRIPOS>ATOM
      1 C           0.9776    0.8838   -2.4393 C.3     1  UNL1       -0.0226
      2 C           0.4985    1.1875   -1.0153 C.3     1  UNL1        0.1399
      3 H           0.8562    2.1948   -0.7588 H       1  UNL1        0.0785
      4 C          -1.0459    1.1746   -0.9445 C.3     1  UNL1        0.0043
      5 N          -1.5851    1.5020    0.4313 N.4     1  UNL1        0.2318
      6 C          -3.0883    1.4669    0.5401 C.3     1  UNL1       -0.0225
      7 C          -3.5054    1.7313    1.9911 C.3     1  UNL1       -0.0097
      8 C          -5.0272    1.6230    2.1140 C.3     1  UNL1       -0.0480
      9 C          -5.7398    2.5952    1.1790 C.3     1  UNL1       -0.0527
     10 C          -5.2663    2.4192   -0.2616 C.3     1  UNL1       -0.0480
     11 C          -3.7426    2.5062   -0.3764 C.3     1  UNL1       -0.0097
     12 O           1.1442    0.2896   -0.0761 O.3     1  UNL1       -0.4528
     13 C           0.7157   -1.0078   -0.0331 C.2     1  UNL1        0.3396
     14 O          -0.2886   -1.4157   -0.5767 O.2     1  UNL1       -0.2449
     15 C           1.5954   -1.8949    0.7481 C.ar    1  UNL1        0.0590
     16 C           1.2844   -3.2649    0.7483 C.ar    1  UNL1       -0.0478
     17 C           2.1356   -4.1779    1.3664 C.ar    1  UNL1       -0.0610
     18 C           3.2762   -3.7243    2.0218 C.ar    1  UNL1       -0.0617
     19 C           3.5576   -2.3576    2.0713 C.ar    1  UNL1       -0.0610
     20 C           2.7237   -1.4391    1.4291 C.ar    1  UNL1       -0.0478
     21 H           0.5651    1.6020   -3.1553 H       1  UNL1        0.0267
     22 H           0.6754   -0.1202   -2.7533 H       1  UNL1        0.0267
     23 H           2.0712    0.9177   -2.5065 H       1  UNL1        0.0267
     24 H          -1.4495    1.9116   -1.6450 H       1  UNL1        0.0850
     25 H          -1.4758    0.2096   -1.2143 H       1  UNL1        0.0850
     26 H          -1.2055    0.7972    1.0798 H       1  UNL1        0.2017
     27 H          -3.3975    0.4584    0.2369 H       1  UNL1        0.0850
     28 H          -3.0388    1.0168    2.6783 H       1  UNL1        0.0320
     29 H          -3.1845    2.7345    2.3062 H       1  UNL1        0.0320
     30 H          -5.3395    1.7956    3.1496 H       1  UNL1        0.0267
     31 H          -5.3324    0.6026    1.8501 H       1  UNL1        0.0267
     32 H          -5.5596    3.6267    1.5064 H       1  UNL1        0.0265
     33 H          -6.8211    2.4233    1.2338 H       1  UNL1        0.0265
     34 H          -5.7360    3.1697   -0.9061 H       1  UNL1        0.0267
     35 H          -5.5929    1.4368   -0.6268 H       1  UNL1        0.0267
     36 H          -3.4049    3.5164   -0.1149 H       1  UNL1        0.0320
     37 H          -3.4725    2.3339   -1.4216 H       1  UNL1        0.0320
     38 H           0.3953   -3.6362    0.2380 H       1  UNL1        0.0626
     39 H           1.9238   -5.2439    1.3148 H       1  UNL1        0.0618
     40 H           3.9494   -4.4369    2.4932 H       1  UNL1        0.0618
     41 H           4.4500   -2.0146    2.5904 H       1  UNL1        0.0618
     42 H           2.9826   -0.3856    1.4542 H       1  UNL1        0.0626
     43 H          -1.2276    2.4094    0.7567 H       1  UNL1        0.2017
@<TRIPOS>UNITY_ATOM_ATTR
5 1
charge 1
@<TRIPOS>BOND
     1     1     2    1
     2     1    21    1
     3     1    22    1
     4     1    23    1
     5     2     3    1
     6     2     4    1
     7     2    12    1
     8     4     5    1
     9     4    24    1
    10     4    25    1
    11     5     6    1
    12     5    26    1
    13     5    43    1
    14     6    11    1
    15     6     7    1
    16     6    27    1
    17     7     8    1
    18     7    28    1
    19     7    29    1
    20     8     9    1
    21     8    30    1
    22     8    31    1
    23     9    10    1
    24     9    32    1
    25     9    33    1
    26    10    11    1
    27    10    34    1
    28    10    35    1
    29    11    36    1
    30    11    37    1
    31    12    13    1
    32    13    14    2
    33    13    15    1
    34    15    20   ar
    35    15    16   ar
    36    16    17   ar
    37    16    38    1
    38    17    18   ar
    39    17    39    1
    40    18    19   ar
    41    18    40    1
    42    19    20   ar
    43    19    41    1
    44    20    42    1
