@<TRIPOS>MOLECULE
ZINC00006427
 33 35 0 0 0
SMALL
GASTEIGER

@<TRIPOS>ATOM
      1 C           0.9316    0.0523    0.0522 C.3     1  UNL1        0.0084
      2 N           0.4490    0.1800    1.4246 N.am    1  UNL1       -0.2723
      3 C           0.5128   -0.9608    2.2906 C.ar    1  UNL1        0.0452
      4 C           0.2160   -2.2318    1.7582 C.ar    1  UNL1       -0.0383
      5 C           0.2351   -3.3857    2.5490 C.ar    1  UNL1       -0.0416
      6 C           0.5422   -3.2908    3.8968 C.ar    1  UNL1        0.0417
      7 C           0.8316   -2.0535    4.4595 C.ar    1  UNL1       -0.0324
      8 C           0.8461   -0.8903    3.6614 C.ar    1  UNL1        0.0233
      9 C           1.2760    0.3768    4.3315 C.2     1  UNL1        0.0750
     10 N           0.6671    1.5061    4.1902 N.2     1  UNL1       -0.2734
     11 C          -0.4535    1.5863    3.2653 C.3     1  UNL1        0.1169
     12 C           0.0794    1.4618    1.8477 C.2     1  UNL1        0.2410
     13 O           0.1263    2.4448    1.1067 O.2     1  UNL1       -0.2732
     14 C           2.4759    0.3677    5.2377 C.ar    1  UNL1        0.0006
     15 C           2.5412    1.3046    6.2789 C.ar    1  UNL1       -0.0526
     16 C           3.6523    1.3499    7.1231 C.ar    1  UNL1       -0.0611
     17 C           4.7066    0.4588    6.9328 C.ar    1  UNL1       -0.0617
     18 C           4.6550   -0.4716    5.8954 C.ar    1  UNL1       -0.0611
     19 C           3.5496   -0.5120    5.0415 C.ar    1  UNL1       -0.0526
     20 CL          0.5790   -4.7073    4.8698 Cl      1  UNL1       -0.0835
     21 H           0.6678    0.9252   -0.5533 H       1  UNL1        0.0433
     22 H           0.5142   -0.8174   -0.4553 H       1  UNL1        0.0433
     23 H           2.0233   -0.0247    0.0800 H       1  UNL1        0.0433
     24 H          -0.0924   -2.3557    0.7235 H       1  UNL1        0.0637
     25 H          -0.0082   -4.3477    2.1035 H       1  UNL1        0.0633
     26 H           1.0615   -1.9970    5.5212 H       1  UNL1        0.0639
     27 H          -1.2410    0.8517    3.4681 H       1  UNL1        0.0605
     28 H          -0.9187    2.5732    3.3645 H       1  UNL1        0.0605
     29 H           1.7284    2.0123    6.4319 H       1  UNL1        0.0624
     30 H           3.6964    2.0865    7.9213 H       1  UNL1        0.0618
     31 H           5.5748    0.4986    7.5863 H       1  UNL1        0.0618
     32 H           5.4849   -1.1575    5.7427 H       1  UNL1        0.0618
     33 H           3.5539   -1.2232    4.2207 H       1  UNL1        0.0624
@<TRIPOS>BOND
     1     1     2    1
     2     1    21    1
     3     1    22    1
     4     1    23    1
     5     2    12   am
     6     2     3    1
     7     3     8   ar
     8     3     4   ar
     9     4     5   ar
    10     4    24    1
    11     5     6   ar
    12     5    25    1
    13     6     7   ar
    14     6    20    1
    15     7     8   ar
    16     7    26    1
    17     8     9    1
    18     9    10    2
    19     9    14    1
    20    10    11    1
    21    11    12    1
    22    11    27    1
    23    11    28    1
    24    12    13    2
    25    14    19   ar
    26    14    15   ar
    27    15    16   ar
    28    15    29    1
    29    16    17   ar
    30    16    30    1
    31    17    18   ar
    32    17    31    1
    33    18    19   ar
    34    18    32    1
    35    19    33    1
