@<TRIPOS>MOLECULE
ZINC00601274
 66 70 0 0 0
SMALL
GASTEIGER

@<TRIPOS>ATOM
      1 C           5.6911   -1.4554   -9.8205 C.3     1  UNL1        0.0788
      2 O           5.0185   -2.6949   -9.6270 O.3     1  UNL1       -0.4951
      3 C           3.6819   -2.6156   -9.3595 C.ar    1  UNL1        0.1201
      4 C           2.9097   -3.6371   -9.9110 C.ar    1  UNL1       -0.0197
      5 C           1.5406   -3.7161   -9.6521 C.ar    1  UNL1       -0.0549
      6 C           0.9246   -2.7926   -8.7975 C.ar    1  UNL1       -0.0421
      7 C           1.7021   -1.7553   -8.2578 C.ar    1  UNL1       -0.0549
      8 C           3.0761   -1.6667   -8.5402 C.ar    1  UNL1       -0.0197
      9 C          -0.5468   -2.9317   -8.4659 C.3     1  UNL1        0.0127
     10 C          -0.9078   -4.2758   -7.7936 C.3     1  UNL1       -0.0278
     11 N          -0.1457   -4.4697   -6.4878 N.4     1  UNL1        0.2356
     12 C           0.0642   -5.9271   -6.1282 C.3     1  UNL1       -0.0302
     13 C          -1.0539   -6.4472   -5.2584 C.3     1  UNL1        0.0061
     14 C          -1.1774   -5.6381   -3.9701 C.3     1  UNL1        0.0329
     15 C          -1.4536   -4.1824   -4.3069 C.3     1  UNL1        0.0061
     16 C          -0.5460   -3.5634   -5.3568 C.3     1  UNL1       -0.0302
     17 N          -0.0402   -5.7726   -3.0607 N.pl3   1  UNL1       -0.3115
     18 C           0.5718   -6.9611   -2.8162 C.ar    1  UNL1        0.1971
     19 N           1.8432   -7.0895   -2.5177 N.ar    1  UNL1       -0.2144
     20 C           2.1176   -8.4230   -2.6751 C.ar    1  UNL1        0.0909
     21 C           3.3402   -9.1068   -2.5499 C.ar    1  UNL1       -0.0342
     22 C           3.4148  -10.4438   -2.9575 C.ar    1  UNL1       -0.0596
     23 C           2.2945  -11.0799   -3.4926 C.ar    1  UNL1       -0.0597
     24 C           1.0540  -10.4343   -3.5517 C.ar    1  UNL1       -0.0360
     25 C           0.9745   -9.1163   -3.0817 C.ar    1  UNL1        0.0704
     26 N          -0.0475   -8.2025   -2.8824 N.ar    1  UNL1       -0.3075
     27 C          -1.3768   -8.4354   -2.3068 C.3     1  UNL1        0.0514
     28 C          -2.3937   -9.2244   -3.1058 C.ar    1  UNL1       -0.0275
     29 C          -3.5617   -8.6375   -3.6366 C.ar    1  UNL1       -0.0542
     30 C          -4.6085   -9.4385   -4.1159 C.ar    1  UNL1       -0.0261
     31 C          -4.4851  -10.8215   -4.0879 C.ar    1  UNL1        0.1234
     32 C          -3.3267  -11.4183   -3.6173 C.ar    1  UNL1       -0.0261
     33 C          -2.2989  -10.6226   -3.1164 C.ar    1  UNL1       -0.0542
     34 F          -5.5128  -11.5885   -4.4708 F       1  UNL1       -0.2055
     35 H           6.7202   -1.6851  -10.1161 H       1  UNL1        0.0660
     36 H           5.7382   -0.8692   -8.8987 H       1  UNL1        0.0660
     37 H           5.2300   -0.8817  -10.6311 H       1  UNL1        0.0660
     38 H           3.3838   -4.3751  -10.5534 H       1  UNL1        0.0654
     39 H           0.9752   -4.5072  -10.1358 H       1  UNL1        0.0621
     40 H           1.2581   -0.9968   -7.6156 H       1  UNL1        0.0621
     41 H           3.6540   -0.8643   -8.0904 H       1  UNL1        0.0654
     42 H          -0.8713   -2.0954   -7.8373 H       1  UNL1        0.0365
     43 H          -1.1154   -2.8401   -9.3995 H       1  UNL1        0.0365
     44 H          -1.9757   -4.3584   -7.5720 H       1  UNL1        0.0818
     45 H          -0.6287   -5.1021   -8.4585 H       1  UNL1        0.0818
     46 H           1.0387   -5.9949   -5.6360 H       1  UNL1        0.0815
     47 H           0.1226   -6.5090   -7.0540 H       1  UNL1        0.0815
     48 H          -0.8698   -7.5077   -5.0716 H       1  UNL1        0.0335
     49 H          -2.0082   -6.4163   -5.7968 H       1  UNL1        0.0335
     50 H          -2.0638   -5.9766   -3.4262 H       1  UNL1        0.0502
     51 H          -2.4901   -4.1128   -4.6613 H       1  UNL1        0.0335
     52 H          -1.4095   -3.5670   -3.3982 H       1  UNL1        0.0335
     53 H          -1.0598   -2.6985   -5.7874 H       1  UNL1        0.0815
     54 H           0.3852   -3.2069   -4.9085 H       1  UNL1        0.0815
     55 H           0.5584   -4.9586   -2.9099 H       1  UNL1        0.1491
     56 H           4.2192   -8.5961   -2.1709 H       1  UNL1        0.0639
     57 H           4.3605  -10.9773   -2.8878 H       1  UNL1        0.0618
     58 H           2.3912  -12.0978   -3.8678 H       1  UNL1        0.0618
     59 H           0.2136  -10.9437   -4.0072 H       1  UNL1        0.0639
     60 H          -1.2149   -8.9312   -1.3427 H       1  UNL1        0.0542
     61 H          -1.8088   -7.4655   -2.0408 H       1  UNL1        0.0542
     62 H          -3.7223   -7.5628   -3.6131 H       1  UNL1        0.0622
     63 H          -5.5430   -9.0024   -4.4600 H       1  UNL1        0.0646
     64 H          -3.2490  -12.5006   -3.5844 H       1  UNL1        0.0646
     65 H          -1.4492  -11.1156   -2.6515 H       1  UNL1        0.0622
     66 H           0.8107   -4.1791   -6.7299 H       1  UNL1        0.2033
@<TRIPOS>UNITY_ATOM_ATTR
11 1
charge 1
@<TRIPOS>BOND
     1     1     2    1
     2     1    35    1
     3     1    36    1
     4     1    37    1
     5     2     3    1
     6     3     8   ar
     7     3     4   ar
     8     4     5   ar
     9     4    38    1
    10     5     6   ar
    11     5    39    1
    12     6     7   ar
    13     6     9    1
    14     7     8   ar
    15     7    40    1
    16     8    41    1
    17     9    10    1
    18     9    42    1
    19     9    43    1
    20    10    44    1
    21    10    45    1
    22    11    16    1
    23    11    12    1
    24    12    13    1
    25    12    46    1
    26    12    47    1
    27    13    14    1
    28    13    48    1
    29    13    49    1
    30    14    15    1
    31    15    16    1
    32    15    51    1
    33    15    52    1
    34    16    53    1
    35    16    54    1
    36    17    18    1
    37    17    55    1
    38    18    26   ar
    39    18    19   ar
    40    19    20   ar
    41    20    25   ar
    42    20    21   ar
    43    21    22   ar
    44    21    56    1
    45    22    23   ar
    46    22    57    1
    47    23    24   ar
    48    23    58    1
    49    24    25   ar
    50    24    59    1
    51    25    26   ar
    52    26    27    1
    53    27    28    1
    54    27    60    1
    55    27    61    1
    56    28    33   ar
    57    28    29   ar
    58    29    30   ar
    59    29    62    1
    60    30    31   ar
    61    30    63    1
    62    31    32   ar
    63    31    34    1
    64    32    33   ar
    65    32    64    1
    66    33    65    1
    67    11    66    1
    68    11    10    1
    69    14    50    1
    70    14    17    1
