@<TRIPOS>MOLECULE
ZINC03812892
 77 80 0 0 0
SMALL
GASTEIGER

@<TRIPOS>ATOM
      1 C           0.2596    2.4747   -1.3921 C.3     1  UNL1       -0.0560
      2 C           0.7619    1.8167   -2.6919 C.3     1  UNL1       -0.0127
      3 C          -0.4250    1.7742   -3.6813 C.3     1  UNL1       -0.0560
      4 C           1.8529    2.7393   -3.2860 C.3     1  UNL1       -0.0560
      5 C           1.3174    0.3945   -2.4678 C.ar    1  UNL1       -0.0420
      6 C           1.8157   -0.3757   -3.5337 C.ar    1  UNL1       -0.0577
      7 C           2.2825   -1.6854   -3.3412 C.ar    1  UNL1       -0.0559
      8 C           2.2719   -2.2736   -2.0693 C.ar    1  UNL1       -0.0191
      9 C           1.7930   -1.5144   -1.0016 C.ar    1  UNL1       -0.0559
     10 C           1.3259   -0.2070   -1.1962 C.ar    1  UNL1       -0.0577
     11 C           2.7156   -3.7102   -1.8307 C.3     1  UNL1        0.0804
     12 H           2.6000   -3.9342   -0.7639 H       1  UNL1        0.0643
     13 C           4.1687   -3.9877   -2.2382 C.3     1  UNL1       -0.0179
     14 C           4.6500   -5.4445   -2.0501 C.3     1  UNL1       -0.0099
     15 C           4.6812   -5.9250   -0.5981 C.3     1  UNL1       -0.0318
     16 N           5.3129   -7.3203   -0.4652 N.4     1  UNL1        0.2352
     17 C           5.5773   -7.6317    0.9953 C.3     1  UNL1       -0.0315
     18 C           6.3172   -8.9541    1.1214 C.3     1  UNL1       -0.0063
     19 C           5.4799  -10.1046    0.5436 C.3     1  UNL1        0.0058
     20 C           5.2101   -9.7900   -0.9464 C.3     1  UNL1       -0.0063
     21 C           4.5171   -8.4313   -1.1310 C.3     1  UNL1       -0.0315
     22 C           6.0679  -11.5412    0.8470 C.3     1  UNL1        0.1190
     23 C           7.4523  -11.7029    0.1830 C.ar    1  UNL1       -0.0115
     24 C           7.5958  -12.2915   -1.0854 C.ar    1  UNL1       -0.0555
     25 C           8.8613  -12.5291   -1.6302 C.ar    1  UNL1       -0.0614
     26 C          10.0086  -12.1912   -0.9166 C.ar    1  UNL1       -0.0617
     27 C           9.8942  -11.5694    0.3206 C.ar    1  UNL1       -0.0614
     28 C           8.6323  -11.2986    0.8472 C.ar    1  UNL1       -0.0555
     29 C           6.0586  -11.9150    2.3612 C.ar    1  UNL1       -0.0115
     30 C           6.9843  -12.8324    2.9033 C.ar    1  UNL1       -0.0555
     31 C           7.0823  -13.0532    4.2814 C.ar    1  UNL1       -0.0614
     32 C           6.2076  -12.4150    5.1504 C.ar    1  UNL1       -0.0617
     33 C           5.2041  -11.6030    4.6357 C.ar    1  UNL1       -0.0614
     34 C           5.1184  -11.3713    3.2576 C.ar    1  UNL1       -0.0555
     35 O           5.1573  -12.4659    0.2333 O.3     1  UNL1       -0.3790
     36 O           1.8467   -4.6085   -2.5157 O.3     1  UNL1       -0.3872
     37 H          -0.1344    3.4802   -1.5714 H       1  UNL1        0.0238
     38 H           1.0673    2.5692   -0.6558 H       1  UNL1        0.0238
     39 H          -0.5476    1.8887   -0.9355 H       1  UNL1        0.0238
     40 H          -0.8002    2.7861   -3.8845 H       1  UNL1        0.0238
     41 H          -0.1501    1.3370   -4.6470 H       1  UNL1        0.0238
     42 H          -1.2576    1.1889   -3.2764 H       1  UNL1        0.0238
     43 H           2.6952    2.8532   -2.5955 H       1  UNL1        0.0238
     44 H           2.2473    2.3631   -4.2355 H       1  UNL1        0.0238
     45 H           1.4481    3.7409   -3.4818 H       1  UNL1        0.0238
     46 H           1.8333    0.0362   -4.5427 H       1  UNL1        0.0621
     47 H           2.6220   -2.2424   -4.2039 H       1  UNL1        0.0621
     48 H           1.7548   -1.9246    0.0077 H       1  UNL1        0.0621
     49 H           0.9629    0.3165   -0.3195 H       1  UNL1        0.0621
     50 H           4.2852   -3.7635   -3.3067 H       1  UNL1        0.0295
     51 H           4.8377   -3.3045   -1.7008 H       1  UNL1        0.0295
     52 H           4.0222   -6.1026   -2.6574 H       1  UNL1        0.0318
     53 H           5.6656   -5.5083   -2.4613 H       1  UNL1        0.0318
     54 H           5.3131   -5.2514   -0.0087 H       1  UNL1        0.0814
     55 H           3.6864   -5.9740   -0.1446 H       1  UNL1        0.0814
     56 H           4.6113   -7.6566    1.5120 H       1  UNL1        0.0814
     57 H           6.1890   -6.8192    1.4000 H       1  UNL1        0.0814
     58 H           6.5494   -9.1302    2.1761 H       1  UNL1        0.0321
     59 H           7.2728   -8.8743    0.5905 H       1  UNL1        0.0321
     60 H           4.4811  -10.0657    0.9971 H       1  UNL1        0.0339
     61 H           6.1480   -9.7881   -1.5136 H       1  UNL1        0.0321
     62 H           4.5705  -10.5638   -1.3882 H       1  UNL1        0.0321
     63 H           4.4535   -8.1974   -2.1970 H       1  UNL1        0.0814
     64 H           3.5137   -8.4250   -0.6919 H       1  UNL1        0.0814
     65 H           6.7205  -12.5966   -1.6573 H       1  UNL1        0.0621
     66 H           8.9542  -13.0068   -2.6032 H       1  UNL1        0.0618
     67 H          10.9920  -12.4228   -1.3196 H       1  UNL1        0.0618
     68 H          10.7869  -11.3198    0.8907 H       1  UNL1        0.0618
     69 H           8.5836  -10.8345    1.8322 H       1  UNL1        0.0621
     70 H           7.6874  -13.3702    2.2657 H       1  UNL1        0.0621
     71 H           7.8504  -13.7160    4.6739 H       1  UNL1        0.0618
     72 H           6.2911  -12.5719    6.2231 H       1  UNL1        0.0618
     73 H           4.4863  -11.1431    5.3105 H       1  UNL1        0.0618
     74 H           4.2937  -10.7576    2.9149 H       1  UNL1        0.0621
     75 H           5.2806  -13.3258    0.6777 H       1  UNL1        0.2111
     76 H           1.0388   -4.1133   -2.7502 H       1  UNL1        0.2102
     77 H           6.2258   -7.2817   -0.9372 H       1  UNL1        0.2033
@<TRIPOS>UNITY_ATOM_ATTR
16 1
charge 1
@<TRIPOS>BOND
     1     1     2    1
     2     1    37    1
     3     1    38    1
     4     1    39    1
     5     2     3    1
     6     2     4    1
     7     2     5    1
     8     3    40    1
     9     3    41    1
    10     3    42    1
    11     4    43    1
    12     4    44    1
    13     4    45    1
    14     5    10   ar
    15     5     6   ar
    16     6     7   ar
    17     6    46    1
    18     7     8   ar
    19     7    47    1
    20     8     9   ar
    21     9    10   ar
    22     9    48    1
    23    10    49    1
    24    11    13    1
    25    11    36    1
    26    13    14    1
    27    13    50    1
    28    13    51    1
    29    14    15    1
    30    14    52    1
    31    14    53    1
    32    15    16    1
    33    15    54    1
    34    15    55    1
    35    16    21    1
    36    16    17    1
    37    16    77    1
    38    17    18    1
    39    17    56    1
    40    17    57    1
    41    18    19    1
    42    18    58    1
    43    18    59    1
    44    19    20    1
    45    19    22    1
    46    19    60    1
    47    20    21    1
    48    20    61    1
    49    20    62    1
    50    21    63    1
    51    21    64    1
    52    22    23    1
    53    22    29    1
    54    22    35    1
    55    23    28   ar
    56    23    24   ar
    57    24    25   ar
    58    24    65    1
    59    25    26   ar
    60    25    66    1
    61    26    27   ar
    62    26    67    1
    63    27    28   ar
    64    27    68    1
    65    28    69    1
    66    29    34   ar
    67    29    30   ar
    68    30    31   ar
    69    30    70    1
    70    31    32   ar
    71    31    71    1
    72    32    33   ar
    73    32    72    1
    74    33    34   ar
    75    33    73    1
    76    34    74    1
    77    35    75    1
    78    36    76    1
    79    11    12    1
    80    11     8    1
