@<TRIPOS>MOLECULE
ZINC03780893
 68 70 0 0 0
SMALL
GASTEIGER

@<TRIPOS>ATOM
      1 C           4.3041    2.5208    8.9389 C.3     1  UNL1       -0.0643
      2 C           5.5746    2.1820    8.1800 C.3     1  UNL1       -0.0406
      3 C           5.7388    2.5586    6.6752 C.3     1  UNL1        0.0619
      4 C           5.5733    4.0865    6.5508 C.3     1  UNL1       -0.0497
      5 C           7.1674    2.0430    6.3490 C.3     1  UNL1       -0.0497
      6 C           4.7914    2.0112    5.5685 C.2     1  UNL1        0.3130
      7 O           3.6794    1.5339    5.7350 O.2     1  UNL1       -0.2502
      8 O           5.3558    2.3012    4.3488 O.3     1  UNL1       -0.4603
      9 C           4.7124    2.2394    3.0401 C.3     1  UNL1        0.1106
     10 H           3.6256    2.3352    3.1676 H       1  UNL1        0.0740
     11 C           5.2182    3.4387    2.2080 C.3     1  UNL1       -0.0090
     12 C           6.7456    3.4287    1.9509 C.3     1  UNL1       -0.0218
     13 H           6.9310    3.9762    1.0187 H       1  UNL1        0.0342
     14 C           7.2831    2.0357    1.7800 C.2     1  UNL1       -0.0775
     15 C           6.5617    0.9109    1.9250 C.2     1  UNL1       -0.0444
     16 C           5.0722    0.9366    2.2610 C.3     1  UNL1        0.0243
     17 H           4.5898    1.0066    1.2742 H       1  UNL1        0.0388
     18 C           4.4685   -0.3190    2.9513 C.3     1  UNL1       -0.0247
     19 H           4.4820   -0.0902    4.0242 H       1  UNL1        0.0313
     20 C           5.3683   -1.6032    2.9259 C.3     1  UNL1       -0.0219
     21 H           5.7657   -1.6858    3.9457 H       1  UNL1        0.0343
     22 C           6.6432   -1.5046    2.1171 C.2     1  UNL1       -0.0806
     23 C           7.1847   -0.3642    1.7041 C.2     1  UNL1       -0.0621
     24 C           4.6626   -2.9296    2.6916 C.3     1  UNL1       -0.0587
     25 C           2.9209   -0.4877    2.6926 C.3     1  UNL1       -0.0457
     26 C           2.3985   -0.6594    1.2482 C.3     1  UNL1       -0.0153
     27 C           0.8609   -0.9396    1.1045 C.3     1  UNL1        0.1054
     28 H           0.3209   -0.0255    1.3862 H       1  UNL1        0.0734
     29 C           0.3627   -2.0951    1.9710 C.3     1  UNL1        0.0109
     30 C          -0.8429   -2.8544    1.4295 C.3     1  UNL1        0.0686
     31 H          -0.8241   -3.8580    1.8786 H       1  UNL1        0.0600
     32 C          -0.8542   -3.0184   -0.0702 C.3     1  UNL1        0.0710
     33 C          -0.4358   -1.7948   -0.8168 C.2     1  UNL1        0.3098
     34 O          -0.8946   -1.5186   -1.9159 O.2     1  UNL1       -0.2507
     35 O           0.6267   -1.1146   -0.3135 O.3     1  UNL1       -0.4612
     36 O          -2.0953   -2.3010    1.8245 O.3     1  UNL1       -0.3911
     37 C           7.5242    4.1668    3.0459 C.3     1  UNL1       -0.0588
     38 H           4.0413    3.5803    8.8739 H       1  UNL1        0.0230
     39 H           4.4679    2.3090   10.0050 H       1  UNL1        0.0230
     40 H           3.4644    1.9092    8.6081 H       1  UNL1        0.0230
     41 H           6.3768    2.7176    8.7180 H       1  UNL1        0.0273
     42 H           5.7862    1.1182    8.3416 H       1  UNL1        0.0273
     43 H           6.2620    4.6324    7.1998 H       1  UNL1        0.0240
     44 H           5.7139    4.4454    5.5268 H       1  UNL1        0.0240
     45 H           4.5485    4.3730    6.8246 H       1  UNL1        0.0240
     46 H           7.2830    1.0109    6.7104 H       1  UNL1        0.0240
     47 H           7.4052    1.9848    5.2863 H       1  UNL1        0.0240
     48 H           7.9350    2.6525    6.8342 H       1  UNL1        0.0240
     49 H           4.9328    4.3862    2.6832 H       1  UNL1        0.0307
     50 H           4.7194    3.4185    1.2292 H       1  UNL1        0.0307
     51 H           8.3457    1.9755    1.5121 H       1  UNL1        0.0578
     52 H           7.2217   -2.4221    1.9833 H       1  UNL1        0.0575
     53 H           8.1677   -0.3894    1.2319 H       1  UNL1        0.0617
     54 H           4.1953   -3.2628    3.6254 H       1  UNL1        0.0235
     55 H           3.8900   -2.8813    1.9254 H       1  UNL1        0.0235
     56 H           5.3596   -3.7197    2.3848 H       1  UNL1        0.0235
     57 H           2.5711   -1.3179    3.3126 H       1  UNL1        0.0269
     58 H           2.4215    0.4027    3.0977 H       1  UNL1        0.0269
     59 H           2.6127    0.2468    0.6680 H       1  UNL1        0.0301
     60 H           2.9410   -1.4551    0.7282 H       1  UNL1        0.0301
     61 H           0.1397   -1.7096    2.9754 H       1  UNL1        0.0326
     62 H           1.1792   -2.8178    2.0873 H       1  UNL1        0.0326
     63 H          -0.1901   -3.8368   -0.3766 H       1  UNL1        0.0403
     64 H          -1.8722   -3.2703   -0.3990 H       1  UNL1        0.0403
     65 H          -1.9704   -1.5302    2.4005 H       1  UNL1        0.2098
     66 H           7.4192    3.6875    4.0163 H       1  UNL1        0.0235
     67 H           8.5957    4.1968    2.8180 H       1  UNL1        0.0235
     68 H           7.1744    5.1988    3.1445 H       1  UNL1        0.0235
@<TRIPOS>BOND
     1     1     2    1
     2     1    38    1
     3     1    39    1
     4     1    40    1
     5     2     3    1
     6     2    41    1
     7     2    42    1
     8     3     4    1
     9     3     5    1
    10     3     6    1
    11     4    43    1
    12     4    44    1
    13     4    45    1
    14     5    46    1
    15     5    47    1
    16     5    48    1
    17     6     7    2
    18     6     8    1
    19     9    16    1
    20     9    11    1
    21    11    12    1
    22    11    49    1
    23    11    50    1
    24    12    13    1
    25    12    14    1
    26    12    37    1
    27    14    15    2
    28    14    51    1
    29    15    23    1
    30    15    16    1
    31    16    17    1
    32    16    18    1
    33    18    19    1
    34    18    20    1
    35    18    25    1
    36    20    21    1
    37    20    22    1
    38    20    24    1
    39    22    23    2
    40    22    52    1
    41    23    53    1
    42    24    54    1
    43    24    55    1
    44    24    56    1
    45    25    26    1
    46    25    57    1
    47    25    58    1
    48    26    27    1
    49    26    59    1
    50    26    60    1
    51    27    28    1
    52    27    35    1
    53    27    29    1
    54    29    30    1
    55    29    61    1
    56    29    62    1
    57    30    31    1
    58    30    32    1
    59    30    36    1
    60    32    33    1
    61    32    63    1
    62    32    64    1
    63    33    34    2
    64    33    35    1
    65    36    65    1
    66    37    66    1
    67    37    67    1
    68    37    68    1
    69     9    10    1
    70     9     8    1
