@<TRIPOS>MOLECULE
ZINC00010402
 41 43 0 0 0
SMALL
GASTEIGER

@<TRIPOS>ATOM
      1 C          -2.4155    0.1211    1.1505 C.3     1  UNL1       -0.0433
      2 N          -2.9995    0.3538   -0.2135 N.4     1  UNL1        0.2309
      3 C          -4.1375   -0.6053   -0.4745 C.3     1  UNL1       -0.0433
      4 C          -3.4330    1.7852   -0.4589 C.3     1  UNL1       -0.0309
      5 C          -2.2922    2.8070   -0.4216 C.3     1  UNL1        0.0036
      6 C          -1.0784    2.5840   -1.3425 C.3     1  UNL1        0.0221
      7 N          -1.3517    2.8148   -2.7748 N.pl3   1  UNL1       -0.2981
      8 C          -1.3942    4.1690   -3.1891 C.ar    1  UNL1        0.0479
      9 C          -0.2401    4.9663   -3.0973 C.ar    1  UNL1       -0.0393
     10 C          -0.2036    6.2397   -3.6674 C.ar    1  UNL1       -0.0599
     11 C          -1.3256    6.7441   -4.3194 C.ar    1  UNL1       -0.0606
     12 C          -2.4928    5.9835   -4.3886 C.ar    1  UNL1       -0.0462
     13 C          -2.5333    4.6973   -3.8356 C.ar    1  UNL1        0.0341
     14 S          -4.0434    3.7466   -3.9523 S.3     1  UNL1       -0.0857
     15 C          -3.3544    2.0980   -4.0060 C.ar    1  UNL1        0.0341
     16 C          -2.0941    1.8175   -3.4399 C.ar    1  UNL1        0.0479
     17 C          -1.5430    0.5402   -3.6190 C.ar    1  UNL1       -0.0393
     18 C          -2.2609   -0.4574   -4.2800 C.ar    1  UNL1       -0.0599
     19 C          -3.5513   -0.2003   -4.7432 C.ar    1  UNL1       -0.0606
     20 C          -4.0977    1.0750   -4.6045 C.ar    1  UNL1       -0.0462
     21 H          -3.1688    0.3812    1.8982 H       1  UNL1        0.0777
     22 H          -1.5215    0.7375    1.2602 H       1  UNL1        0.0777
     23 H          -2.1417   -0.9342    1.2307 H       1  UNL1        0.0777
     24 H          -4.9616   -0.3611    0.2013 H       1  UNL1        0.0777
     25 H          -4.4366   -0.5032   -1.5183 H       1  UNL1        0.0777
     26 H          -3.7740   -1.6218   -0.2912 H       1  UNL1        0.0777
     27 H          -3.9571    1.7996   -1.4143 H       1  UNL1        0.0815
     28 H          -4.1721    2.0240    0.3159 H       1  UNL1        0.0815
     29 H          -2.7264    3.7937   -0.6255 H       1  UNL1        0.0332
     30 H          -1.9223    2.8657    0.6101 H       1  UNL1        0.0332
     31 H          -0.2841    3.2599   -1.0005 H       1  UNL1        0.0470
     32 H          -0.6656    1.5812   -1.1870 H       1  UNL1        0.0470
     33 H           0.6711    4.5701   -2.6552 H       1  UNL1        0.0636
     34 H           0.7138    6.8237   -3.6356 H       1  UNL1        0.0618
     35 H          -1.2857    7.7236   -4.7907 H       1  UNL1        0.0618
     36 H          -3.3593    6.3888   -4.9062 H       1  UNL1        0.0629
     37 H          -0.5130    0.3478   -3.3241 H       1  UNL1        0.0636
     38 H          -1.7956   -1.4213   -4.4806 H       1  UNL1        0.0618
     39 H          -4.1094   -0.9785   -5.2616 H       1  UNL1        0.0618
     40 H          -5.0904    1.2758   -5.0006 H       1  UNL1        0.0629
     41 H          -2.2888    0.1180   -0.9181 H       1  UNL1        0.2028
@<TRIPOS>UNITY_ATOM_ATTR
2 1
charge 1
@<TRIPOS>BOND
     1     1     2    1
     2     1    21    1
     3     1    22    1
     4     1    23    1
     5     2     3    1
     6     2     4    1
     7     2    41    1
     8     3    24    1
     9     3    25    1
    10     3    26    1
    11     4     5    1
    12     4    27    1
    13     4    28    1
    14     5     6    1
    15     5    29    1
    16     5    30    1
    17     6     7    1
    18     6    31    1
    19     6    32    1
    20     7    16    1
    21     7     8    1
    22     8    13   ar
    23     8     9   ar
    24     9    10   ar
    25     9    33    1
    26    10    11   ar
    27    10    34    1
    28    11    12   ar
    29    11    35    1
    30    12    13   ar
    31    12    36    1
    32    13    14    1
    33    14    15    1
    34    15    20   ar
    35    15    16   ar
    36    16    17   ar
    37    17    18   ar
    38    17    37    1
    39    18    19   ar
    40    18    38    1
    41    19    20   ar
    42    19    39    1
    43    20    40    1
