@<TRIPOS>MOLECULE
ZINC00085733
 26 26 0 0 0
SMALL
GASTEIGER

@<TRIPOS>ATOM
      1 C           5.1134   -0.0197    2.4364 C.ar    1  UNL1       -0.0567
      2 C           5.5151   -0.7179    3.5814 C.ar    1  UNL1       -0.0431
      3 C           5.1664   -2.0537    3.7400 C.ar    1  UNL1        0.0410
      4 C           4.3938   -2.6912    2.7782 C.ar    1  UNL1       -0.0431
      5 C           4.0117   -1.9979    1.6259 C.ar    1  UNL1       -0.0567
      6 C           4.4044   -0.6616    1.4089 C.ar    1  UNL1       -0.0386
      7 C           4.0653    0.0011    0.0678 C.3     1  UNL1        0.0343
      8 H           2.9642   -0.0104    0.0386 H       1  UNL1        0.0406
      9 C           4.5205   -0.8323   -1.1596 C.3     1  UNL1        0.0608
     10 C           6.0300   -0.7436   -1.2829 C.2     1  UNL1        0.3568
     11 O           6.7126   -1.4799   -0.5419 O.co2   1  UNL1       -0.2464
     12 O           6.4067    0.2945   -1.9214 O.co2   1  UNL1       -0.2464
     13 C           4.4337    1.5084   -0.0681 C.3     1  UNL1       -0.0279
     14 N           5.8860    1.7919   -0.1298 N.4     1  UNL1        0.2190
     15 CL          5.6884   -2.9111    5.1358 Cl      1  UNL1       -0.0835
     16 H           5.4006    1.0228    2.3832 H       1  UNL1        0.0621
     17 H           6.1166   -0.2169    4.3334 H       1  UNL1        0.0632
     18 H           4.1107   -3.7332    2.8983 H       1  UNL1        0.0632
     19 H           3.4334   -2.5348    0.8767 H       1  UNL1        0.0621
     20 H           4.2116   -1.8807   -1.1066 H       1  UNL1        0.0387
     21 H           4.0635   -0.4219   -2.0701 H       1  UNL1        0.0387
     22 H           4.0082    1.9233   -0.9886 H       1  UNL1        0.0819
     23 H           4.0381    2.0869    0.7732 H       1  UNL1        0.0819
     24 H           6.2472    1.4138   -1.0513 H       1  UNL1        0.1994
     25 H           6.1536    2.7743   -0.1325 H       1  UNL1        0.1994
     26 H           6.4567    1.2440    0.5254 H       1  UNL1        0.1994
@<TRIPOS>UNITY_ATOM_ATTR
14 1
charge 1
@<TRIPOS>BOND
     1     1     6   ar
     2     1     2   ar
     3     1    16    1
     4     2     3   ar
     5     2    17    1
     6     3     4   ar
     7     3    15    1
     8     4     5   ar
     9     4    18    1
    10     5     6   ar
    11     5    19    1
    12     7     9    1
    13     7    13    1
    14     9    10    1
    15     9    20    1
    16     9    21    1
    17    10    11   ar
    18    10    12   ar
    19    13    14    1
    20    13    22    1
    21    13    23    1
    22    14    24    1
    23    14    25    1
    24    14    26    1
    25     7     8    1
    26     7     6    1
