@<TRIPOS>MOLECULE
ZINC02570895
 40 42 0 0 0
SMALL
GASTEIGER

@<TRIPOS>ATOM
      1 C           2.5614   -0.0400   -0.0133 C.3     1  UNL1       -0.0397
      2 C           1.0625   -0.0106   -0.0367 C.ar    1  UNL1       -0.0504
      3 C           0.3411   -1.1219    0.4044 C.ar    1  UNL1       -0.0582
      4 C          -1.0556   -1.1191    0.3680 C.ar    1  UNL1       -0.0523
      5 C          -1.7675    0.0145   -0.0501 C.ar    1  UNL1        0.0005
      6 C          -1.0359    1.1195   -0.5065 C.ar    1  UNL1       -0.0523
      7 C           0.3642    1.1057   -0.5055 C.ar    1  UNL1       -0.0582
      8 C          -3.2396    0.0414   -0.0551 C.ar    1  UNL1        0.0752
      9 C          -4.0810    0.6355   -0.9813 C.ar    1  UNL1       -0.0039
     10 C          -5.3945    0.2249   -0.6568 C.ar    1  UNL1        0.1662
     11 N          -5.3776   -0.6173    0.3905 N.ar    1  UNL1       -0.1618
     12 N          -4.0962   -0.5938    0.8480 N.ar    1  UNL1       -0.2316
     13 C          -3.8174   -1.1502    2.1298 C.ar    1  UNL1        0.0661
     14 C          -4.5924   -2.2251    2.5954 C.ar    1  UNL1       -0.0344
     15 C          -4.3142   -2.8037    3.8371 C.ar    1  UNL1       -0.0334
     16 C          -3.2810   -2.2842    4.6227 C.ar    1  UNL1        0.1051
     17 C          -2.5238   -1.1975    4.1797 C.ar    1  UNL1       -0.0334
     18 C          -2.7956   -0.6271    2.9352 C.ar    1  UNL1       -0.0344
     19 S          -2.9549   -2.9764    6.2181 S.O2    1  UNL1        0.0559
     20 O          -1.7217   -2.4238    6.7343 O.2     1  UNL1       -0.1533
     21 O          -4.1815   -2.9893    6.9781 O.2     1  UNL1       -0.1533
     22 N          -2.6007   -4.5806    5.8641 N.3     1  UNL1       -0.2035
     23 C          -6.6605    0.6207   -1.3687 C.3     1  UNL1        0.4360
     24 F          -6.4056    1.4330   -2.4334 F       1  UNL1       -0.1644
     25 F          -7.3462   -0.4459   -1.8563 F       1  UNL1       -0.1644
     26 F          -7.5120    1.3097   -0.5626 F       1  UNL1       -0.1644
     27 H           2.9202   -0.1770    1.0120 H       1  UNL1        0.0278
     28 H           2.9290   -0.8626   -0.6354 H       1  UNL1        0.0278
     29 H           2.9886    0.8910   -0.3991 H       1  UNL1        0.0278
     30 H           0.8610   -2.0026    0.7756 H       1  UNL1        0.0620
     31 H          -1.5735   -2.0204    0.6879 H       1  UNL1        0.0624
     32 H          -1.5434    2.0110   -0.8678 H       1  UNL1        0.0624
     33 H           0.9027    1.9768   -0.8727 H       1  UNL1        0.0620
     34 H          -3.7855    1.2488   -1.8231 H       1  UNL1        0.0660
     35 H          -5.3933   -2.6389    1.9838 H       1  UNL1        0.0639
     36 H          -4.9043   -3.6489    4.1834 H       1  UNL1        0.0638
     37 H          -1.7309   -0.7809    4.7977 H       1  UNL1        0.0638
     38 H          -2.2159    0.2410    2.6303 H       1  UNL1        0.0639
     39 H          -1.6152   -4.7621    6.0589 H       1  UNL1        0.1442
     40 H          -3.2324   -5.1852    6.3921 H       1  UNL1        0.1442
@<TRIPOS>BOND
     1     1     2    1
     2     1    27    1
     3     1    28    1
     4     1    29    1
     5     2     7   ar
     6     2     3   ar
     7     3     4   ar
     8     3    30    1
     9     4     5   ar
    10     4    31    1
    11     5     6   ar
    12     5     8    1
    13     6     7   ar
    14     6    32    1
    15     7    33    1
    16     8    12   ar
    17     8     9   ar
    18     9    10   ar
    19     9    34    1
    20    10    11   ar
    21    10    23    1
    22    11    12   ar
    23    12    13    1
    24    13    18   ar
    25    13    14   ar
    26    14    15   ar
    27    14    35    1
    28    15    16   ar
    29    15    36    1
    30    16    17   ar
    31    16    19    1
    32    17    18   ar
    33    17    37    1
    34    18    38    1
    35    19    20    2
    36    19    21    2
    37    19    22    1
    38    22    39    1
    39    22    40    1
    40    23    24    1
    41    23    25    1
    42    23    26    1
