@<TRIPOS>MOLECULE
ZINC03813078
 56 57 0 0 0
SMALL
GASTEIGER

@<TRIPOS>ATOM
      1 C          -2.7941    3.9845   -2.3327 C.3     1  UNL1       -0.0653
      2 C          -3.2553    3.5430   -0.9526 C.3     1  UNL1       -0.0559
      3 C          -4.7807    3.5560   -0.8453 C.3     1  UNL1       -0.0532
      4 C          -5.3019    3.0256    0.4921 C.3     1  UNL1       -0.0504
      5 C          -4.8687    3.8600    1.7025 C.3     1  UNL1       -0.0232
      6 C          -5.4709    3.3470    3.0153 C.3     1  UNL1        0.0734
      7 H          -6.5648    3.3972    2.9599 H       1  UNL1        0.0637
      8 C          -5.0067    1.9603    3.3532 C.2     1  UNL1       -0.0595
      9 C          -5.8257    0.9057    3.4921 C.2     1  UNL1       -0.0796
     10 C          -5.3484   -0.4990    3.7903 C.3     1  UNL1        0.0099
     11 H          -4.2519   -0.4992    3.8529 H       1  UNL1        0.0372
     12 C          -5.9411   -1.0214    5.1163 C.3     1  UNL1        0.0652
     13 H          -6.5778   -0.2821    5.6159 H       1  UNL1        0.0600
     14 C          -6.7597   -2.2669    4.7790 C.3     1  UNL1        0.0112
     15 C          -6.2425   -2.7341    3.4326 C.3     1  UNL1        0.1059
     16 H          -6.9958   -3.3154    2.8877 H       1  UNL1        0.0736
     17 C          -5.8241   -1.4754    2.6918 C.3     1  UNL1        0.0115
     18 H          -6.6570   -1.0549    2.1150 H       1  UNL1        0.0347
     19 C          -4.7150   -1.9786    1.7885 C.3     1  UNL1        0.0114
     20 C          -4.2688   -3.2127    2.5074 C.2     1  UNL1        0.0946
     21 C          -3.2482   -3.9912    2.1269 C.2     1  UNL1       -0.0464
     22 C          -2.8637   -5.2873    2.7835 C.3     1  UNL1       -0.0309
     23 C          -3.5325   -6.5028    2.1258 C.3     1  UNL1       -0.0393
     24 C          -3.2125   -6.6838    0.6430 C.3     1  UNL1        0.0495
     25 C          -1.7209   -6.8959    0.3931 C.2     1  UNL1        0.3560
     26 O          -1.2007   -7.8716    1.0016 O.co2   1  UNL1       -0.2464
     27 O          -1.1941   -6.0702   -0.4074 O.co2   1  UNL1       -0.2464
     28 O          -5.0753   -3.5408    3.5863 O.2     1  UNL1       -0.4930
     29 O          -4.8795   -1.3050    6.0235 O.3     1  UNL1       -0.3911
     30 O          -5.0636    4.2110    4.0709 O.3     1  UNL1       -0.3878
     31 H          -3.1653    3.3054   -3.1068 H       1  UNL1        0.0230
     32 H          -1.7008    3.9915   -2.3821 H       1  UNL1        0.0230
     33 H          -3.1511    4.9941   -2.5598 H       1  UNL1        0.0230
     34 H          -2.8740    2.5356   -0.7493 H       1  UNL1        0.0263
     35 H          -2.8152    4.2155   -0.2091 H       1  UNL1        0.0263
     36 H          -5.1572    4.5721   -1.0103 H       1  UNL1        0.0265
     37 H          -5.1999    2.9300   -1.6436 H       1  UNL1        0.0265
     38 H          -6.3983    3.0062    0.4495 H       1  UNL1        0.0266
     39 H          -4.9729    1.9867    0.6100 H       1  UNL1        0.0266
     40 H          -3.7755    3.8751    1.7916 H       1  UNL1        0.0293
     41 H          -5.1671    4.9064    1.5582 H       1  UNL1        0.0293
     42 H          -3.9314    1.8250    3.4621 H       1  UNL1        0.0594
     43 H          -6.8995    1.0448    3.3776 H       1  UNL1        0.0573
     44 H          -6.6768   -3.0457    5.5430 H       1  UNL1        0.0326
     45 H          -7.8126   -1.9802    4.6728 H       1  UNL1        0.0326
     46 H          -3.9116   -1.2489    1.6516 H       1  UNL1        0.0347
     47 H          -5.1191   -2.2520    0.8075 H       1  UNL1        0.0347
     48 H          -2.6579   -3.7221    1.2517 H       1  UNL1        0.0605
     49 H          -1.7729   -5.3893    2.7593 H       1  UNL1        0.0309
     50 H          -3.1372   -5.2706    3.8456 H       1  UNL1        0.0309
     51 H          -3.2408   -7.4018    2.6795 H       1  UNL1        0.0273
     52 H          -4.6215   -6.4163    2.2351 H       1  UNL1        0.0273
     53 H          -3.7419   -7.5666    0.2648 H       1  UNL1        0.0379
     54 H          -3.5786   -5.8305    0.0603 H       1  UNL1        0.0379
     55 H          -5.1926   -1.9479    6.6801 H       1  UNL1        0.2098
     56 H          -5.3258    3.7770    4.9012 H       1  UNL1        0.2102
@<TRIPOS>BOND
     1     1     2    1
     2     1    31    1
     3     1    32    1
     4     1    33    1
     5     2     3    1
     6     2    34    1
     7     2    35    1
     8     3     4    1
     9     3    36    1
    10     3    37    1
    11     4     5    1
    12     4    38    1
    13     4    39    1
    14     5     6    1
    15     5    40    1
    16     5    41    1
    17     6     7    1
    18     6     8    1
    19     6    30    1
    20     8     9    2
    21     8    42    1
    22     9    43    1
    23    10    17    1
    24    10    12    1
    25    12    13    1
    26    12    14    1
    27    12    29    1
    28    14    15    1
    29    14    44    1
    30    14    45    1
    31    15    16    1
    32    15    28    1
    33    15    17    1
    34    17    18    1
    35    17    19    1
    36    19    20    1
    37    19    46    1
    38    19    47    1
    39    20    21    2
    40    20    28    1
    41    21    22    1
    42    21    48    1
    43    22    23    1
    44    22    49    1
    45    22    50    1
    46    23    24    1
    47    23    51    1
    48    23    52    1
    49    24    25    1
    50    24    53    1
    51    24    54    1
    52    25    26   ar
    53    25    27   ar
    54    29    55    1
    55    30    56    1
    56    10    11    1
    57    10     9    1
