@<TRIPOS>MOLECULE
ZINC00004949
 29 29 0 0 0
SMALL
GASTEIGER

@<TRIPOS>ATOM
      1 C          -1.4843    0.3609   -0.2440 C.3     1  UNL1       -0.0530
      2 C          -0.4914    1.4220    0.2190 C.3     1  UNL1       -0.0524
      3 C           0.9470    1.0805   -0.1772 C.3     1  UNL1       -0.0420
      4 C           1.4019   -0.3185    0.3198 C.3     1  UNL1        0.0208
      5 C           0.3759   -1.3523   -0.2357 C.3     1  UNL1       -0.0420
      6 C          -1.0699   -1.0502    0.1609 C.3     1  UNL1       -0.0524
      7 C           1.4167   -0.4161    1.8776 C.3     1  UNL1        0.0596
      8 C           2.4039    0.5506    2.5092 C.2     1  UNL1        0.3567
      9 O           3.6110    0.1387    2.4447 O.co2   1  UNL1       -0.2464
     10 O           1.9845    1.6962    2.7781 O.co2   1  UNL1       -0.2464
     11 C           2.7879   -0.6925   -0.2911 C.3     1  UNL1       -0.0291
     12 N           3.8845    0.2187    0.0741 N.4     1  UNL1        0.2189
     13 H          -1.5742    0.4071   -1.3362 H       1  UNL1        0.0265
     14 H          -2.4770    0.5832    0.1638 H       1  UNL1        0.0265
     15 H          -0.7676    2.3895   -0.2167 H       1  UNL1        0.0265
     16 H          -0.5636    1.5445    1.3052 H       1  UNL1        0.0265
     17 H           1.6101    1.8713    0.1882 H       1  UNL1        0.0273
     18 H           1.0185    1.1143   -1.2729 H       1  UNL1        0.0273
     19 H           0.6382   -2.3651    0.0939 H       1  UNL1        0.0273
     20 H           0.4306   -1.3634   -1.3334 H       1  UNL1        0.0273
     21 H          -1.2029   -1.1816    1.2401 H       1  UNL1        0.0265
     22 H          -1.7386   -1.7757   -0.3170 H       1  UNL1        0.0265
     23 H           0.4332   -0.2196    2.3155 H       1  UNL1        0.0386
     24 H           1.6849   -1.4368    2.1813 H       1  UNL1        0.0386
     25 H           3.1000   -1.6940    0.0262 H       1  UNL1        0.0819
     26 H           2.7467   -0.6821   -1.3857 H       1  UNL1        0.0819
     27 H           4.0505    0.1263    1.1168 H       1  UNL1        0.1994
     28 H           4.7906    0.0038   -0.3397 H       1  UNL1        0.1994
     29 H           3.6660    1.2151   -0.0175 H       1  UNL1        0.1994
@<TRIPOS>UNITY_ATOM_ATTR
12 1
charge 1
@<TRIPOS>BOND
     1     1     6    1
     2     1     2    1
     3     1    13    1
     4     1    14    1
     5     2     3    1
     6     2    15    1
     7     2    16    1
     8     3     4    1
     9     3    17    1
    10     3    18    1
    11     4     5    1
    12     4     7    1
    13     4    11    1
    14     5     6    1
    15     5    19    1
    16     5    20    1
    17     6    21    1
    18     6    22    1
    19     7     8    1
    20     7    23    1
    21     7    24    1
    22     8     9   ar
    23     8    10   ar
    24    11    12    1
    25    11    25    1
    26    11    26    1
    27    12    27    1
    28    12    28    1
    29    12    29    1
