@<TRIPOS>MOLECULE
ZINC00012342
 44 45 0 0 0
SMALL
GASTEIGER

@<TRIPOS>ATOM
      1 C           1.0966   -1.8399   -1.2030 C.3     1  UNL1       -0.0619
      2 C           0.6402   -0.3755   -1.3165 C.3     1  UNL1       -0.0370
      3 H           1.0020    0.1117   -0.4030 H       1  UNL1        0.0304
      4 C          -0.9057   -0.2623   -1.3344 C.3     1  UNL1       -0.0247
      5 C          -1.5878   -0.9639   -0.1742 C.ar    1  UNL1       -0.0434
      6 C          -2.5258   -1.9809   -0.4204 C.ar    1  UNL1       -0.0549
      7 C          -3.1040   -2.6909    0.6353 C.ar    1  UNL1       -0.0163
      8 C          -2.7372   -2.3872    1.9361 C.ar    1  UNL1        0.1582
      9 C          -1.8232   -1.3712    2.1969 C.ar    1  UNL1        0.1585
     10 C          -1.2628   -0.6391    1.1552 C.ar    1  UNL1       -0.0133
     11 O          -1.4791   -1.1453    3.5027 O.3     1  UNL1       -0.5033
     12 O          -3.2684   -3.1095    2.9664 O.3     1  UNL1       -0.5033
     13 C           1.3496    0.3134   -2.5281 C.3     1  UNL1       -0.0370
     14 H           2.3997   -0.0071   -2.5009 H       1  UNL1        0.0304
     15 C           0.8260   -0.1425   -3.8925 C.3     1  UNL1       -0.0619
     16 C           1.3453    1.8618   -2.4446 C.3     1  UNL1       -0.0247
     17 C           2.0898    2.3697   -1.2272 C.ar    1  UNL1       -0.0434
     18 C           1.4202    3.1210   -0.2469 C.ar    1  UNL1       -0.0549
     19 C           2.0643    3.4662    0.9436 C.ar    1  UNL1       -0.0163
     20 C           3.3722    3.0531    1.1512 C.ar    1  UNL1        0.1582
     21 C           4.0593    2.3425    0.1734 C.ar    1  UNL1        0.1585
     22 C           3.4386    2.0236   -1.0268 C.ar    1  UNL1       -0.0133
     23 O           5.3365    1.9396    0.4519 O.3     1  UNL1       -0.5033
     24 O           3.9782    3.3266    2.3438 O.3     1  UNL1       -0.5033
     25 H           2.1745   -1.9325   -1.3719 H       1  UNL1        0.0233
     26 H           0.5775   -2.4836   -1.9188 H       1  UNL1        0.0233
     27 H           0.9059   -2.2275   -0.1963 H       1  UNL1        0.0233
     28 H          -1.2110    0.7909   -1.3207 H       1  UNL1        0.0316
     29 H          -1.2922   -0.6814   -2.2714 H       1  UNL1        0.0316
     30 H          -2.7964   -2.2418   -1.4405 H       1  UNL1        0.0621
     31 H          -3.8166   -3.4872    0.4426 H       1  UNL1        0.0655
     32 H          -0.5563    0.1594    1.3600 H       1  UNL1        0.0658
     33 H          -0.7338   -0.5194    3.5097 H       1  UNL1        0.2923
     34 H          -2.8493   -2.7338    3.7666 H       1  UNL1        0.2923
     35 H          -0.1855    0.2262   -4.0874 H       1  UNL1        0.0233
     36 H           1.4756    0.2358   -4.6901 H       1  UNL1        0.0233
     37 H           0.8217   -1.2339   -3.9707 H       1  UNL1        0.0233
     38 H           1.8310    2.2862   -3.3335 H       1  UNL1        0.0316
     39 H           0.3154    2.2387   -2.4518 H       1  UNL1        0.0316
     40 H           0.3831    3.4163   -0.3905 H       1  UNL1        0.0621
     41 H           1.5424    4.0281    1.7123 H       1  UNL1        0.0655
     42 H           3.9754    1.4745   -1.7946 H       1  UNL1        0.0658
     43 H           5.6298    1.3540   -0.2677 H       1  UNL1        0.2923
     44 H           4.8644    2.9199    2.2636 H       1  UNL1        0.2923
@<TRIPOS>BOND
     1     1    25    1
     2     1    26    1
     3     1    27    1
     4     2     4    1
     5     2    13    1
     6     4     5    1
     7     4    28    1
     8     4    29    1
     9     5    10   ar
    10     5     6   ar
    11     6     7   ar
    12     6    30    1
    13     7     8   ar
    14     7    31    1
    15     8     9   ar
    16     8    12    1
    17     9    10   ar
    18     9    11    1
    19    10    32    1
    20    11    33    1
    21    12    34    1
    22    13    14    1
    23    13    15    1
    24    13    16    1
    25    15    35    1
    26    15    36    1
    27    15    37    1
    28    16    17    1
    29    16    38    1
    30    16    39    1
    31    17    22   ar
    32    17    18   ar
    33    18    19   ar
    34    18    40    1
    35    19    20   ar
    36    19    41    1
    37    20    21   ar
    38    20    24    1
    39    21    22   ar
    40    21    23    1
    41    22    42    1
    42    23    43    1
    43    24    44    1
    44     2     3    1
    45     2     1    1
