@<TRIPOS>MOLECULE
ZINC00000215
 35 35 0 0 0
SMALL
GASTEIGER

@<TRIPOS>ATOM
      1 C           1.0124   -0.0988    0.1927 C.3     1  UNL1       -0.0244
      2 C           0.3020    0.4164   -1.0447 C.3     1  UNL1       -0.0341
      3 N           0.9086   -0.1501   -2.3234 N.4     1  UNL1        0.2424
      4 C           0.8606   -1.6680   -2.4393 C.3     1  UNL1       -0.0341
      5 C          -0.5192   -2.2885   -2.4529 C.3     1  UNL1       -0.0244
      6 C           0.4566    0.7018   -3.5728 C.3     1  UNL1        0.0403
      7 H           0.9315    1.6696   -3.3831 H       1  UNL1        0.0934
      8 C           1.0455    0.1011   -4.8443 C.3     1  UNL1       -0.0142
      9 C          -1.0637    0.9004   -3.6752 C.2     1  UNL1        0.2100
     10 O          -1.8400    0.0657   -3.2106 O.2     1  UNL1       -0.2860
     11 C          -1.6589    2.1379   -4.2665 C.ar    1  UNL1        0.0231
     12 C          -3.0665    2.2102   -4.2969 C.ar    1  UNL1       -0.0511
     13 C          -3.7157    3.3478   -4.7680 C.ar    1  UNL1       -0.0611
     14 C          -2.9690    4.4317   -5.2149 C.ar    1  UNL1       -0.0617
     15 C          -1.5752    4.3710   -5.1998 C.ar    1  UNL1       -0.0611
     16 C          -0.9149    3.2261   -4.7298 C.ar    1  UNL1       -0.0511
     17 H           0.8437   -1.1690    0.3417 H       1  UNL1        0.0281
     18 H           0.6235    0.4137    1.0789 H       1  UNL1        0.0281
     19 H           2.0900    0.0840    0.1423 H       1  UNL1        0.0281
     20 H          -0.7626    0.1780   -1.0149 H       1  UNL1        0.0812
     21 H           0.4228    1.5041   -1.0999 H       1  UNL1        0.0812
     22 H           1.4226   -1.9521   -3.3335 H       1  UNL1        0.0812
     23 H           1.4332   -2.0589   -1.5922 H       1  UNL1        0.0812
     24 H          -1.0293   -2.1110   -3.4025 H       1  UNL1        0.0281
     25 H          -0.4320   -3.3762   -2.3558 H       1  UNL1        0.0281
     26 H          -1.1460   -1.9439   -1.6264 H       1  UNL1        0.0281
     27 H           0.5188   -0.8115   -5.1437 H       1  UNL1        0.0289
     28 H           0.9619    0.8027   -5.6805 H       1  UNL1        0.0289
     29 H           2.1086   -0.1348   -4.7204 H       1  UNL1        0.0289
     30 H          -3.6735    1.3775   -3.9437 H       1  UNL1        0.0625
     31 H          -4.8031    3.3874   -4.7782 H       1  UNL1        0.0618
     32 H          -3.4768    5.3246   -5.5755 H       1  UNL1        0.0618
     33 H          -1.0045    5.2295   -5.5516 H       1  UNL1        0.0618
     34 H           0.1697    3.2406   -4.7393 H       1  UNL1        0.0625
     35 H           1.9134    0.0490   -2.2480 H       1  UNL1        0.2040
@<TRIPOS>UNITY_ATOM_ATTR
3 1
charge 1
@<TRIPOS>BOND
     1     1     2    1
     2     1    17    1
     3     1    18    1
     4     1    19    1
     5     2     3    1
     6     2    20    1
     7     2    21    1
     8     3     4    1
     9     3     6    1
    10     3    35    1
    11     4     5    1
    12     4    22    1
    13     4    23    1
    14     5    24    1
    15     5    25    1
    16     5    26    1
    17     6     7    1
    18     6     8    1
    19     6     9    1
    20     8    27    1
    21     8    28    1
    22     8    29    1
    23     9    10    2
    24     9    11    1
    25    11    16   ar
    26    11    12   ar
    27    12    13   ar
    28    12    30    1
    29    13    14   ar
    30    13    31    1
    31    14    15   ar
    32    14    32    1
    33    15    16   ar
    34    15    33    1
    35    16    34    1
