@<TRIPOS>MOLECULE
ZINC03830261
 54 57 0 0 0
SMALL
GASTEIGER

@<TRIPOS>ATOM
      1 C          -3.4856   -7.5207   -5.6480 C.3     1  UNL1       -0.0484
      2 C          -4.3043   -6.3204   -5.1584 C.3     1  UNL1        0.0419
      3 CA         -4.9613   -6.5972   -3.7846 C.3     1  UNL1        0.1423
      4 HA         -4.4173   -7.4122   -3.2862 H       1  UNL1        0.0632
      5 N          -4.7720   -5.4037   -2.9417 N.am    1  UNL1       -0.2707
      6 C          -4.0933   -4.2360   -3.5098 C.3     1  UNL1        0.1005
      7 H          -4.7912   -3.4442   -3.8016 H       1  UNL1        0.0640
      8 S          -3.0908   -4.9191   -4.8795 S.3     1  UNL1       -0.1273
      9 CA         -3.4101   -4.0372   -2.1344 C.3     1  UNL1        0.1277
     10 HA         -3.9055   -3.2795   -1.5134 H       1  UNL1        0.0622
     11 C          -3.9733   -5.4445   -1.8329 C.2     1  UNL1        0.2402
     12 O          -3.6890   -6.3269   -1.0544 O.2     1  UNL1       -0.2734
     13 N          -1.9140   -3.9130   -2.0782 N.am    1  UNL1       -0.2999
     14 C          -1.3017   -2.7891   -1.5576 C.2     1  UNL1        0.2386
     15 O          -1.9577   -1.8071   -1.1935 O.2     1  UNL1       -0.2734
     16 CA          0.2204   -2.8917   -1.2599 C.3     1  UNL1        0.1261
     17 HA          0.5784   -1.8509   -1.1924 H       1  UNL1        0.0646
     18 C           0.4731   -3.5650    0.0900 C.ar    1  UNL1       -0.0184
     19 C           0.6764   -2.7887    1.2436 C.ar    1  UNL1       -0.0563
     20 C           0.9363   -3.3971    2.4718 C.ar    1  UNL1       -0.0614
     21 C           0.9926   -4.7860    2.5702 C.ar    1  UNL1       -0.0617
     22 C           0.7865   -5.5700    1.4386 C.ar    1  UNL1       -0.0614
     23 C           0.5239   -4.9650    0.2092 C.ar    1  UNL1       -0.0563
     24 N           1.0497   -3.5284   -2.2785 N.am    1  UNL1       -0.2836
     25 C           1.4709   -2.8077   -3.3693 C.2     1  UNL1        0.3106
     26 O           0.8962   -1.7964   -3.7595 O.2     1  UNL1       -0.2521
     27 N           2.6562   -3.2597   -3.9361 N.am    1  UNL1       -0.2084
     28 C           3.3136   -2.5315   -5.0004 C.3     1  UNL1        0.0409
     29 C           4.7687   -2.9515   -4.8675 C.3     1  UNL1        0.0294
     30 N           4.6867   -4.2267   -4.2150 N.am    1  UNL1       -0.2974
     31 C           3.4913   -4.3085   -3.5086 C.2     1  UNL1        0.3098
     32 O           3.2653   -5.1329   -2.6378 O.2     1  UNL1       -0.2522
     33 C          -6.4199   -7.1184   -3.9050 C.2     1  UNL1        0.3774
     34 O          -6.5386   -8.2198   -4.5206 O.co2   1  UNL1       -0.2442
     35 OXT        -7.3240   -6.3919   -3.4017 O.co2   1  UNL1       -0.2442
     36 C          -5.2723   -5.8649   -6.2621 C.3     1  UNL1       -0.0484
     37 H          -4.1304   -8.3852   -5.8385 H       1  UNL1        0.0244
     38 H          -2.9588   -7.2970   -6.5834 H       1  UNL1        0.0244
     39 H          -2.7371   -7.8282   -4.9081 H       1  UNL1        0.0244
     40 H          -1.3561   -4.7559   -2.1648 H       1  UNL1        0.1496
     41 H           0.6342   -1.7026    1.1882 H       1  UNL1        0.0621
     42 H           1.0931   -2.7861    3.3574 H       1  UNL1        0.0618
     43 H           1.1894   -5.2597    3.5281 H       1  UNL1        0.0618
     44 H           0.8262   -6.6545    1.5092 H       1  UNL1        0.0618
     45 H           0.3740   -5.6057   -0.6592 H       1  UNL1        0.0621
     46 H           1.7678   -4.1530   -1.9223 H       1  UNL1        0.1513
     47 H           2.8892   -2.8776   -5.9496 H       1  UNL1        0.0486
     48 H           3.1731   -1.4500   -4.9191 H       1  UNL1        0.0486
     49 H           5.3012   -3.0295   -5.8176 H       1  UNL1        0.0478
     50 H           5.3120   -2.2765   -4.1962 H       1  UNL1        0.0478
     51 H           5.4750   -4.7684   -3.8839 H       1  UNL1        0.1503
     52 H          -4.7357   -5.5662   -7.1711 H       1  UNL1        0.0244
     53 H          -5.9450   -6.6762   -6.5624 H       1  UNL1        0.0244
     54 H          -5.8947   -5.0213   -5.9441 H       1  UNL1        0.0244
@<TRIPOS>BOND
     1     1     2    1
     2     1    37    1
     3     1    38    1
     4     1    39    1
     5     2     8    1
     6     2     3    1
     7     2    36    1
     8     3     4    1
     9     3     5    1
    10     3    33    1
    11     5    11   am
    12     5     6    1
    13     6     7    1
    14     6     8    1
    15     6     9    1
    16     9    10    1
    17     9    11    1
    18     9    13    1
    19    11    12    2
    20    13    14   am
    21    13    40    1
    22    14    15    2
    23    14    16    1
    24    16    17    1
    25    16    18    1
    26    16    24    1
    27    18    23   ar
    28    18    19   ar
    29    19    20   ar
    30    19    41    1
    31    20    21   ar
    32    20    42    1
    33    21    22   ar
    34    21    43    1
    35    22    23   ar
    36    22    44    1
    37    23    45    1
    38    24    25   am
    39    24    46    1
    40    25    26    2
    41    25    27   am
    42    27    31   am
    43    27    28    1
    44    28    29    1
    45    28    47    1
    46    28    48    1
    47    29    30    1
    48    29    49    1
    49    29    50    1
    50    30    31   am
    51    30    51    1
    52    31    32    2
    53    33    34   ar
    54    33    35   ar
    55    36    52    1
    56    36    53    1
    57    36    54    1
