@<TRIPOS>MOLECULE
ZINC03872055
 23 24 0 0 0
SMALL
GASTEIGER

@<TRIPOS>ATOM
      1 C          -1.6365    0.9722    0.0028 C.ar    1  UNL1       -0.0183
      2 C          -0.2402    0.8958    0.0197 C.ar    1  UNL1        0.0607
      3 C           0.3411   -0.3675    0.0511 C.ar    1  UNL1        0.1355
      4 C          -0.4226   -1.5406    0.1022 C.ar    1  UNL1       -0.0052
      5 C          -1.8195   -1.4449    0.0955 C.ar    1  UNL1        0.1252
      6 C          -2.4297   -0.1873    0.0425 C.ar    1  UNL1        0.0691
      7 CL         -4.1403    0.0588    0.0362 Cl      1  UNL1       -0.0815
      8 S          -2.7791   -2.9268    0.0586 S.O2    1  UNL1        0.0574
      9 O          -3.7037   -2.8656   -1.0464 O.2     1  UNL1       -0.1532
     10 O          -1.8953   -4.0536    0.2448 O.2     1  UNL1       -0.1532
     11 N          -3.6744   -2.8412    1.4763 N.3     1  UNL1       -0.2035
     12 S           2.1057   -0.4803   -0.0118 S.O2    1  UNL1        0.1017
     13 O           2.4065   -0.9433   -1.3529 O.2     1  UNL1       -0.1462
     14 O           2.4804   -1.2623    1.1501 O.2     1  UNL1       -0.1462
     15 N           2.6989    1.0172    0.1609 N.2     1  UNL1       -0.1214
     16 C           1.8955    2.0158    0.1165 C.2     1  UNL1        0.1076
     17 N           0.5396    2.0507   -0.0170 N.pl3   1  UNL1       -0.3026
     18 H          -2.1248    1.9439   -0.0454 H       1  UNL1        0.0652
     19 H           0.0764   -2.5092    0.1260 H       1  UNL1        0.0658
     20 H          -4.6375   -2.5711    1.2680 H       1  UNL1        0.1442
     21 H          -3.6040   -3.7320    1.9752 H       1  UNL1        0.1442
     22 H           2.3215    3.0292    0.2088 H       1  UNL1        0.1017
     23 H           0.0659    2.9462    0.0234 H       1  UNL1        0.1531
@<TRIPOS>BOND
     1     1     6   ar
     2     1     2   ar
     3     1    18    1
     4     2    17    1
     5     2     3   ar
     6     3     4   ar
     7     3    12    1
     8     4     5   ar
     9     4    19    1
    10     5     6   ar
    11     5     8    1
    12     6     7    1
    13     8     9    2
    14     8    10    2
    15     8    11    1
    16    11    20    1
    17    11    21    1
    18    12    13    2
    19    12    14    2
    20    12    15    1
    21    15    16    2
    22    16    17    1
    23    16    22    1
    24    17    23    1
