@<TRIPOS>MOLECULE
ZINC00001590
 17 17 0 0 0
SMALL
GASTEIGER

@<TRIPOS>ATOM
      1 C           0.6070    1.2162   -0.0636 C.ar    1  UNL1       -0.0314
      2 C          -0.7636    1.0194   -0.0642 C.ar    1  UNL1        0.0283
      3 N          -1.3487   -0.1970   -0.0371 N.ar    1  UNL1       -0.2632
      4 C          -0.5336   -1.2716    0.0054 C.ar    1  UNL1        0.0283
      5 C           0.8448   -1.1830    0.0145 C.ar    1  UNL1       -0.0314
      6 C           1.4249    0.0862   -0.0286 C.ar    1  UNL1        0.0408
      7 C           2.9093    0.1690    0.0037 C.2     1  UNL1        0.2575
      8 O           3.5699   -0.7506    0.4809 O.2     1  UNL1       -0.2689
      9 N           3.4913    1.2995   -0.5585 N.am    1  UNL1       -0.2496
     10 N           4.9018    1.3504   -0.6641 N.3     1  UNL1       -0.2541
     11 H           1.0015    2.2247   -0.0580 H       1  UNL1        0.0640
     12 H          -1.4532    1.8593   -0.0777 H       1  UNL1        0.0830
     13 H          -1.0335   -2.2358    0.0368 H       1  UNL1        0.0830
     14 H           1.4536   -2.0807    0.0545 H       1  UNL1        0.0640
     15 H           2.9480    1.9341   -1.1383 H       1  UNL1        0.1690
     16 H           5.2643    1.6792    0.2365 H       1  UNL1        0.1405
     17 H           5.2303    0.3741   -0.6974 H       1  UNL1        0.1405
@<TRIPOS>BOND
     1     1     6   ar
     2     1     2   ar
     3     1    11    1
     4     2     3   ar
     5     2    12    1
     6     3     4   ar
     7     4     5   ar
     8     4    13    1
     9     5     6   ar
    10     5    14    1
    11     6     7    1
    12     7     8    2
    13     7     9   am
    14     9    10    1
    15     9    15    1
    16    10    16    1
    17    10    17    1
