@<TRIPOS>MOLECULE
ZINC01539579
 53 55 0 0 0
SMALL
GASTEIGER

@<TRIPOS>ATOM
      1 C           0.7569   -0.0913   -0.0363 C.3     1  UNL1       -0.0391
      2 C           0.4837    1.1127   -0.8978 C.ar    1  UNL1       -0.0425
      3 C          -0.0750    0.8705   -2.1678 C.ar    1  UNL1       -0.0543
      4 C          -0.3857    1.9019   -3.0803 C.ar    1  UNL1       -0.0377
      5 C          -0.0803    3.2284   -2.7129 C.ar    1  UNL1       -0.0374
      6 C           0.5016    3.4601   -1.4343 C.ar    1  UNL1       -0.0498
      7 C           0.8047    2.4236   -0.5289 C.ar    1  UNL1       -0.0147
      8 C           1.4892    2.7672    0.7534 C.2     1  UNL1       -0.0176
      9 C           0.7501    3.0741    1.8355 C.2     1  UNL1       -0.0904
     10 C           2.9608    2.8229    0.9134 C.ar    1  UNL1       -0.0178
     11 C           3.6732    3.9842    0.5930 C.ar    1  UNL1       -0.0533
     12 C           5.0735    3.9877    0.6306 C.ar    1  UNL1       -0.0471
     13 C           5.7894    2.8376    0.9997 C.ar    1  UNL1        0.0632
     14 C           5.0614    1.7121    1.4136 C.ar    1  UNL1       -0.0471
     15 C           3.6633    1.7043    1.3740 C.ar    1  UNL1       -0.0533
     16 C           7.3053    2.7963    0.9129 C.2     1  UNL1        0.3865
     17 O           7.8759    1.7155    1.2690 O.co2   1  UNL1       -0.2406
     18 O           7.8906    3.8359    0.4763 O.co2   1  UNL1       -0.2406
     19 C          -0.3827    4.4098   -3.6450 C.3     1  UNL1       -0.0095
     20 C          -0.6454    3.9472   -5.0995 C.3     1  UNL1       -0.0431
     21 C          -1.5856    2.7504   -5.1600 C.3     1  UNL1       -0.0431
     22 C          -0.9878    1.5232   -4.4419 C.3     1  UNL1       -0.0095
     23 C          -2.1411    0.4974   -4.2980 C.3     1  UNL1       -0.0558
     24 C           0.1121    0.8849   -5.3209 C.3     1  UNL1       -0.0558
     25 C           0.7920    5.4128   -3.7192 C.3     1  UNL1       -0.0558
     26 C          -1.6273    5.1547   -3.1128 C.3     1  UNL1       -0.0558
     27 H           0.1545   -0.9463   -0.3664 H       1  UNL1        0.0278
     28 H           0.4818    0.0927    1.0057 H       1  UNL1        0.0278
     29 H           1.8091   -0.3809   -0.1055 H       1  UNL1        0.0278
     30 H          -0.2545   -0.1594   -2.4530 H       1  UNL1        0.0623
     31 H           0.7392    4.4792   -1.1286 H       1  UNL1        0.0627
     32 H           1.2271    3.3413    2.7798 H       1  UNL1        0.0541
     33 H          -0.3301    3.0701    1.8157 H       1  UNL1        0.0541
     34 H           3.1541    4.8880    0.2886 H       1  UNL1        0.0624
     35 H           5.6249    4.8810    0.3406 H       1  UNL1        0.0626
     36 H           5.6015    0.8236    1.7381 H       1  UNL1        0.0626
     37 H           3.1357    0.8069    1.6801 H       1  UNL1        0.0624
     38 H           0.2990    3.6872   -5.5922 H       1  UNL1        0.0274
     39 H          -1.0726    4.7677   -5.6888 H       1  UNL1        0.0274
     40 H          -2.5502    3.0225   -4.7196 H       1  UNL1        0.0274
     41 H          -1.7943    2.5103   -6.2106 H       1  UNL1        0.0274
     42 H          -2.6231    0.3120   -5.2638 H       1  UNL1        0.0238
     43 H          -1.7946   -0.4746   -3.9314 H       1  UNL1        0.0238
     44 H          -2.9070    0.8586   -3.6026 H       1  UNL1        0.0238
     45 H           0.9732    1.5504   -5.4495 H       1  UNL1        0.0238
     46 H           0.4924   -0.0439   -4.8799 H       1  UNL1        0.0238
     47 H          -0.2720    0.6376   -6.3166 H       1  UNL1        0.0238
     48 H           0.5940    6.1931   -4.4635 H       1  UNL1        0.0238
     49 H           0.9672    5.9236   -2.7668 H       1  UNL1        0.0238
     50 H           1.7234    4.9096   -4.0034 H       1  UNL1        0.0238
     51 H          -2.4934    4.4906   -3.0193 H       1  UNL1        0.0238
     52 H          -1.4453    5.5831   -2.1208 H       1  UNL1        0.0238
     53 H          -1.9088    5.9781   -3.7788 H       1  UNL1        0.0238
@<TRIPOS>BOND
     1     1     2    1
     2     1    27    1
     3     1    28    1
     4     1    29    1
     5     2     7   ar
     6     2     3   ar
     7     3     4   ar
     8     3    30    1
     9     4    22    1
    10     4     5   ar
    11     5     6   ar
    12     5    19    1
    13     6     7   ar
    14     6    31    1
    15     7     8    1
    16     8     9    2
    17     8    10    1
    18     9    32    1
    19     9    33    1
    20    10    15   ar
    21    10    11   ar
    22    11    12   ar
    23    11    34    1
    24    12    13   ar
    25    12    35    1
    26    13    14   ar
    27    13    16    1
    28    14    15   ar
    29    14    36    1
    30    15    37    1
    31    16    17   ar
    32    16    18   ar
    33    19    20    1
    34    19    25    1
    35    19    26    1
    36    20    21    1
    37    20    38    1
    38    20    39    1
    39    21    22    1
    40    21    40    1
    41    21    41    1
    42    22    23    1
    43    22    24    1
    44    23    42    1
    45    23    43    1
    46    23    44    1
    47    24    45    1
    48    24    46    1
    49    24    47    1
    50    25    48    1
    51    25    49    1
    52    25    50    1
    53    26    51    1
    54    26    52    1
    55    26    53    1
