@<TRIPOS>MOLECULE
ZINC01530570
 55 55 0 0 0
SMALL
GASTEIGER

@<TRIPOS>ATOM
      1 C           4.4411   -0.2822   -5.0708 C.3     1  UNL1       -0.0219
      2 C           4.3161    0.9297   -5.9792 C.3     1  UNL1       -0.0283
      3 C           4.8429    0.6210   -7.3773 C.3     1  UNL1       -0.0219
      4 N           2.8748    1.3433   -6.0850 N.4     1  UNL1        0.2307
      5 C           2.2445    1.9405   -4.8388 C.3     1  UNL1       -0.0035
      6 C           0.8289    2.4063   -5.2071 C.3     1  UNL1        0.1285
      7 H           0.9041    3.1023   -6.0513 H       1  UNL1        0.0681
      8 C           0.1064    3.1483   -4.0719 C.3     1  UNL1        0.1204
      9 O          -0.2099    2.2871   -2.9750 O.3     1  UNL1       -0.4892
     10 C          -0.7815    2.9178   -1.8871 C.ar    1  UNL1        0.1206
     11 C          -1.0246    4.2914   -1.7780 C.ar    1  UNL1       -0.0196
     12 C          -1.4863    4.8469   -0.5762 C.ar    1  UNL1       -0.0529
     13 C          -1.7132    4.0406    0.5437 C.ar    1  UNL1       -0.0217
     14 C          -1.5779    2.6540    0.3997 C.ar    1  UNL1       -0.0529
     15 C          -1.1072    2.1000   -0.8022 C.ar    1  UNL1       -0.0196
     16 C          -1.9778    4.6643    1.8970 C.3     1  UNL1        0.0728
     17 O          -3.2905    5.1622    2.1063 O.3     1  UNL1       -0.3729
     18 C          -4.3298    4.1953    2.2413 C.3     1  UNL1        0.0714
     19 C          -4.1902    3.2153    3.4132 C.3     1  UNL1        0.0713
     20 O          -5.2301    2.2352    3.4164 O.3     1  UNL1       -0.3748
     21 C          -6.3920    2.5521    4.1909 C.3     1  UNL1        0.0532
     22 C          -7.3169    3.5167    3.4562 C.3     1  UNL1       -0.0390
     23 C          -7.1259    1.2351    4.4328 C.3     1  UNL1       -0.0390
     24 O           0.1144    1.2622   -5.6878 O.3     1  UNL1       -0.3831
     25 H           3.8622   -1.1313   -5.4524 H       1  UNL1        0.0284
     26 H           4.0960   -0.0648   -4.0554 H       1  UNL1        0.0284
     27 H           5.4873   -0.5958   -4.9952 H       1  UNL1        0.0284
     28 H           4.8605    1.7861   -5.5662 H       1  UNL1        0.0845
     29 H           4.3302   -0.2384   -7.8230 H       1  UNL1        0.0284
     30 H           4.7212    1.4760   -8.0510 H       1  UNL1        0.0284
     31 H           5.9122    0.3849   -7.3359 H       1  UNL1        0.0284
     32 H           2.7814    2.0182   -6.8563 H       1  UNL1        0.2017
     33 H           2.2147    1.1388   -4.0965 H       1  UNL1        0.0841
     34 H           2.8825    2.7641   -4.5090 H       1  UNL1        0.0841
     35 H           0.7581    3.9649   -3.7398 H       1  UNL1        0.0725
     36 H          -0.8319    3.5482   -4.4740 H       1  UNL1        0.0725
     37 H          -0.8416    4.9811   -2.5945 H       1  UNL1        0.0654
     38 H          -1.6240    5.9254   -0.5065 H       1  UNL1        0.0622
     39 H          -1.7975    1.9951    1.2381 H       1  UNL1        0.0622
     40 H          -0.9741    1.0228   -0.8666 H       1  UNL1        0.0654
     41 H          -1.6748    3.9974    2.7103 H       1  UNL1        0.0610
     42 H          -1.3095    5.5309    1.9872 H       1  UNL1        0.0610
     43 H          -5.2398    4.7813    2.3859 H       1  UNL1        0.0583
     44 H          -4.4671    3.6583    1.2975 H       1  UNL1        0.0583
     45 H          -3.2611    2.6482    3.2929 H       1  UNL1        0.0583
     46 H          -4.1049    3.7271    4.3797 H       1  UNL1        0.0583
     47 H          -6.0980    2.9658    5.1635 H       1  UNL1        0.0590
     48 H          -7.3035    3.3327    2.3767 H       1  UNL1        0.0254
     49 H          -8.3503    3.4440    3.8123 H       1  UNL1        0.0254
     50 H          -6.9985    4.5499    3.6214 H       1  UNL1        0.0254
     51 H          -7.4098    0.7652    3.4848 H       1  UNL1        0.0254
     52 H          -8.0323    1.3896    5.0281 H       1  UNL1        0.0254
     53 H          -6.4758    0.5258    4.9567 H       1  UNL1        0.0254
     54 H          -0.6504    1.1117   -5.0942 H       1  UNL1        0.2102
     55 H           2.2725    0.5592   -6.3763 H       1  UNL1        0.2017
@<TRIPOS>UNITY_ATOM_ATTR
4 1
charge 1
@<TRIPOS>BOND
     1     1     2    1
     2     1    25    1
     3     1    26    1
     4     1    27    1
     5     2     3    1
     6     2     4    1
     7     2    28    1
     8     3    29    1
     9     3    30    1
    10     3    31    1
    11     4     5    1
    12     4    32    1
    13     4    55    1
    14     5    33    1
    15     5    34    1
    16     6     8    1
    17     6    24    1
    18     8     9    1
    19     8    35    1
    20     8    36    1
    21     9    10    1
    22    10    15   ar
    23    10    11   ar
    24    11    12   ar
    25    11    37    1
    26    12    13   ar
    27    12    38    1
    28    13    14   ar
    29    13    16    1
    30    14    15   ar
    31    14    39    1
    32    15    40    1
    33    16    17    1
    34    16    41    1
    35    16    42    1
    36    17    18    1
    37    18    19    1
    38    18    43    1
    39    18    44    1
    40    19    20    1
    41    19    45    1
    42    19    46    1
    43    20    21    1
    44    21    22    1
    45    21    23    1
    46    21    47    1
    47    22    48    1
    48    22    49    1
    49    22    50    1
    50    23    51    1
    51    23    52    1
    52    23    53    1
    53    24    54    1
    54     6     7    1
    55     6     5    1
