@<TRIPOS>MOLECULE
ZINC01530760
 53 54 0 0 0
SMALL
GASTEIGER

@<TRIPOS>ATOM
      1 C          -1.9075    1.4905    7.9466 C.3     1  UNL1       -0.0605
      2 C          -2.5840    1.6754    6.5963 C.3     1  UNL1       -0.0154
      3 C          -1.8349    1.0416    5.4274 C.3     1  UNL1       -0.0338
      4 N          -1.7387   -0.4488    5.5177 N.4     1  UNL1        0.2289
      5 C          -3.0011   -1.2479    5.5371 C.3     1  UNL1       -0.0038
      6 C          -3.9256   -1.0932    4.3075 C.3     1  UNL1        0.1285
      7 H          -4.7645   -1.7766    4.4961 H       1  UNL1        0.0681
      8 C          -3.3407   -1.4725    2.9251 C.3     1  UNL1        0.1204
      9 O          -2.4315   -0.4867    2.4091 O.3     1  UNL1       -0.4885
     10 C          -2.6071    0.0866    1.1640 C.ar    1  UNL1        0.1311
     11 C          -3.7730   -0.0482    0.3888 C.ar    1  UNL1       -0.0192
     12 C          -3.9076    0.5940   -0.8528 C.ar    1  UNL1       -0.0583
     13 C          -2.8756    1.3665   -1.3642 C.ar    1  UNL1       -0.0609
     14 C          -1.7048    1.5059   -0.6291 C.ar    1  UNL1       -0.0477
     15 C          -1.5584    0.8898    0.6323 C.ar    1  UNL1        0.0590
     16 C          -0.2865    1.1658    1.3813 C.2     1  UNL1        0.1670
     17 O          -0.2937    1.1893    2.6137 O.2     1  UNL1       -0.2919
     18 C           1.0126    1.3972    0.5957 C.3     1  UNL1        0.0146
     19 C           1.4088    2.8769    0.4453 C.3     1  UNL1       -0.0207
     20 C           2.6846    3.1550   -0.3421 C.ar    1  UNL1       -0.0469
     21 C           3.7741    2.2710   -0.3515 C.ar    1  UNL1       -0.0586
     22 C           4.9524    2.5778   -1.0460 C.ar    1  UNL1       -0.0615
     23 C           5.0688    3.7815   -1.7353 C.ar    1  UNL1       -0.0617
     24 C           4.0086    4.6821   -1.7278 C.ar    1  UNL1       -0.0615
     25 C           2.8308    4.3790   -1.0382 C.ar    1  UNL1       -0.0586
     26 O          -4.4844    0.2223    4.2974 O.3     1  UNL1       -0.3831
     27 H          -1.8905    0.4414    8.2538 H       1  UNL1        0.0232
     28 H          -2.4494    2.0519    8.7150 H       1  UNL1        0.0232
     29 H          -0.8782    1.8643    7.9266 H       1  UNL1        0.0232
     30 H          -3.6138    1.3076    6.6510 H       1  UNL1        0.0314
     31 H          -2.6584    2.7516    6.3995 H       1  UNL1        0.0314
     32 H          -2.2971    1.2878    4.4709 H       1  UNL1        0.0814
     33 H          -0.7998    1.3990    5.4042 H       1  UNL1        0.0814
     34 H          -1.1697   -0.7318    4.7075 H       1  UNL1        0.2014
     35 H          -2.6964   -2.2929    5.6598 H       1  UNL1        0.0840
     36 H          -3.5347   -0.9566    6.4492 H       1  UNL1        0.0840
     37 H          -2.7935   -2.4186    3.0140 H       1  UNL1        0.0725
     38 H          -4.1819   -1.6759    2.2612 H       1  UNL1        0.0725
     39 H          -4.6319   -0.6311    0.6991 H       1  UNL1        0.0654
     40 H          -4.8280    0.4943   -1.4266 H       1  UNL1        0.0619
     41 H          -2.9831    1.8649   -2.3261 H       1  UNL1        0.0618
     42 H          -0.9223    2.1250   -1.0587 H       1  UNL1        0.0626
     43 H           1.7894    0.8505    1.1441 H       1  UNL1        0.0348
     44 H           0.9518    0.9103   -0.3839 H       1  UNL1        0.0348
     45 H           0.5862    3.4195   -0.0377 H       1  UNL1        0.0317
     46 H           1.5255    3.3258    1.4385 H       1  UNL1        0.0317
     47 H           3.7394    1.3291    0.1874 H       1  UNL1        0.0620
     48 H           5.7825    1.8739   -1.0428 H       1  UNL1        0.0618
     49 H           5.9869    4.0176   -2.2709 H       1  UNL1        0.0618
     50 H           4.1064    5.6325   -2.2498 H       1  UNL1        0.0618
     51 H           2.0315    5.1144   -1.0285 H       1  UNL1        0.0620
     52 H          -5.1070    0.2882    3.5495 H       1  UNL1        0.2102
     53 H          -1.1777   -0.6837    6.3474 H       1  UNL1        0.2014
@<TRIPOS>UNITY_ATOM_ATTR
4 1
charge 1
@<TRIPOS>BOND
     1     1     2    1
     2     1    27    1
     3     1    28    1
     4     1    29    1
     5     2     3    1
     6     2    30    1
     7     2    31    1
     8     3     4    1
     9     3    32    1
    10     3    33    1
    11     4     5    1
    12     4    34    1
    13     4    53    1
    14     5    35    1
    15     5    36    1
    16     6     8    1
    17     6    26    1
    18     8     9    1
    19     8    37    1
    20     8    38    1
    21     9    10    1
    22    10    15   ar
    23    10    11   ar
    24    11    12   ar
    25    11    39    1
    26    12    13   ar
    27    12    40    1
    28    13    14   ar
    29    13    41    1
    30    14    15   ar
    31    14    42    1
    32    15    16    1
    33    16    17    2
    34    16    18    1
    35    18    19    1
    36    18    43    1
    37    18    44    1
    38    19    20    1
    39    19    45    1
    40    19    46    1
    41    20    25   ar
    42    20    21   ar
    43    21    22   ar
    44    21    47    1
    45    22    23   ar
    46    22    48    1
    47    23    24   ar
    48    23    49    1
    49    24    25   ar
    50    24    50    1
    51    25    51    1
    52    26    52    1
    53     6     7    1
    54     6     5    1
