@<TRIPOS>MOLECULE
ZINC03830496
 35 36 0 0 0
SMALL
GASTEIGER

@<TRIPOS>ATOM
      1 C           2.8218   -1.3354    3.7130 C.3     1  UNL1        0.0332
      2 C           1.8247   -0.4749    2.9875 C.2     1  UNL1        0.3043
      3 O           2.0190   -0.0020    1.8786 O.2     1  UNL1       -0.2512
      4 O           0.7522   -0.2457    3.7895 O.3     1  UNL1       -0.4603
      5 C          -0.2717    0.6686    3.3065 C.3     1  UNL1        0.1166
      6 C           0.0789    2.1157    3.6585 C.2     1  UNL1        0.0057
      7 CA         -0.4882    3.1888    3.0324 C.2     1  UNL1        0.1295
      8 N           0.0272    4.4377    3.2560 N.am    1  UNL1       -0.2488
      9 C           1.3415    4.6391    3.8152 C.3     1  UNL1        0.1042
     10 H           2.1613    4.2592    3.1945 H       1  UNL1        0.0644
     11 CA          1.1073    6.1712    3.6750 C.3     1  UNL1        0.1283
     12 HA          1.7160    6.5955    2.8643 H       1  UNL1        0.0622
     13 C          -0.3289    5.7432    3.1796 C.2     1  UNL1        0.2440
     14 O          -1.3536    6.3302    2.9228 O.2     1  UNL1       -0.2731
     15 N           1.2637    6.9965    4.9462 N.am    1  UNL1       -0.3009
     16 C           1.6112    8.3395    4.9213 C.2     1  UNL1        0.2275
     17 O           1.7091    8.9700    3.8693 O.2     1  UNL1       -0.2747
     18 C           1.9361    9.0081    6.2665 C.3     1  UNL1        0.1110
     19 C           3.4484    9.0409    6.4159 C.1     1  UNL1        0.0719
     20 N           4.7029    9.0681    6.5398 N.1     1  UNL1       -0.1961
     21 S           1.2774    3.9258    5.4891 S.3     1  UNL1       -0.1310
     22 C           1.0564    2.2437    4.8095 C.3     1  UNL1        0.0220
     23 C          -1.7422    2.9603    2.0924 C.2     1  UNL1        0.4007
     24 O          -2.5746    2.1021    2.5095 O.co2   1  UNL1       -0.2392
     25 H           3.5767   -1.6961    3.0065 H       1  UNL1        0.0342
     26 H           2.3267   -2.2052    4.1507 H       1  UNL1        0.0342
     27 H           3.3174   -0.7488    4.4903 H       1  UNL1        0.0342
     28 H          -0.4203    0.5092    2.2348 H       1  UNL1        0.0746
     29 H          -1.1845    0.3696    3.8350 H       1  UNL1        0.0746
     30 H           1.2765    6.4786    5.8205 H       1  UNL1        0.1496
     31 H           1.5197   10.0196    6.2720 H       1  UNL1        0.0513
     32 H           1.4876    8.4397    7.0869 H       1  UNL1        0.0513
     33 H           2.0482    1.9062    4.4871 H       1  UNL1        0.0424
     34 H           0.7285    1.6097    5.6372 H       1  UNL1        0.0424
     35 OXT        -1.7292    3.6305    1.0193 O.co2   1  UNL1       -0.2392
@<TRIPOS>BOND
     1     1     2    1
     2     1    25    1
     3     1    26    1
     4     1    27    1
     5     2     3    2
     6     2     4    1
     7     4     5    1
     8     5     6    1
     9     5    28    1
    10     5    29    1
    11     6    22    1
    12     6     7    2
    13     7     8    1
    14     7    23    1
    15     8    13   am
    16     8     9    1
    17     9    10    1
    18     9    11    1
    19     9    21    1
    20    11    13    1
    21    13    14    2
    22    15    16   am
    23    15    30    1
    24    16    17    2
    25    16    18    1
    26    18    19    1
    27    18    31    1
    28    18    32    1
    29    19    20    3
    30    21    22    1
    31    22    33    1
    32    22    34    1
    33    23    24   ar
    34    23    35   ar
    35    11    15    1
    36    11    12    1
