@<TRIPOS>MOLECULE
ZINC01530772
 22 22 0 0 0
SMALL
GASTEIGER

@<TRIPOS>ATOM
      1 C           1.4491   -0.5827   -4.2392 C.3     1  UNL1       -0.0612
      2 C           0.6400    0.6409   -3.8344 C.3     1  UNL1       -0.0071
      3 C           0.8856    1.1081   -2.3887 C.3     1  UNL1        0.1876
      4 C           0.2606    2.4736   -2.2217 C.2     1  UNL1        0.2678
      5 O          -0.9099    2.7111   -1.9671 O.2     1  UNL1       -0.2707
      6 N           1.2424    3.3728   -2.4849 N.am    1  UNL1       -0.2073
      7 C           2.4438    2.7675   -2.4178 C.2     1  UNL1        0.4101
      8 O           3.5418    3.3017   -2.4789 O.2     1  UNL1       -0.2258
      9 O           2.2773    1.4250   -2.2189 O.3     1  UNL1       -0.4342
     10 C           1.0324    4.7846   -2.6643 C.3     1  UNL1        0.0142
     11 C           0.4434    0.1027   -1.3365 C.3     1  UNL1       -0.0160
     12 H           1.2655   -0.8118   -5.2921 H       1  UNL1        0.0231
     13 H           1.1660   -1.4566   -3.6470 H       1  UNL1        0.0231
     14 H           2.5210   -0.4062   -4.1145 H       1  UNL1        0.0231
     15 H           0.8966    1.4483   -4.5336 H       1  UNL1        0.0306
     16 H          -0.4294    0.4398   -3.9824 H       1  UNL1        0.0306
     17 H           0.3846    4.9224   -3.5370 H       1  UNL1        0.0434
     18 H           0.5211    5.1921   -1.7871 H       1  UNL1        0.0434
     19 H           1.9786    5.3053   -2.8291 H       1  UNL1        0.0434
     20 H          -0.5003   -0.3799   -1.6129 H       1  UNL1        0.0273
     21 H           1.2011   -0.6754   -1.1905 H       1  UNL1        0.0273
     22 H           0.2916    0.5812   -0.3624 H       1  UNL1        0.0273
@<TRIPOS>BOND
     1     1     2    1
     2     1    12    1
     3     1    13    1
     4     1    14    1
     5     2    15    1
     6     2    16    1
     7     3     9    1
     8     3     4    1
     9     4     5    2
    10     4     6   am
    11     6     7   am
    12     6    10    1
    13     7     8    2
    14     7     9    1
    15    10    17    1
    16    10    18    1
    17    10    19    1
    18    11    20    1
    19    11    21    1
    20    11    22    1
    21     3    11    1
    22     3     2    1
