@<TRIPOS>MOLECULE
ZINC00032350
 28 30 0 0 0
SMALL
GASTEIGER

@<TRIPOS>ATOM
      1 C          -1.0538   -0.9615    1.0134 C.3     1  UNL1       -0.0455
      2 C           0.4651   -0.8505    0.9824 C.3     1  UNL1        0.0394
      3 N           1.0191   -0.5814    2.3137 N.ar    1  UNL1       -0.2629
      4 C           0.9690    0.6944    2.8944 C.ar    1  UNL1        0.0748
      5 C           0.4874    1.8292    2.2160 C.ar    1  UNL1        0.0096
      6 C           0.4417    3.0416    2.8780 C.ar    1  UNL1        0.1683
      7 C           0.8851    3.1851    4.1686 C.ar    1  UNL1        0.1670
      8 C           1.4120    2.1260    4.8634 C.ar    1  UNL1       -0.0032
      9 C           1.4382    0.8822    4.2114 C.ar    1  UNL1        0.0528
     10 C           2.0135   -0.2814    4.8877 C.ar    1  UNL1        0.2222
     11 O           2.7446   -0.1383    5.8576 O.2     1  UNL1       -0.2846
     12 C           1.7145   -1.6255    4.2800 C.ar    1  UNL1        0.2188
     13 N           1.2451   -1.7073    3.0591 N.ar    1  UNL1       -0.1600
     14 C           1.8689   -2.9384    5.0296 C.2     1  UNL1        0.4100
     15 O           1.5040   -2.9281    6.2476 O.co2   1  UNL1       -0.2387
     16 O           2.3204   -3.9335    4.3757 O.co2   1  UNL1       -0.2387
     17 O           0.7328    4.4548    4.6303 O.3     1  UNL1       -0.4526
     18 C           0.0256    5.0547    3.5270 C.3     1  UNL1        0.2332
     19 O          -0.0409    4.2057    2.3629 O.3     1  UNL1       -0.4525
     20 H          -1.3657   -1.8877    1.5068 H       1  UNL1        0.0247
     21 H          -1.4506   -0.9722   -0.0067 H       1  UNL1        0.0247
     22 H          -1.5220   -0.1295    1.5483 H       1  UNL1        0.0247
     23 H           0.8769   -1.7927    0.5978 H       1  UNL1        0.0506
     24 H           0.7837   -0.0846    0.2667 H       1  UNL1        0.0506
     25 H           0.1290    1.7847    1.1951 H       1  UNL1        0.0677
     26 H           1.7816    2.2366    5.8772 H       1  UNL1        0.0663
     27 H          -0.9987    5.2783    3.8503 H       1  UNL1        0.1166
     28 H           0.5197    5.9936    3.2545 H       1  UNL1        0.1166
@<TRIPOS>BOND
     1     1     2    1
     2     1    20    1
     3     1    21    1
     4     1    22    1
     5     2     3    1
     6     2    23    1
     7     2    24    1
     8     3    13   ar
     9     3     4   ar
    10     4     9   ar
    11     4     5   ar
    12     5     6   ar
    13     5    25    1
    14     6    19    1
    15     6     7   ar
    16     7     8   ar
    17     7    17    1
    18     8     9   ar
    19     8    26    1
    20     9    10   ar
    21    10    11    2
    22    10    12   ar
    23    12    13   ar
    24    12    14    1
    25    14    15   ar
    26    14    16   ar
    27    17    18    1
    28    18    19    1
    29    18    27    1
    30    18    28    1
