@<TRIPOS>MOLECULE
ZINC01995484
 48 49 0 0 0
SMALL
GASTEIGER

@<TRIPOS>ATOM
      1 C           2.3057   -1.6712    1.4738 C.3     1  UNL1       -0.0570
      2 C           1.0201   -2.3513    0.9915 C.3     1  UNL1        0.0068
      3 C           0.0002   -2.3986    2.1345 C.3     1  UNL1       -0.0570
      4 C           0.4658   -1.7088   -0.2967 C.3     1  UNL1        0.0766
      5 H           1.2289   -1.6708   -1.0814 H       1  UNL1        0.0971
      6 C          -0.7419   -2.4879   -0.8333 C.2     1  UNL1        0.3562
      7 O          -1.8878   -2.0784   -0.7042 O.2     1  UNL1       -0.2444
      8 O          -0.3422   -3.6206   -1.4522 O.3     1  UNL1       -0.4580
      9 C          -1.3699   -4.5289   -1.9126 C.3     1  UNL1        0.1210
     10 C          -0.8502   -5.2472   -3.1690 C.3     1  UNL1        0.1178
     11 H          -0.6311   -4.4835   -3.9264 H       1  UNL1        0.0654
     12 C          -1.9031   -6.2319   -3.7030 C.3     1  UNL1        0.0737
     13 O          -2.1032   -7.2935   -2.7779 O.3     1  UNL1       -0.3923
     14 O           0.3846   -5.9314   -2.8370 O.3     1  UNL1       -0.3504
     15 C           1.0802   -6.3249   -4.0220 C.3     1  UNL1        0.1273
     16 N           2.3583   -6.9415   -3.7316 N.ar    1  UNL1       -0.2907
     17 C           3.0522   -7.0525   -2.5627 C.ar    1  UNL1        0.1002
     18 N           4.2201   -7.6463   -2.7412 N.ar    1  UNL1       -0.2286
     19 C           4.2340   -7.9883   -4.0725 C.ar    1  UNL1        0.1720
     20 C           3.0914   -7.5644   -4.7008 C.ar    1  UNL1        0.1709
     21 N           2.6951   -7.7580   -5.9793 N.ar    1  UNL1       -0.1963
     22 C           3.5306   -8.4888   -6.6697 C.ar    1  UNL1        0.1950
     23 N           4.7280   -8.9590   -6.1653 N.ar    1  UNL1       -0.2934
     24 H           5.3218   -9.5372   -6.7369 H       1  UNL1        0.1716
     25 C           5.1845   -8.7410   -4.8691 C.ar    1  UNL1        0.2803
     26 O           6.2697   -9.1633   -4.4832 O.2     1  UNL1       -0.2654
     27 N           3.2258   -8.8162   -7.9462 N.pl3   1  UNL1       -0.3289
     28 N           0.0808   -0.2672   -0.0595 N.4     1  UNL1        0.2289
     29 H           2.1220   -0.6554    1.8377 H       1  UNL1        0.0234
     30 H           3.0478   -1.6209    0.6705 H       1  UNL1        0.0234
     31 H           2.7495   -2.2372    2.3004 H       1  UNL1        0.0234
     32 H           1.2820   -3.3916    0.7545 H       1  UNL1        0.0356
     33 H          -0.3393   -1.3983    2.4206 H       1  UNL1        0.0234
     34 H          -0.8771   -2.9913    1.8559 H       1  UNL1        0.0234
     35 H           0.4385   -2.8673    3.0225 H       1  UNL1        0.0234
     36 H          -1.5514   -5.2397   -1.1003 H       1  UNL1        0.0724
     37 H          -2.2979   -3.9937   -2.1459 H       1  UNL1        0.0724
     38 H          -2.8622   -5.7319   -3.8670 H       1  UNL1        0.0584
     39 H          -1.5989   -6.6719   -4.6572 H       1  UNL1        0.0584
     40 H          -1.2371   -7.7157   -2.6216 H       1  UNL1        0.2095
     41 H           0.4958   -7.0662   -4.5713 H       1  UNL1        0.0801
     42 H           1.2889   -5.4479   -4.6464 H       1  UNL1        0.0801
     43 H           2.6700   -6.7006   -1.6125 H       1  UNL1        0.1030
     44 H           2.4500   -8.2920   -8.3345 H       1  UNL1        0.1451
     45 H           3.9730   -9.0004   -8.6000 H       1  UNL1        0.1451
     46 H          -0.7909   -0.2249    0.4898 H       1  UNL1        0.2003
     47 H           0.8058    0.2813    0.4167 H       1  UNL1        0.2003
     48 H          -0.1350    0.1981   -0.9520 H       1  UNL1        0.2003
@<TRIPOS>UNITY_ATOM_ATTR
28 1
charge 1
@<TRIPOS>BOND
     1     1     2    1
     2     1    29    1
     3     1    30    1
     4     1    31    1
     5     2     3    1
     6     2     4    1
     7     2    32    1
     8     3    33    1
     9     3    34    1
    10     3    35    1
    11     4     5    1
    12     4     6    1
    13     4    28    1
    14     6     7    2
    15     6     8    1
    16     8     9    1
    17     9    36    1
    18     9    37    1
    19    10    12    1
    20    10    14    1
    21    12    13    1
    22    12    38    1
    23    12    39    1
    24    13    40    1
    25    14    15    1
    26    15    16    1
    27    15    41    1
    28    15    42    1
    29    16    20   ar
    30    16    17   ar
    31    17    18   ar
    32    17    43    1
    33    18    19   ar
    34    19    25   ar
    35    19    20   ar
    36    20    21   ar
    37    21    22   ar
    38    22    23   ar
    39    22    27    1
    40    23    24    1
    41    23    25   ar
    42    25    26    2
    43    27    44    1
    44    27    45    1
    45    28    46    1
    46    28    47    1
    47    28    48    1
    48    10    11    1
    49    10     9    1
