@<TRIPOS>MOLECULE
ZINC00000128
 46 47 0 0 0
SMALL
GASTEIGER

@<TRIPOS>ATOM
      1 C           4.9551   -1.1857   -0.1148 C.3     1  UNL1       -0.0193
      2 C           4.3323   -0.1039    0.7687 C.3     1  UNL1       -0.0203
      3 C           5.2127    0.1888    1.9849 C.3     1  UNL1       -0.0193
      4 C           4.1627    1.1805   -0.0646 C.3     1  UNL1       -0.0193
      5 N           2.9440   -0.5082    1.2268 N.4     1  UNL1        0.2327
      6 C           2.7075   -1.6147    2.2635 C.3     1  UNL1       -0.0033
      7 C           1.1832   -1.6376    2.5500 C.3     1  UNL1        0.1285
      8 H           0.9080   -0.6637    2.9727 H       1  UNL1        0.0681
      9 C           0.6754   -2.7375    3.5166 C.3     1  UNL1        0.1204
     10 O           1.4788   -2.8132    4.6934 O.3     1  UNL1       -0.4889
     11 C           0.9062   -3.4005    5.8033 C.ar    1  UNL1        0.1256
     12 C           1.0634   -2.6618    6.9888 C.ar    1  UNL1       -0.0195
     13 C           0.6113   -3.1499    8.2164 C.ar    1  UNL1       -0.0565
     14 C          -0.0211   -4.3864    8.2857 C.ar    1  UNL1       -0.0400
     15 C          -0.1700   -5.1364    7.1200 C.ar    1  UNL1        0.0401
     16 C           0.3159   -4.6774    5.8722 C.ar    1  UNL1        0.0159
     17 C           0.1224   -5.5847    4.6878 C.3     1  UNL1       -0.0142
     18 C           0.0283   -7.0571    5.0588 C.3     1  UNL1        0.0284
     19 C          -0.8912   -7.2975    6.2214 C.2     1  UNL1        0.2175
     20 O          -1.5643   -8.3154    6.3307 O.2     1  UNL1       -0.2755
     21 N          -0.8325   -6.3684    7.2237 N.am    1  UNL1       -0.2851
     22 O           0.5412   -1.7277    1.2619 O.3     1  UNL1       -0.3831
     23 H           5.9908   -0.9147   -0.3681 H       1  UNL1        0.0287
     24 H           4.4182   -1.2924   -1.0643 H       1  UNL1        0.0287
     25 H           4.9866   -2.1602    0.3768 H       1  UNL1        0.0287
     26 H           6.2076    0.5288    1.6698 H       1  UNL1        0.0287
     27 H           4.7800    0.9761    2.6110 H       1  UNL1        0.0287
     28 H           5.3622   -0.7015    2.6018 H       1  UNL1        0.0287
     29 H           3.5048    1.0161   -0.9267 H       1  UNL1        0.0287
     30 H           3.7333    1.9951    0.5297 H       1  UNL1        0.0287
     31 H           5.1276    1.5308   -0.4520 H       1  UNL1        0.0287
     32 H           2.4762    0.3345    1.5818 H       1  UNL1        0.2020
     33 H           3.0454   -2.5438    1.7958 H       1  UNL1        0.0841
     34 H           3.2873   -1.3793    3.1575 H       1  UNL1        0.0841
     35 H          -0.3687   -2.5103    3.7723 H       1  UNL1        0.0725
     36 H           0.6856   -3.6878    2.9787 H       1  UNL1        0.0725
     37 H           1.5519   -1.6893    6.9640 H       1  UNL1        0.0654
     38 H           0.7631   -2.5733    9.1292 H       1  UNL1        0.0619
     39 H          -0.3608   -4.7610    9.2432 H       1  UNL1        0.0636
     40 H           0.9716   -5.4883    4.0026 H       1  UNL1        0.0319
     41 H          -0.7927   -5.2779    4.1670 H       1  UNL1        0.0319
     42 H           1.0151   -7.4456    5.3421 H       1  UNL1        0.0362
     43 H          -0.3285   -7.6318    4.1988 H       1  UNL1        0.0362
     44 H          -1.3235   -6.6149    8.0838 H       1  UNL1        0.1548
     45 H          -0.3510   -2.1128    1.3777 H       1  UNL1        0.2102
     46 H           2.3637   -0.7785    0.4123 H       1  UNL1        0.2020
@<TRIPOS>UNITY_ATOM_ATTR
5 1
charge 1
@<TRIPOS>BOND
     1     1     2    1
     2     1    23    1
     3     1    24    1
     4     1    25    1
     5     2     3    1
     6     2     4    1
     7     2     5    1
     8     3    26    1
     9     3    27    1
    10     3    28    1
    11     4    29    1
    12     4    30    1
    13     4    31    1
    14     5     6    1
    15     5    32    1
    16     5    46    1
    17     6    33    1
    18     6    34    1
    19     7     9    1
    20     7    22    1
    21     9    10    1
    22     9    35    1
    23     9    36    1
    24    10    11    1
    25    11    16   ar
    26    11    12   ar
    27    12    13   ar
    28    12    37    1
    29    13    14   ar
    30    13    38    1
    31    14    15   ar
    32    14    39    1
    33    15    21    1
    34    15    16   ar
    35    16    17    1
    36    17    18    1
    37    17    40    1
    38    17    41    1
    39    18    19    1
    40    18    42    1
    41    18    43    1
    42    19    20    2
    43    19    21   am
    44    21    44    1
    45    22    45    1
    46     7     8    1
    47     7     6    1
