@<TRIPOS>MOLECULE
ZINC00391812
 27 28 0 0 0
SMALL
GASTEIGER

@<TRIPOS>ATOM
      1 C          -0.8821   -0.1716   -1.9232 C.3     1  UNL1       -0.0425
      2 N          -0.7050   -0.0705   -0.4262 N.4     1  UNL1        0.2385
      3 C           0.0557   -1.2207    0.1796 C.3     1  UNL1       -0.0314
      4 C           1.5093   -0.7985    0.1022 C.3     1  UNL1       -0.0071
      5 C           1.5130    0.7203   -0.0556 C.3     1  UNL1       -0.0005
      6 C           0.0499    1.1668    0.0657 C.3     1  UNL1        0.0064
      7 H          -0.1920    1.2375    1.1361 H       1  UNL1        0.0904
      8 C          -0.3793    2.4511   -0.5882 C.ar    1  UNL1        0.0182
      9 C           0.4430    3.2371   -1.4079 C.ar    1  UNL1       -0.0504
     10 C          -0.0793    4.3480   -2.0634 C.ar    1  UNL1       -0.0431
     11 C          -1.4132    4.6579   -1.8733 C.ar    1  UNL1        0.0276
     12 N          -2.2269    3.9508   -1.0643 N.ar    1  UNL1       -0.2628
     13 C          -1.6951    2.8877   -0.4309 C.ar    1  UNL1        0.0360
     14 H          -0.5852   -1.1678   -2.2588 H       1  UNL1        0.0778
     15 H          -1.9426   -0.0094   -2.1333 H       1  UNL1        0.0778
     16 H          -0.2716    0.5780   -2.4297 H       1  UNL1        0.0778
     17 H          -0.2792   -1.3011    1.2192 H       1  UNL1        0.0814
     18 H          -0.1781   -2.1500   -0.3479 H       1  UNL1        0.0814
     19 H           1.9957   -1.2637   -0.7647 H       1  UNL1        0.0319
     20 H           2.0611   -1.1203    0.9898 H       1  UNL1        0.0319
     21 H           1.9458    0.9598   -1.0324 H       1  UNL1        0.0325
     22 H           2.1405    1.2035    0.7009 H       1  UNL1        0.0325
     23 H           1.4938    3.0038   -1.5672 H       1  UNL1        0.0623
     24 H           0.5385    4.9564   -2.7168 H       1  UNL1        0.0633
     25 H          -1.8729    5.5034   -2.3795 H       1  UNL1        0.0829
     26 H          -2.4002    2.3705    0.2152 H       1  UNL1        0.0834
     27 H          -1.6476   -0.0619   -0.0150 H       1  UNL1        0.2037
@<TRIPOS>UNITY_ATOM_ATTR
2 1
charge 1
@<TRIPOS>BOND
     1     1    14    1
     2     1    15    1
     3     1    16    1
     4     2     6    1
     5     2     3    1
     6     3     4    1
     7     3    17    1
     8     3    18    1
     9     4     5    1
    10     4    19    1
    11     4    20    1
    12     5     6    1
    13     5    21    1
    14     5    22    1
    15     8    13   ar
    16     8     9   ar
    17     9    10   ar
    18     9    23    1
    19    10    11   ar
    20    10    24    1
    21    11    12   ar
    22    11    25    1
    23    12    13   ar
    24    13    26    1
    25     2    27    1
    26     2     1    1
    27     6     8    1
    28     6     7    1
