@<TRIPOS>MOLECULE
ZINC03831586
 49 51 0 0 0
SMALL
GASTEIGER

@<TRIPOS>ATOM
      1 C           0.5864    2.7382   -1.8369 C.3     1  UNL1       -0.0561
      2 C           0.3103    1.2506   -1.5661 C.3     1  UNL1        0.0124
      3 H           0.4112    0.7763   -2.5525 H       1  UNL1        0.0365
      4 C          -1.1579    0.9801   -1.1587 C.3     1  UNL1        0.0247
      5 N          -1.6071    1.3243    0.2145 N.pl3   1  UNL1       -0.2992
      6 C          -1.1793    2.5330    0.8086 C.ar    1  UNL1        0.0372
      7 C          -0.1830    2.4019    1.8016 C.ar    1  UNL1       -0.0401
      8 C           0.3321    3.4848    2.4981 C.ar    1  UNL1       -0.0600
      9 C          -0.1488    4.7502    2.2298 C.ar    1  UNL1       -0.0614
     10 C          -1.1976    4.9053    1.3310 C.ar    1  UNL1       -0.0568
     11 C          -1.7627    3.8020    0.6438 C.ar    1  UNL1       -0.0257
     12 C          -3.0570    4.1203   -0.0791 C.3     1  UNL1       -0.0219
     13 C          -3.8020    3.0243   -0.8241 C.3     1  UNL1       -0.0219
     14 C          -4.0432    1.7909    0.0080 C.ar    1  UNL1       -0.0257
     15 C          -2.9763    0.9563    0.3924 C.ar    1  UNL1        0.0372
     16 C          -3.2471   -0.2069    1.1299 C.ar    1  UNL1       -0.0401
     17 C          -4.5477   -0.5068    1.5336 C.ar    1  UNL1       -0.0600
     18 C          -5.5914    0.3533    1.2088 C.ar    1  UNL1       -0.0614
     19 C          -5.3471    1.4880    0.4375 C.ar    1  UNL1       -0.0568
     20 C           1.4182    0.6482   -0.6881 C.3     1  UNL1       -0.0283
     21 N           1.2826   -0.8449   -0.4669 N.4     1  UNL1        0.2311
     22 C           1.5544   -1.6658   -1.7001 C.3     1  UNL1       -0.0433
     23 C           2.1513   -1.3235    0.6753 C.3     1  UNL1       -0.0433
     24 H           0.9198    2.8710   -2.8731 H       1  UNL1        0.0235
     25 H           1.3744    3.1382   -1.1908 H       1  UNL1        0.0235
     26 H          -0.3046    3.3609   -1.7223 H       1  UNL1        0.0235
     27 H          -1.7988    1.4299   -1.9233 H       1  UNL1        0.0472
     28 H          -1.3121   -0.1029   -1.2764 H       1  UNL1        0.0472
     29 H           0.1519    1.3997    2.0768 H       1  UNL1        0.0636
     30 H           1.0818    3.3334    3.2701 H       1  UNL1        0.0618
     31 H           0.2317    5.6104    2.7789 H       1  UNL1        0.0618
     32 H          -1.6235    5.9021    1.2013 H       1  UNL1        0.0621
     33 H          -3.7464    4.5208    0.6786 H       1  UNL1        0.0317
     34 H          -2.8641    4.9370   -0.7870 H       1  UNL1        0.0317
     35 H          -3.2804    2.7640   -1.7475 H       1  UNL1        0.0317
     36 H          -4.7631    3.4325   -1.1660 H       1  UNL1        0.0317
     37 H          -2.4342   -0.8553    1.4394 H       1  UNL1        0.0636
     38 H          -4.7403   -1.3892    2.1390 H       1  UNL1        0.0618
     39 H          -6.5966    0.1495    1.5700 H       1  UNL1        0.0618
     40 H          -6.1747    2.1522    0.2018 H       1  UNL1        0.0621
     41 H           2.4048    0.8076   -1.1407 H       1  UNL1        0.0817
     42 H           1.4406    1.1141    0.2936 H       1  UNL1        0.0817
     43 H           2.5980   -1.5256   -1.9901 H       1  UNL1        0.0777
     44 H           1.3568   -2.7146   -1.4545 H       1  UNL1        0.0777
     45 H           0.8822   -1.3429   -2.4966 H       1  UNL1        0.0777
     46 H           2.0529   -0.6247    1.5089 H       1  UNL1        0.0777
     47 H           1.7871   -2.3099    0.9741 H       1  UNL1        0.0777
     48 H           3.1878   -1.3766    0.3316 H       1  UNL1        0.0777
     49 H           0.3146   -1.0201   -0.1628 H       1  UNL1        0.2028
@<TRIPOS>UNITY_ATOM_ATTR
21 1
charge 1
@<TRIPOS>BOND
     1     1    24    1
     2     1    25    1
     3     1    26    1
     4     2     4    1
     5     2    20    1
     6     4     5    1
     7     4    27    1
     8     4    28    1
     9     5    15    1
    10     5     6    1
    11     6    11   ar
    12     6     7   ar
    13     7     8   ar
    14     7    29    1
    15     8     9   ar
    16     8    30    1
    17     9    10   ar
    18     9    31    1
    19    10    11   ar
    20    10    32    1
    21    11    12    1
    22    12    13    1
    23    12    33    1
    24    12    34    1
    25    13    14    1
    26    13    35    1
    27    13    36    1
    28    14    19   ar
    29    14    15   ar
    30    15    16   ar
    31    16    17   ar
    32    16    37    1
    33    17    18   ar
    34    17    38    1
    35    18    19   ar
    36    18    39    1
    37    19    40    1
    38    20    21    1
    39    20    41    1
    40    20    42    1
    41    21    22    1
    42    21    23    1
    43    21    49    1
    44    22    43    1
    45    22    44    1
    46    22    45    1
    47    23    46    1
    48    23    47    1
    49    23    48    1
    50     2     3    1
    51     2     1    1
