@<TRIPOS>MOLECULE
ZINC01530572
 28 27 0 0 0
SMALL
GASTEIGER

@<TRIPOS>ATOM
      1 C           0.3393   -0.1453   -0.5854 C.3     1  UNL1        0.0817
      2 S           0.1969   -1.7991    0.0485 S.O2    1  UNL1        0.0793
      3 O          -1.2037   -2.1287    0.1898 O.2     1  UNL1       -0.1475
      4 O           1.1219   -2.6574   -0.6655 O.2     1  UNL1       -0.1475
      5 O           0.8038   -1.5010    1.5313 O.3     1  UNL1       -0.2387
      6 C           0.9028   -2.5973    2.4246 C.3     1  UNL1        0.0766
      7 C           1.4511   -2.1100    3.7614 C.3     1  UNL1       -0.0250
      8 C           0.6397   -0.9930    4.4221 C.3     1  UNL1       -0.0250
      9 C          -0.7959   -1.3683    4.7754 C.3     1  UNL1        0.0766
     10 O          -1.3809   -0.2477    5.4277 O.3     1  UNL1       -0.2387
     11 S          -2.8957   -0.4099    6.0009 S.O2    1  UNL1        0.0793
     12 O          -3.7823   -0.7091    4.8971 O.2     1  UNL1       -0.1475
     13 O          -2.8484   -1.2288    7.1931 O.2     1  UNL1       -0.1475
     14 C          -3.1320    1.2856    6.4795 C.3     1  UNL1        0.0817
     15 H          -0.2397   -0.0844   -1.5103 H       1  UNL1        0.0489
     16 H           1.3907    0.0659   -0.7825 H       1  UNL1        0.0489
     17 H          -0.0656    0.5507    0.1522 H       1  UNL1        0.0489
     18 H          -0.0767   -3.0702    2.5546 H       1  UNL1        0.0584
     19 H           1.5886   -3.3423    2.0039 H       1  UNL1        0.0584
     20 H           1.5437   -2.9590    4.4480 H       1  UNL1        0.0289
     21 H           2.4629   -1.7188    3.5949 H       1  UNL1        0.0289
     22 H           1.1562   -0.6841    5.3405 H       1  UNL1        0.0289
     23 H           0.6319   -0.1002    3.7848 H       1  UNL1        0.0289
     24 H          -1.3734   -1.5958    3.8741 H       1  UNL1        0.0584
     25 H          -0.8122   -2.2375    5.4427 H       1  UNL1        0.0584
     26 H          -2.2731    1.6111    7.0692 H       1  UNL1        0.0489
     27 H          -3.2364    1.8945    5.5794 H       1  UNL1        0.0489
     28 H          -4.0399    1.3476    7.0827 H       1  UNL1        0.0489
@<TRIPOS>BOND
     1     1     2    1
     2     1    15    1
     3     1    16    1
     4     1    17    1
     5     2     3    2
     6     2     4    2
     7     2     5    1
     8     5     6    1
     9     6     7    1
    10     6    18    1
    11     6    19    1
    12     7     8    1
    13     7    20    1
    14     7    21    1
    15     8     9    1
    16     8    22    1
    17     8    23    1
    18     9    10    1
    19     9    24    1
    20     9    25    1
    21    10    11    1
    22    11    12    2
    23    11    13    2
    24    11    14    1
    25    14    26    1
    26    14    27    1
    27    14    28    1
