@<TRIPOS>MOLECULE
ZINC03800706
 46 48 0 0 0
SMALL
GASTEIGER

@<TRIPOS>ATOM
      1 C           2.7316   -1.5066   -5.1191 C.3     1  UNL1       -0.0433
      2 N           2.8235   -1.0512   -3.6868 N.4     1  UNL1        0.2309
      3 C           3.6158   -2.0355   -2.8664 C.3     1  UNL1       -0.0433
      4 C           3.3460    0.3583   -3.5196 C.3     1  UNL1       -0.0323
      5 C           2.3927    1.4275   -4.0655 C.3     1  UNL1       -0.0093
      6 C           0.9028    1.3736   -3.6775 C.3     1  UNL1       -0.0105
      7 C           0.4950    1.6057   -2.1966 C.3     1  UNL1        0.1202
      8 C           0.9355    2.9112   -1.5730 C.ar    1  UNL1       -0.0060
      9 C           0.6316    4.2270   -1.9071 C.ar    1  UNL1       -0.0540
     10 C           1.1468    5.2734   -1.1283 C.ar    1  UNL1       -0.0440
     11 C           1.9812    5.0047   -0.0307 C.ar    1  UNL1        0.0521
     12 C           2.2392    3.6804    0.3338 C.ar    1  UNL1       -0.0386
     13 C           1.7013    2.6550   -0.4425 C.ar    1  UNL1       -0.0144
     14 C           1.7783    1.1941   -0.2176 C.3     1  UNL1        0.0747
     15 O           1.2339    0.5982   -1.4284 O.3     1  UNL1       -0.3595
     16 C           2.5919    6.0912    0.6894 C.1     1  UNL1        0.0992
     17 N           3.1213    6.9597    1.2387 N.1     1  UNL1       -0.1909
     18 C          -1.0292    1.3979   -2.0776 C.ar    1  UNL1       -0.0113
     19 C          -1.9163    2.2844   -2.7333 C.ar    1  UNL1       -0.0528
     20 C          -3.2963    2.2148   -2.5443 C.ar    1  UNL1       -0.0261
     21 C          -3.8170    1.2205   -1.7353 C.ar    1  UNL1        0.1234
     22 C          -2.9841    0.2756   -1.1484 C.ar    1  UNL1       -0.0261
     23 C          -1.5955    0.3608   -1.3177 C.ar    1  UNL1       -0.0528
     24 F          -5.1369    1.1726   -1.5169 F       1  UNL1       -0.2055
     25 H           3.7370   -1.5231   -5.5488 H       1  UNL1        0.0777
     26 H           2.0822   -0.8205   -5.6687 H       1  UNL1        0.0777
     27 H           2.2907   -2.5067   -5.1290 H       1  UNL1        0.0777
     28 H           4.6534   -2.0258   -3.2099 H       1  UNL1        0.0777
     29 H           3.5431   -1.7366   -1.8177 H       1  UNL1        0.0777
     30 H           3.1693   -3.0249   -2.9992 H       1  UNL1        0.0777
     31 H           3.5372    0.5159   -2.4557 H       1  UNL1        0.0814
     32 H           4.3112    0.4075   -4.0396 H       1  UNL1        0.0814
     33 H           2.7971    2.4141   -3.8112 H       1  UNL1        0.0318
     34 H           2.4349    1.3773   -5.1623 H       1  UNL1        0.0318
     35 H           0.3889    2.1032   -4.3168 H       1  UNL1        0.0301
     36 H           0.5177    0.3931   -3.9886 H       1  UNL1        0.0301
     37 H          -0.0190    4.4749   -2.7391 H       1  UNL1        0.0622
     38 H           0.8931    6.3021   -1.3860 H       1  UNL1        0.0630
     39 H           2.8481    3.4587    1.2077 H       1  UNL1        0.0634
     40 H           2.8116    0.8543   -0.1047 H       1  UNL1        0.0610
     41 H           1.1769    0.8763    0.6391 H       1  UNL1        0.0610
     42 H          -1.5464    3.0677   -3.3895 H       1  UNL1        0.0622
     43 H          -3.9603    2.9385   -3.0085 H       1  UNL1        0.0646
     44 H          -3.4257   -0.5103   -0.5430 H       1  UNL1        0.0646
     45 H          -0.9715   -0.3848   -0.8316 H       1  UNL1        0.0622
     46 H           1.8790   -1.0663   -3.2803 H       1  UNL1        0.2028
@<TRIPOS>UNITY_ATOM_ATTR
2 1
charge 1
@<TRIPOS>BOND
     1     1     2    1
     2     1    25    1
     3     1    26    1
     4     1    27    1
     5     2     3    1
     6     2     4    1
     7     2    46    1
     8     3    28    1
     9     3    29    1
    10     3    30    1
    11     4     5    1
    12     4    31    1
    13     4    32    1
    14     5     6    1
    15     5    33    1
    16     5    34    1
    17     6    35    1
    18     6    36    1
    19     7    15    1
    20     7     8    1
    21     8    13   ar
    22     8     9   ar
    23     9    10   ar
    24     9    37    1
    25    10    11   ar
    26    10    38    1
    27    11    12   ar
    28    11    16    1
    29    12    13   ar
    30    12    39    1
    31    13    14    1
    32    14    15    1
    33    14    40    1
    34    14    41    1
    35    16    17    3
    36    18    23   ar
    37    18    19   ar
    38    19    20   ar
    39    19    42    1
    40    20    21   ar
    41    20    43    1
    42    21    22   ar
    43    21    24    1
    44    22    23   ar
    45    22    44    1
    46    23    45    1
    47     7    18    1
    48     7     6    1
