@<TRIPOS>MOLECULE
ZINC00005823
 44 45 0 0 0
SMALL
GASTEIGER

@<TRIPOS>ATOM
      1 C           2.7702    4.0572   -0.7744 C.3     1  UNL1       -0.0397
      2 C           1.3289    4.3203   -0.4615 C.ar    1  UNL1       -0.0487
      3 C           0.8683    5.6388   -0.3696 C.ar    1  UNL1       -0.0587
      4 C          -0.4633    5.8962   -0.0624 C.ar    1  UNL1       -0.0598
      5 C          -1.3467    4.8358    0.1309 C.ar    1  UNL1       -0.0405
      6 C          -0.9245    3.5042    0.0162 C.ar    1  UNL1        0.0316
      7 C           0.4246    3.2625   -0.2752 C.ar    1  UNL1       -0.0376
      8 N          -1.8209    2.4188    0.0654 N.pl3   1  UNL1       -0.3131
      9 C          -3.1990    2.4984    0.1702 C.2     1  UNL1        0.0576
     10 C          -3.9461    3.1484   -0.7594 C.2     1  UNL1       -0.0388
     11 C          -5.3863    3.1877   -0.6843 C.3     1  UNL1        0.0625
     12 N          -6.0031    2.4897    0.3117 N.pl3   1  UNL1       -0.3396
     13 C          -5.2662    1.8193    1.2665 C.2     1  UNL1        0.0190
     14 C          -3.9143    1.8001    1.2599 C.2     1  UNL1        0.1466
     15 S          -3.1226    1.0726    2.6492 S.O2    1  UNL1        0.1022
     16 O          -1.6994    1.3761    2.6929 O.2     1  UNL1       -0.1462
     17 O          -3.9073    1.4284    3.8313 O.2     1  UNL1       -0.1462
     18 N          -3.3837   -0.5057    2.3594 N.2     1  UNL1       -0.1294
     19 C          -2.8825   -1.1064    1.3324 C.2     1  UNL1        0.0684
     20 O          -2.1735   -0.7569    0.3844 O.co2   1  UNL1       -0.8484
     21 N          -3.0940   -2.4159    1.0772 N.pl3   1  UNL1       -0.3370
     22 C          -3.8642   -3.3465    1.8554 C.3     1  UNL1        0.0153
     23 C          -5.3348   -3.2846    1.4506 C.3     1  UNL1       -0.0470
     24 C          -3.2994   -4.7462    1.6236 C.3     1  UNL1       -0.0470
     25 H           3.0140    4.4396   -1.7707 H       1  UNL1        0.0278
     26 H           3.4094    4.5503   -0.0345 H       1  UNL1        0.0278
     27 H           3.0001    2.9873   -0.7545 H       1  UNL1        0.0278
     28 H           1.5474    6.4706   -0.5333 H       1  UNL1        0.0620
     29 H          -0.8240    6.9161    0.0237 H       1  UNL1        0.0618
     30 H          -2.3775    5.0605    0.3881 H       1  UNL1        0.0636
     31 H           0.7626    2.2312   -0.3669 H       1  UNL1        0.0639
     32 H          -1.4341    1.5497    0.4639 H       1  UNL1        0.1522
     33 H          -3.4700    3.6335   -1.6040 H       1  UNL1        0.0610
     34 H          -5.9939    3.7544   -1.3760 H       1  UNL1        0.0564
     35 H          -5.8538    1.3372    2.0412 H       1  UNL1        0.0799
     36 H          -2.7494   -2.6676    0.1619 H       1  UNL1        0.1467
     37 H          -3.7764   -3.1141    2.9220 H       1  UNL1        0.0492
     38 H          -5.4709   -3.5294    0.3913 H       1  UNL1        0.0247
     39 H          -5.9287   -3.9915    2.0406 H       1  UNL1        0.0247
     40 H          -5.7471   -2.2828    1.6135 H       1  UNL1        0.0247
     41 H          -2.2358   -4.7800    1.8848 H       1  UNL1        0.0247
     42 H          -3.8239   -5.4884    2.2333 H       1  UNL1        0.0247
     43 H          -3.3878   -5.0428    0.5720 H       1  UNL1        0.0247
     44 H          -7.0120    2.4943    0.3839 H       1  UNL1        0.1462
@<TRIPOS>UNITY_ATOM_ATTR
20 1
charge -1
@<TRIPOS>BOND
     1     1     2    1
     2     1    25    1
     3     1    26    1
     4     1    27    1
     5     2     7   ar
     6     2     3   ar
     7     3     4   ar
     8     3    28    1
     9     4     5   ar
    10     4    29    1
    11     5     6   ar
    12     5    30    1
    13     6     7   ar
    14     6     8    1
    15     7    31    1
    16     8     9    1
    17     8    32    1
    18     9    14    1
    19     9    10    2
    20    10    11    1
    21    10    33    1
    22    11    12    1
    23    11    34    1
    24    12    13    1
    25    12    44    1
    26    13    14    2
    27    13    35    1
    28    14    15    1
    29    15    16    2
    30    15    17    2
    31    15    18    1
    32    18    19    2
    33    19    20    1
    34    19    21    1
    35    21    22    1
    36    21    36    1
    37    22    23    1
    38    22    24    1
    39    22    37    1
    40    23    38    1
    41    23    39    1
    42    23    40    1
    43    24    41    1
    44    24    42    1
    45    24    43    1
