@<TRIPOS>MOLECULE
ZINC03831042
 53 56 0 0 0
SMALL
GASTEIGER

@<TRIPOS>ATOM
      1 C          -1.2032    0.3272   -0.7454 C.3     1  UNL1       -0.0428
      2 C          -2.1541   -0.2308   -2.9511 C.3     1  UNL1       -0.0319
      3 C          -2.0426   -1.1377   -4.1611 C.3     1  UNL1       -0.0123
      4 C          -2.2965   -2.5882   -3.7830 C.3     1  UNL1       -0.0432
      5 C          -1.3675   -3.0420   -2.6573 C.3     1  UNL1       -0.0094
      6 C          -1.4713   -2.1493   -1.4089 C.3     1  UNL1       -0.0197
      7 H          -2.4951   -2.1588   -1.0155 H       1  UNL1        0.0851
      8 C          -0.4687   -2.5411   -0.3021 C.3     1  UNL1        0.0064
      9 C          -0.6177   -3.9656    0.2828 C.3     1  UNL1        0.0224
     10 N           0.4116   -4.2144    1.3193 N.pl3   1  UNL1       -0.2981
     11 C           0.5116   -3.3418    2.4304 C.ar    1  UNL1        0.0479
     12 C          -0.6307   -2.9073    3.1237 C.ar    1  UNL1       -0.0393
     13 C          -0.5223   -2.1007    4.2615 C.ar    1  UNL1       -0.0599
     14 C           0.7301   -1.7020    4.7206 C.ar    1  UNL1       -0.0606
     15 C           1.8779   -2.1290    4.0572 C.ar    1  UNL1       -0.0462
     16 C           1.7746   -2.9530    2.9299 C.ar    1  UNL1        0.0341
     17 S           3.2865   -3.5074    2.1486 S.3     1  UNL1       -0.0857
     18 C           2.7136   -5.0621    1.4749 C.ar    1  UNL1        0.0342
     19 C           1.3663   -5.2358    1.0901 C.ar    1  UNL1        0.0490
     20 C           0.9770   -6.4999    0.6183 C.ar    1  UNL1       -0.0235
     21 C           1.8886   -7.5630    0.5278 C.ar    1  UNL1        0.0404
     22 C           3.2209   -7.3607    0.8910 C.ar    1  UNL1       -0.0448
     23 C           3.6341   -6.1115    1.3524 C.ar    1  UNL1       -0.0451
     24 S           1.3118   -9.2214    0.0825 S.O     1  UNL1        0.0507
     25 O          -0.1360   -9.0594   -0.2819 O.2     1  UNL1       -0.2524
     26 C           2.2358   -9.4147   -1.4609 C.3     1  UNL1        0.0163
     27 H          -0.3612    0.1254   -0.0825 H       1  UNL1        0.0778
     28 H          -1.0613    1.3183   -1.1871 H       1  UNL1        0.0778
     29 H          -2.1609    0.2653   -0.2233 H       1  UNL1        0.0778
     30 H          -3.1654   -0.2322   -2.5288 H       1  UNL1        0.0814
     31 H          -1.8750    0.7936   -3.2236 H       1  UNL1        0.0814
     32 H          -2.7652   -0.8220   -4.9231 H       1  UNL1        0.0317
     33 H          -1.0467   -1.0394   -4.6105 H       1  UNL1        0.0317
     34 H          -3.3408   -2.7059   -3.4681 H       1  UNL1        0.0269
     35 H          -2.1557   -3.2253   -4.6638 H       1  UNL1        0.0269
     36 H          -1.6205   -4.0773   -2.4064 H       1  UNL1        0.0320
     37 H          -0.3341   -3.0461   -3.0277 H       1  UNL1        0.0320
     38 H           0.5567   -2.4057   -0.6697 H       1  UNL1        0.0335
     39 H          -0.5977   -1.8425    0.5288 H       1  UNL1        0.0335
     40 H          -1.6205   -4.1086    0.6998 H       1  UNL1        0.0470
     41 H          -0.5199   -4.6797   -0.5411 H       1  UNL1        0.0470
     42 H          -1.6186   -3.2515    2.8318 H       1  UNL1        0.0636
     43 H          -1.4149   -1.8119    4.8122 H       1  UNL1        0.0618
     44 H           0.8159   -1.0892    5.6159 H       1  UNL1        0.0618
     45 H           2.8531   -1.8351    4.4406 H       1  UNL1        0.0629
     46 H          -0.0720   -6.6948    0.4073 H       1  UNL1        0.0648
     47 H           3.9399   -8.1759    0.8615 H       1  UNL1        0.0630
     48 H           4.6693   -5.9745    1.6606 H       1  UNL1        0.0630
     49 H           1.9473   -8.6305   -2.1638 H       1  UNL1        0.0368
     50 H           3.3096   -9.3760   -1.2675 H       1  UNL1        0.0368
     51 H           1.9867  -10.3905   -1.8856 H       1  UNL1        0.0368
     52 N          -1.2012   -0.6916   -1.8630 N.4     1  UNL1        0.2353
     53 H          -0.2546   -0.6711   -2.2650 H       1  UNL1        0.2033
@<TRIPOS>UNITY_ATOM_ATTR
52 1
charge 1
@<TRIPOS>BOND
     1     1    27    1
     2     1    28    1
     3     1    29    1
     4     1    52    1
     5     2     3    1
     6     2    30    1
     7     2    31    1
     8     2    52    1
     9     3     4    1
    10     3    32    1
    11     3    33    1
    12     4     5    1
    13     4    34    1
    14     4    35    1
    15     5     6    1
    16     5    36    1
    17     5    37    1
    18     6    52    1
    19     8     9    1
    20     8    38    1
    21     8    39    1
    22     9    10    1
    23     9    40    1
    24     9    41    1
    25    10    19    1
    26    10    11    1
    27    11    16   ar
    28    11    12   ar
    29    12    13   ar
    30    12    42    1
    31    13    14   ar
    32    13    43    1
    33    14    15   ar
    34    14    44    1
    35    15    16   ar
    36    15    45    1
    37    16    17    1
    38    17    18    1
    39    18    23   ar
    40    18    19   ar
    41    19    20   ar
    42    20    21   ar
    43    20    46    1
    44    21    22   ar
    45    21    24    1
    46    22    23   ar
    47    22    47    1
    48    23    48    1
    49    24    25    2
    50    24    26    1
    51    26    49    1
    52    26    50    1
    53    26    51    1
    54    52    53    1
    55     6     8    1
    56     6     7    1
