@<TRIPOS>MOLECULE
ZINC00057249
 42 43 0 0 0
SMALL
GASTEIGER

@<TRIPOS>ATOM
      1 C           0.8381   -0.7770   -0.0859 C.3     1  UNL1       -0.0433
      2 N           0.4216   -0.5531   -1.5103 N.4     1  UNL1        0.2318
      3 C           0.8060   -1.7095   -2.3757 C.3     1  UNL1       -0.0433
      4 C          -1.0106   -0.1193   -1.7400 C.3     1  UNL1       -0.0193
      5 C          -1.4152    1.1584   -0.9648 C.3     1  UNL1        0.0417
      6 N          -0.8723    2.4965   -1.2699 N.3     1  UNL1       -0.2663
      7 C          -1.4514    3.5534   -0.3927 C.3     1  UNL1        0.0266
      8 C          -1.3266    3.4253    1.1258 C.ar    1  UNL1       -0.0332
      9 C          -1.9977    2.4277    1.8540 C.ar    1  UNL1       -0.0560
     10 C          -1.8088    2.2761    3.2306 C.ar    1  UNL1       -0.0431
     11 C          -1.0102    3.1793    3.9215 C.ar    1  UNL1        0.0410
     12 C          -0.4196    4.2389    3.2480 C.ar    1  UNL1       -0.0431
     13 C          -0.5765    4.3655    1.8603 C.ar    1  UNL1       -0.0560
     14 CL         -0.7639    2.9879    5.6095 Cl      1  UNL1       -0.0835
     15 C           0.5219    2.5657   -1.5570 C.3     1  UNL1        0.1451
     16 C           1.5552    2.8964   -0.5923 C.2     1  UNL1       -0.0425
     17 C           2.8396    2.5653   -0.8317 C.2     1  UNL1       -0.0611
     18 C           3.2206    1.9404   -2.0868 C.2     1  UNL1       -0.0484
     19 C           2.2755    1.7705   -3.0242 C.2     1  UNL1       -0.0089
     20 N           0.9355    2.0046   -2.7566 N.pl3   1  UNL1       -0.3257
     21 H           0.3082   -1.6512    0.2999 H       1  UNL1        0.0777
     22 H           0.6179    0.1098    0.5098 H       1  UNL1        0.0777
     23 H           1.9196   -0.9411   -0.0764 H       1  UNL1        0.0777
     24 H           0.2987   -2.6046   -2.0038 H       1  UNL1        0.0777
     25 H           0.5116   -1.4923   -3.4057 H       1  UNL1        0.0777
     26 H           1.8939   -1.8306   -2.3182 H       1  UNL1        0.0777
     27 H          -1.1469    0.0244   -2.8174 H       1  UNL1        0.0827
     28 H          -1.6395   -0.9567   -1.4156 H       1  UNL1        0.0827
     29 H          -2.5049    1.2326   -1.0808 H       1  UNL1        0.0480
     30 H          -1.2280    0.9166    0.0786 H       1  UNL1        0.0480
     31 H          -1.0537    4.5290   -0.7076 H       1  UNL1        0.0476
     32 H          -2.5249    3.6247   -0.6162 H       1  UNL1        0.0476
     33 H          -2.6854    1.7450    1.3627 H       1  UNL1        0.0621
     34 H          -2.2916    1.4572    3.7578 H       1  UNL1        0.0632
     35 H           0.1680    4.9798    3.7890 H       1  UNL1        0.0632
     36 H          -0.1092    5.2105    1.3550 H       1  UNL1        0.0621
     37 H           1.3112    3.4341    0.3102 H       1  UNL1        0.0608
     38 H           3.6255    2.8286   -0.1302 H       1  UNL1        0.0616
     39 H           4.2641    1.7037   -2.2656 H       1  UNL1        0.0630
     40 H           2.4928    1.3955   -4.0207 H       1  UNL1        0.0778
     41 H           0.3985    2.3626   -3.5493 H       1  UNL1        0.1477
     42 H           0.9693    0.2573   -1.8387 H       1  UNL1        0.2028
@<TRIPOS>UNITY_ATOM_ATTR
2 1
charge 1
@<TRIPOS>BOND
     1     1     2    1
     2     1    21    1
     3     1    22    1
     4     1    23    1
     5     2     3    1
     6     2     4    1
     7     2    42    1
     8     3    24    1
     9     3    25    1
    10     3    26    1
    11     4     5    1
    12     4    27    1
    13     4    28    1
    14     5     6    1
    15     5    29    1
    16     5    30    1
    17     6     7    1
    18     6    15    1
    19     7     8    1
    20     7    31    1
    21     7    32    1
    22     8    13   ar
    23     8     9   ar
    24     9    10   ar
    25     9    33    1
    26    10    11   ar
    27    10    34    1
    28    11    12   ar
    29    11    14    1
    30    12    13   ar
    31    12    35    1
    32    13    36    1
    33    15    20    1
    34    15    16    1
    35    16    17    2
    36    16    37    1
    37    17    18    1
    38    17    38    1
    39    18    19    2
    40    18    39    1
    41    19    20    1
    42    19    40    1
    43    20    41    1
