@<TRIPOS>MOLECULE
ZINC01530950
 42 41 0 0 0
SMALL
GASTEIGER

@<TRIPOS>ATOM
      1 C          -1.0273   -1.6071   -3.7009 C.3     1  UNL1       -0.0653
      2 C           0.4618   -1.8373   -3.4841 C.3     1  UNL1       -0.0552
      3 C           0.9067   -1.5376   -2.0428 C.3     1  UNL1       -0.0416
      4 C           2.4381   -1.6951   -1.7726 C.3     1  UNL1        0.0363
      5 C           3.2361   -0.7186   -2.6617 C.3     1  UNL1       -0.0533
      6 C           2.7646   -1.3364   -0.2968 C.3     1  UNL1        0.1025
      7 O           2.2635   -2.3180    0.6244 O.3     1  UNL1       -0.4499
      8 C           1.1479   -2.0073    1.3124 C.2     1  UNL1        0.3977
      9 O           0.4722   -0.9996    1.1902 O.2     1  UNL1       -0.2267
     10 N           0.8612   -3.0027    2.1783 N.am    1  UNL1       -0.2950
     11 C           2.8785   -3.1483   -2.0642 C.3     1  UNL1        0.1025
     12 O           4.2709   -3.3422   -1.7507 O.3     1  UNL1       -0.4497
     13 C           4.5645   -4.4376   -1.0087 C.2     1  UNL1        0.4005
     14 O           3.7511   -5.2131   -0.5300 O.2     1  UNL1       -0.2265
     15 N           5.9207   -4.5840   -0.9324 N.am    1  UNL1       -0.2788
     16 C           6.5084   -5.8567   -0.5525 C.3     1  UNL1        0.0206
     17 C           6.6852   -6.7312   -1.7926 C.3     1  UNL1       -0.0468
     18 C           7.8354   -5.6610    0.1705 C.3     1  UNL1       -0.0468
     19 H          -1.6289   -2.1853   -2.9936 H       1  UNL1        0.0230
     20 H          -1.3057   -1.9168   -4.7142 H       1  UNL1        0.0230
     21 H          -1.2813   -0.5485   -3.5931 H       1  UNL1        0.0230
     22 H           0.6824   -2.8798   -3.7339 H       1  UNL1        0.0263
     23 H           1.0043   -1.2067   -4.1943 H       1  UNL1        0.0263
     24 H           0.6025   -0.5143   -1.7849 H       1  UNL1        0.0273
     25 H           0.3480   -2.2041   -1.3733 H       1  UNL1        0.0273
     26 H           2.9244    0.3167   -2.4828 H       1  UNL1        0.0237
     27 H           4.3110   -0.7801   -2.4598 H       1  UNL1        0.0237
     28 H           3.1022   -0.9319   -3.7264 H       1  UNL1        0.0237
     29 H           3.8517   -1.3189   -0.1480 H       1  UNL1        0.0704
     30 H           2.4138   -0.3278   -0.0449 H       1  UNL1        0.0704
     31 H           1.4603   -3.8139    2.2147 H       1  UNL1        0.1482
     32 H           0.0331   -2.9404    2.7486 H       1  UNL1        0.1482
     33 H           2.2253   -3.8504   -1.5292 H       1  UNL1        0.0704
     34 H           2.7772   -3.3731   -3.1315 H       1  UNL1        0.0704
     35 H           6.4486   -3.9403   -1.5066 H       1  UNL1        0.1523
     36 H           5.8195   -6.3684    0.1305 H       1  UNL1        0.0494
     37 H           7.3972   -6.2816   -2.4939 H       1  UNL1        0.0247
     38 H           7.0530   -7.7256   -1.5215 H       1  UNL1        0.0247
     39 H           5.7351   -6.8547   -2.3244 H       1  UNL1        0.0247
     40 H           7.6901   -5.0964    1.0979 H       1  UNL1        0.0247
     41 H           8.2795   -6.6276    0.4329 H       1  UNL1        0.0247
     42 H           8.5535   -5.1102   -0.4459 H       1  UNL1        0.0247
@<TRIPOS>BOND
     1     1     2    1
     2     1    19    1
     3     1    20    1
     4     1    21    1
     5     2     3    1
     6     2    22    1
     7     2    23    1
     8     3    24    1
     9     3    25    1
    10     4     3    1
    11     4     5    1
    12     4     6    1
    13     4    11    1
    14     5    26    1
    15     5    27    1
    16     5    28    1
    17     6     7    1
    18     6    29    1
    19     6    30    1
    20     7     8    1
    21     8     9    2
    22     8    10   am
    23    10    31    1
    24    10    32    1
    25    11    12    1
    26    11    33    1
    27    11    34    1
    28    12    13    1
    29    13    14    2
    30    13    15   am
    31    15    16    1
    32    15    35    1
    33    16    17    1
    34    16    18    1
    35    16    36    1
    36    17    37    1
    37    17    38    1
    38    17    39    1
    39    18    40    1
    40    18    41    1
    41    18    42    1
