@<TRIPOS>MOLECULE
ZINC00113418
 23 24 0 0 0
SMALL
GASTEIGER

@<TRIPOS>ATOM
      1 C          -0.9438    0.1454   -0.2283 C.ar    1  UNL1       -0.0126
      2 C           0.0843    1.1151   -0.0964 C.ar    1  UNL1        0.0045
      3 C           1.2218    0.4003    0.1921 C.ar    1  UNL1        0.2298
      4 O           0.9749   -0.9349    0.2431 O.2     1  UNL1       -0.4358
      5 C          -0.3623   -1.0934   -0.0148 C.ar    1  UNL1        0.1500
      6 C          -0.8821   -2.4344   -0.0243 C.2     1  UNL1        0.0882
      7 N          -2.1330   -2.6674   -0.2797 N.2     1  UNL1       -0.1791
      8 N          -2.5443   -3.9763   -0.2432 N.am    1  UNL1       -0.1552
      9 C          -3.8393   -4.3425   -0.7161 C.3     1  UNL1        0.0753
     10 C          -3.7781   -5.8457   -0.6263 C.3     1  UNL1        0.1118
     11 O          -2.8402   -6.1117    0.4226 O.3     1  UNL1       -0.4475
     12 C          -2.0532   -4.9964    0.5709 C.2     1  UNL1        0.4227
     13 O          -1.0955   -4.9602    1.3276 O.2     1  UNL1       -0.2244
     14 N           2.5692    0.8107    0.4339 N.pl3   1  UNL1       -0.1513
     15 O           2.7888    2.0282    0.3750 O.2     1  UNL1       -0.1698
     16 O           3.4081   -0.0663    0.6741 O.co2   1  UNL1       -0.7748
     17 H          -1.9884    0.3174   -0.4552 H       1  UNL1        0.0656
     18 H           0.0075    2.1892   -0.1980 H       1  UNL1        0.0672
     19 H          -0.1415   -3.2270    0.1639 H       1  UNL1        0.0883
     20 H          -4.5898   -3.9355   -0.0296 H       1  UNL1        0.0520
     21 H          -4.0221   -3.9789   -1.7303 H       1  UNL1        0.0520
     22 H          -4.7471   -6.2915   -0.3861 H       1  UNL1        0.0714
     23 H          -3.3965   -6.2988   -1.5481 H       1  UNL1        0.0714
@<TRIPOS>UNITY_ATOM_ATTR
16 1
charge -1
@<TRIPOS>BOND
     1     1     5   ar
     2     1     2   ar
     3     1    17    1
     4     2     3   ar
     5     2    18    1
     6     3     4   ar
     7     3    14    1
     8     4     5   ar
     9     5     6    1
    10     6     7    2
    11     6    19    1
    12     7     8    1
    13     8    12   am
    14     8     9    1
    15     9    10    1
    16     9    20    1
    17     9    21    1
    18    10    11    1
    19    10    22    1
    20    10    23    1
    21    11    12    1
    22    12    13    2
    23    14    15    2
    24    14    16    1
