@<TRIPOS>MOLECULE
ZINC01997127
 32 34 0 0 0
SMALL
GASTEIGER

@<TRIPOS>ATOM
      1 C          -0.6501   -7.5262    1.8571 C.ar    1  UNL1       -0.0593
      2 C          -0.3414   -6.1806    1.6702 C.ar    1  UNL1       -0.0492
      3 C          -1.3010   -5.3953    1.0627 C.ar    1  UNL1        0.0433
      4 C          -2.5437   -5.8909    0.6648 C.ar    1  UNL1        0.0026
      5 C          -2.8927   -7.2087    0.9090 C.ar    1  UNL1        0.0300
      6 C          -1.9038   -8.0345    1.4607 C.ar    1  UNL1       -0.0407
      7 N          -4.0889   -7.7570    0.4365 N.pl3   1  UNL1       -0.3577
      8 C          -3.3398   -4.7974    0.0438 C.3     1  UNL1        0.0433
      9 N          -2.4697   -3.6304    0.1648 N.am    1  UNL1       -0.2815
     10 C          -1.2677   -3.9540    0.7847 C.2     1  UNL1        0.2479
     11 O          -0.3635   -3.2029    1.0970 O.2     1  UNL1       -0.2699
     12 C          -3.0083   -2.2696    0.2325 C.3     1  UNL1        0.1036
     13 H          -2.1860   -1.5661    0.4139 H       1  UNL1        0.0597
     14 C          -3.7211   -1.8776   -1.0616 C.3     1  UNL1       -0.0175
     15 C          -4.5899   -0.6489   -0.8481 C.3     1  UNL1        0.0265
     16 C          -5.6117   -0.9187    0.2224 C.2     1  UNL1        0.2193
     17 O          -6.7561   -0.4752    0.1818 O.2     1  UNL1       -0.2754
     18 N          -5.1640   -1.6340    1.3008 N.am    1  UNL1       -0.2548
     19 C          -3.9250   -2.1954    1.4726 C.2     1  UNL1        0.2398
     20 O          -3.6181   -2.6483    2.5747 O.2     1  UNL1       -0.2734
     21 H           0.0796   -8.1910    2.3140 H       1  UNL1        0.0618
     22 H           0.6086   -5.7613    1.9829 H       1  UNL1        0.0625
     23 H          -2.1025   -9.0944    1.6089 H       1  UNL1        0.0636
     24 H          -4.3493   -8.6215    0.9021 H       1  UNL1        0.1423
     25 H          -4.8676   -7.1083    0.3990 H       1  UNL1        0.1423
     26 H          -4.2713   -4.6387    0.5943 H       1  UNL1        0.0515
     27 H          -3.5400   -4.9820   -1.0148 H       1  UNL1        0.0515
     28 H          -4.3497   -2.6987   -1.4289 H       1  UNL1        0.0292
     29 H          -2.9809   -1.6773   -1.8454 H       1  UNL1        0.0292
     30 H          -5.1131   -0.3987   -1.7779 H       1  UNL1        0.0359
     31 H          -3.9929    0.2154   -0.5436 H       1  UNL1        0.0359
     32 H          -5.7947   -1.7054    2.0863 H       1  UNL1        0.1575
@<TRIPOS>BOND
     1     1     6   ar
     2     1     2   ar
     3     1    21    1
     4     2     3   ar
     5     2    22    1
     6     3    10    1
     7     3     4   ar
     8     4     5   ar
     9     4     8    1
    10     5     6   ar
    11     5     7    1
    12     6    23    1
    13     7    24    1
    14     7    25    1
    15     8     9    1
    16     8    26    1
    17     8    27    1
    18     9    10   am
    19    10    11    2
    20    12    19    1
    21    12    14    1
    22    14    15    1
    23    14    28    1
    24    14    29    1
    25    15    16    1
    26    15    30    1
    27    15    31    1
    28    16    17    2
    29    16    18   am
    30    18    19   am
    31    18    32    1
    32    19    20    2
    33    12    13    1
    34    12     9    1
