@<TRIPOS>MOLECULE
ZINC00004785
 31 33 0 0 0
SMALL
GASTEIGER

@<TRIPOS>ATOM
      1 C           3.6568    0.0002   -0.8116 C.ar    1  UNL1       -0.0611
      2 C           3.3267   -1.3029   -0.4553 C.ar    1  UNL1       -0.0600
      3 C           2.1237   -1.5569    0.2018 C.ar    1  UNL1       -0.0393
      4 C           1.2242   -0.5140    0.4906 C.ar    1  UNL1        0.0500
      5 C           1.5438    0.8024    0.0995 C.ar    1  UNL1       -0.0032
      6 C           2.7764    1.0468   -0.5272 C.ar    1  UNL1       -0.0528
      7 C           0.6768    1.9558    0.3885 C.2     1  UNL1       -0.0522
      8 C          -0.6659    1.9630    0.3874 C.2     1  UNL1       -0.0522
      9 C          -1.5394    0.8158    0.1000 C.ar    1  UNL1       -0.0032
     10 C          -2.7740    1.0686   -0.5183 C.ar    1  UNL1       -0.0528
     11 C          -3.6655    0.0291   -0.7936 C.ar    1  UNL1       -0.0611
     12 C          -3.3396   -1.2784   -0.4494 C.ar    1  UNL1       -0.0600
     13 C          -2.1273   -1.5438    0.1842 C.ar    1  UNL1       -0.0393
     14 C          -1.2249   -0.5040    0.4810 C.ar    1  UNL1        0.0500
     15 N          -0.0047   -0.8228    1.1605 N.pl3   1  UNL1       -0.2251
     16 C           0.0072   -1.3764    2.4934 C.2     1  UNL1        0.2623
     17 N          -1.1067   -1.5746    3.1609 N.2     1  UNL1       -0.3567
     18 O           1.1485   -1.6703    3.0978 O.2     1  UNL1       -0.4825
     19 H           4.5989    0.2039   -1.3153 H       1  UNL1        0.0618
     20 H           4.0030   -2.1212   -0.6887 H       1  UNL1        0.0618
     21 H           1.8752   -2.5796    0.4733 H       1  UNL1        0.0636
     22 H           3.0579    2.0574   -0.8162 H       1  UNL1        0.0624
     23 H           1.1981    2.8909    0.5844 H       1  UNL1        0.0624
     24 H          -1.1707    2.9058    0.5821 H       1  UNL1        0.0624
     25 H          -3.0467    2.0813   -0.8096 H       1  UNL1        0.0624
     26 H          -4.6093    0.2424   -1.2909 H       1  UNL1        0.0618
     27 H          -4.0215   -2.0908   -0.6906 H       1  UNL1        0.0618
     28 H          -1.8687   -2.5740    0.4205 H       1  UNL1        0.0636
     29 H          -1.1247   -1.9723    4.0857 H       1  UNL1        0.1600
     30 H           1.0017   -1.7195    4.0522 H       1  UNL1        0.2950
     31 H          -1.9840   -1.3204    2.7262 H       1  UNL1        0.1600
@<TRIPOS>BOND
     1     1     6   ar
     2     1     2   ar
     3     1    19    1
     4     2     3   ar
     5     2    20    1
     6     3     4   ar
     7     3    21    1
     8     4    15    1
     9     4     5   ar
    10     5     6   ar
    11     5     7    1
    12     6    22    1
    13     7     8    2
    14     7    23    1
    15     8     9    1
    16     8    24    1
    17     9    14   ar
    18     9    10   ar
    19    10    11   ar
    20    10    25    1
    21    11    12   ar
    22    11    26    1
    23    12    13   ar
    24    12    27    1
    25    13    14   ar
    26    13    28    1
    27    14    15    1
    28    15    16    1
    29    16    17    2
    30    16    18    1
    31    17    29    1
    32    17    31    1
    33    18    30    1
