@<TRIPOS>MOLECULE
ZINC03831403
 49 52 0 0 0
SMALL
GASTEIGER

@<TRIPOS>ATOM
      1 C           0.3676    2.0664    8.6966 C.3     1  UNL1        0.0788
      2 O           0.2380    2.9472    7.5741 O.3     1  UNL1       -0.4951
      3 C          -1.0602    3.2226    7.2356 C.ar    1  UNL1        0.1208
      4 C          -2.0929    3.2972    8.1560 C.ar    1  UNL1       -0.0179
      5 C          -3.4004    3.4114    7.7012 C.ar    1  UNL1       -0.0323
      6 C          -3.6984    3.4632    6.3505 C.ar    1  UNL1        0.0715
      7 C          -2.6582    3.5461    5.3907 C.ar    1  UNL1        0.0097
      8 C          -1.3299    3.4142    5.8760 C.ar    1  UNL1       -0.0104
      9 C          -3.0531    3.6998    4.0249 C.ar    1  UNL1       -0.0031
     10 C          -4.4104    3.4863    3.7146 C.ar    1  UNL1       -0.0372
     11 C          -5.3272    3.3413    4.7353 C.ar    1  UNL1        0.0286
     12 N          -4.9962    3.4165    6.0305 N.ar    1  UNL1       -0.2550
     13 C          -2.1750    4.1912    2.8679 C.3     1  UNL1        0.1232
     14 H          -2.4838    3.6319    1.9735 H       1  UNL1        0.0701
     15 C          -2.4212    5.7283    2.5938 C.3     1  UNL1        0.0102
     16 H          -3.5038    5.8767    2.4861 H       1  UNL1        0.0880
     17 C          -1.7270    6.2895    1.3318 C.3     1  UNL1       -0.0032
     18 C          -0.8255    7.5008    1.6703 C.3     1  UNL1       -0.0200
     19 H          -0.3144    7.8532    0.7664 H       1  UNL1        0.0312
     20 C           0.2043    7.0089    2.7037 C.3     1  UNL1       -0.0088
     21 C          -0.5044    6.6718    4.0176 C.3     1  UNL1       -0.0312
     22 N          -2.0052    6.6416    3.7643 N.4     1  UNL1        0.2399
     23 C          -2.4950    8.0607    3.4827 C.3     1  UNL1       -0.0249
     24 C          -1.6210    8.6514    2.3510 C.3     1  UNL1        0.0203
     25 H          -0.8819    9.3086    2.8336 H       1  UNL1        0.0398
     26 C          -2.4051    9.5017    1.3872 C.2     1  UNL1       -0.0828
     27 C          -2.2038   10.8241    1.2545 C.2     1  UNL1       -0.1022
     28 O          -0.7900    3.9278    3.0323 O.3     1  UNL1       -0.3815
     29 H           1.3783    1.6495    8.6938 H       1  UNL1        0.0660
     30 H          -0.3365    1.2261    8.6412 H       1  UNL1        0.0660
     31 H           0.2332    2.6200    9.6312 H       1  UNL1        0.0660
     32 H          -1.9194    3.2253    9.2244 H       1  UNL1        0.0655
     33 H          -4.2127    3.4112    8.4254 H       1  UNL1        0.0640
     34 H          -0.4872    3.3414    5.1947 H       1  UNL1        0.0661
     35 H          -4.7666    3.4383    2.6895 H       1  UNL1        0.0636
     36 H          -6.3833    3.1767    4.5397 H       1  UNL1        0.0830
     37 H          -1.1324    5.5123    0.8369 H       1  UNL1        0.0324
     38 H          -2.4907    6.5876    0.6029 H       1  UNL1        0.0324
     39 H           0.7392    6.1319    2.3213 H       1  UNL1        0.0320
     40 H           0.9667    7.7775    2.8805 H       1  UNL1        0.0320
     41 H          -0.3303    7.4499    4.7699 H       1  UNL1        0.0814
     42 H          -0.1890    5.7225    4.4483 H       1  UNL1        0.0814
     43 H          -3.5588    7.9975    3.2275 H       1  UNL1        0.0820
     44 H          -2.3929    8.6304    4.4122 H       1  UNL1        0.0820
     45 H          -3.1622    9.0373    0.7619 H       1  UNL1        0.0571
     46 H          -2.7745   11.4156    0.5519 H       1  UNL1        0.0532
     47 H          -1.4536   11.3544    1.8454 H       1  UNL1        0.0532
     48 H          -0.4076    3.7163    2.1605 H       1  UNL1        0.2105
     49 H          -2.4617    6.2971    4.6221 H       1  UNL1        0.2037
@<TRIPOS>UNITY_ATOM_ATTR
22 1
charge 1
@<TRIPOS>BOND
     1     1     2    1
     2     1    29    1
     3     1    30    1
     4     1    31    1
     5     2     3    1
     6     3     8   ar
     7     3     4   ar
     8     4     5   ar
     9     4    32    1
    10     5     6   ar
    11     5    33    1
    12     6    12   ar
    13     6     7   ar
    14     7     8   ar
    15     7     9   ar
    16     8    34    1
    17     9    10   ar
    18     9    13    1
    19    10    11   ar
    20    10    35    1
    21    11    12   ar
    22    11    36    1
    23    13    14    1
    24    13    15    1
    25    13    28    1
    26    15    16    1
    27    15    22    1
    28    15    17    1
    29    17    18    1
    30    17    37    1
    31    17    38    1
    32    18    19    1
    33    18    24    1
    34    18    20    1
    35    20    21    1
    36    20    39    1
    37    20    40    1
    38    21    22    1
    39    21    41    1
    40    21    42    1
    41    22    23    1
    42    22    49    1
    43    23    24    1
    44    23    43    1
    45    23    44    1
    46    26    27    2
    47    26    45    1
    48    27    46    1
    49    27    47    1
    50    28    48    1
    51    24    26    1
    52    24    25    1
