@<TRIPOS>MOLECULE
ZINC00000853
 45 46 0 0 0
SMALL
GASTEIGER

@<TRIPOS>ATOM
      1 C           0.7351   -0.6244    0.2295 C.3     1  UNL1       -0.0433
      2 N           0.5051    0.0669   -1.0874 N.4     1  UNL1        0.2312
      3 C           1.0181   -0.7763   -2.2271 C.3     1  UNL1       -0.0433
      4 C          -0.9464    0.4733   -1.3227 C.3     1  UNL1       -0.0265
      5 C          -1.4493    1.5173   -0.2994 C.3     1  UNL1        0.0321
      6 H          -1.4118    1.0190    0.6758 H       1  UNL1        0.0384
      7 C          -0.5727    2.7786   -0.2114 C.3     1  UNL1       -0.0424
      8 C          -0.5806    3.5728   -1.5109 C.3     1  UNL1       -0.0524
      9 C          -1.9892    3.9188   -1.9828 C.3     1  UNL1       -0.0501
     10 C          -2.9921    2.7588   -1.8959 C.3     1  UNL1       -0.0194
     11 C          -2.9330    1.9314   -0.5857 C.3     1  UNL1        0.0987
     12 C          -3.5331    2.5976    0.6627 C.ar    1  UNL1       -0.0122
     13 C          -3.9452    3.9362    0.6968 C.ar    1  UNL1       -0.0556
     14 C          -4.2549    4.5642    1.9036 C.ar    1  UNL1       -0.0580
     15 C          -4.2146    3.8466    3.0938 C.ar    1  UNL1       -0.0199
     16 C          -3.9183    2.4867    3.0820 C.ar    1  UNL1        0.1204
     17 C          -3.5922    1.8682    1.8745 C.ar    1  UNL1       -0.0140
     18 O          -3.9391    1.8870    4.3115 O.3     1  UNL1       -0.4951
     19 C          -3.7865    0.4758    4.3504 C.3     1  UNL1        0.0788
     20 O          -3.6691    0.7232   -0.8261 O.3     1  UNL1       -0.3835
     21 H           0.1127   -1.5218    0.2659 H       1  UNL1        0.0777
     22 H           0.4855    0.0651    1.0377 H       1  UNL1        0.0777
     23 H           1.7960   -0.8794    0.2961 H       1  UNL1        0.0777
     24 H           0.4457   -1.7070   -2.2578 H       1  UNL1        0.0777
     25 H           0.8972   -0.2076   -3.1531 H       1  UNL1        0.0777
     26 H           2.0792   -0.9725   -2.0513 H       1  UNL1        0.0777
     27 H          -0.9854    0.8650   -2.3435 H       1  UNL1        0.0818
     28 H          -1.5330   -0.4512   -1.2852 H       1  UNL1        0.0818
     29 H          -0.9310    3.4206    0.6033 H       1  UNL1        0.0271
     30 H           0.4563    2.5246    0.0618 H       1  UNL1        0.0271
     31 H          -0.0117    4.4995   -1.3689 H       1  UNL1        0.0265
     32 H          -0.0602    3.0102   -2.2931 H       1  UNL1        0.0265
     33 H          -2.3414    4.7746   -1.4007 H       1  UNL1        0.0266
     34 H          -1.9437    4.2757   -3.0190 H       1  UNL1        0.0266
     35 H          -2.8087    2.0906   -2.7485 H       1  UNL1        0.0296
     36 H          -4.0098    3.1321   -2.0714 H       1  UNL1        0.0296
     37 H          -4.0109    4.5464   -0.1988 H       1  UNL1        0.0621
     38 H          -4.5111    5.6225    1.9188 H       1  UNL1        0.0619
     39 H          -4.4282    4.3483    4.0348 H       1  UNL1        0.0654
     40 H          -3.3413    0.8109    1.8559 H       1  UNL1        0.0658
     41 H          -4.5650   -0.0235    3.7627 H       1  UNL1        0.0660
     42 H          -2.7875    0.1792    4.0124 H       1  UNL1        0.0660
     43 H          -3.8953    0.1567    5.3907 H       1  UNL1        0.0660
     44 H          -4.5829    0.8619   -0.5076 H       1  UNL1        0.2106
     45 H           1.0781    0.9180   -1.0920 H       1  UNL1        0.2028
@<TRIPOS>UNITY_ATOM_ATTR
2 1
charge 1
@<TRIPOS>BOND
     1     1     2    1
     2     1    21    1
     3     1    22    1
     4     1    23    1
     5     2     3    1
     6     2     4    1
     7     2    45    1
     8     3    24    1
     9     3    25    1
    10     3    26    1
    11     4     5    1
    12     4    27    1
    13     4    28    1
    14     5     6    1
    15     5    11    1
    16     5     7    1
    17     7     8    1
    18     7    29    1
    19     7    30    1
    20     8     9    1
    21     8    31    1
    22     8    32    1
    23     9    10    1
    24     9    33    1
    25     9    34    1
    26    10    11    1
    27    10    35    1
    28    10    36    1
    29    11    12    1
    30    11    20    1
    31    12    17   ar
    32    12    13   ar
    33    13    14   ar
    34    13    37    1
    35    14    15   ar
    36    14    38    1
    37    15    16   ar
    38    15    39    1
    39    16    17   ar
    40    16    18    1
    41    17    40    1
    42    18    19    1
    43    19    41    1
    44    19    42    1
    45    19    43    1
    46    20    44    1
