@<TRIPOS>MOLECULE
ZINC00057001
 28 28 0 0 0
SMALL
GASTEIGER

@<TRIPOS>ATOM
      1 C           0.3531    0.0157    0.5460 C.3     1  UNL1       -0.0533
      2 C           0.1935    1.4143   -0.0561 C.3     1  UNL1        0.0417
      3 H          -0.8449    1.7105    0.1327 H       1  UNL1        0.0399
      4 C           0.4233    1.4301   -1.5763 C.3     1  UNL1        0.0015
      5 S           2.0673    0.8800   -2.1520 S.3     1  UNL1       -0.1775
      6 C           1.1254    2.4210    0.6192 C.2     1  UNL1        0.2198
      7 O           2.2301    2.0569    1.0318 O.2     1  UNL1       -0.2753
      8 N           0.7578    3.7468    0.5954 N.am    1  UNL1       -0.2876
      9 C          -0.5330    4.3232    0.2854 C.3     1  UNL1        0.0156
     10 C          -0.1824    5.7497   -0.0869 C.3     1  UNL1       -0.0349
     11 C           0.9625    6.1112    0.8571 C.3     1  UNL1       -0.0223
     12 C           1.6204    4.7703    1.2269 C.3     1  UNL1        0.1272
     13 H           2.6263    4.6769    0.8037 H       1  UNL1        0.0618
     14 C           1.6963    4.7689    2.7862 C.2     1  UNL1        0.3760
     15 O           0.6578    4.3688    3.3901 O.co2   1  UNL1       -0.2443
     16 O           2.7618    5.2617    3.2659 O.co2   1  UNL1       -0.2443
     17 H          -0.1925   -0.7311   -0.0409 H       1  UNL1        0.0237
     18 H          -0.0527   -0.0004    1.5640 H       1  UNL1        0.0237
     19 H           1.3991   -0.3005    0.6131 H       1  UNL1        0.0237
     20 H          -0.3098    0.7754   -2.0608 H       1  UNL1        0.0381
     21 H           0.2685    2.4358   -1.9790 H       1  UNL1        0.0381
     22 H           2.7811    1.7238   -1.3818 H       1  UNL1        0.1017
     23 H          -1.1539    4.2824    1.1878 H       1  UNL1        0.0465
     24 H          -1.0473    3.7987   -0.5213 H       1  UNL1        0.0465
     25 H           0.1790    5.7862   -1.1242 H       1  UNL1        0.0281
     26 H          -1.0385    6.4312    0.0003 H       1  UNL1        0.0281
     27 H           1.6786    6.7790    0.3655 H       1  UNL1        0.0289
     28 H           0.5706    6.6478    1.7296 H       1  UNL1        0.0289
@<TRIPOS>BOND
     1     1    17    1
     2     1    18    1
     3     1    19    1
     4     2     4    1
     5     2     6    1
     6     4     5    1
     7     4    20    1
     8     4    21    1
     9     5    22    1
    10     6     7    2
    11     6     8   am
    12     8    12    1
    13     8     9    1
    14     9    10    1
    15     9    23    1
    16     9    24    1
    17    10    11    1
    18    10    25    1
    19    10    26    1
    20    11    12    1
    21    11    27    1
    22    11    28    1
    23    12    13    1
    24    12    14    1
    25    14    15   ar
    26    14    16   ar
    27     2     3    1
    28     2     1    1
