MODEL 1
REMARK VINA RESULT:      -5.4      0.000      0.000
REMARK  Name = *****
REMARK                            x       y       z     vdW  Elec       q    Type
REMARK                         _______ _______ _______ _____ _____    ______ ____
ROOT
ATOM      1  C   LIG    1       23.616 -21.464   6.900  0.00  0.00    +0.406 C 
ATOM      2  F   LIG    1       22.799 -22.432   7.413  0.00  0.00    -0.205 F 
ENDROOT
BRANCH   1   3
ATOM      3  C   LIG    1       22.939 -20.725   5.730  0.00  0.00    +0.446 C 
ATOM      4  F   LIG    1       21.850 -21.393   5.285  0.00  0.00    -0.165 F 
ATOM      5  F   LIG    1       23.788 -20.593   4.682  0.00  0.00    -0.165 F 
ATOM      6  F   LIG    1       22.548 -19.478   6.076  0.00  0.00    -0.165 F 
ENDBRANCH   1   3
BRANCH   1   7
ATOM      7  O   LIG    1       24.129 -20.707   7.978  0.00  0.00    -0.280 OA
BRANCH   7   9
ATOM      8  F   LIG    1       26.068 -20.102   7.079  0.00  0.00    -0.178 F 
ATOM      9  C   LIG    1       25.525 -20.828   8.083  0.00  0.00    +0.485 C 
ATOM     10  F   LIG    1       25.916 -20.246   9.244  0.00  0.00    -0.178 F 
ENDBRANCH   7   9
ENDBRANCH   1   7
TORSDOF 3
ENDMDL
MODEL 2
REMARK VINA RESULT:      -5.3      1.907      2.818
REMARK  Name = *****
REMARK                            x       y       z     vdW  Elec       q    Type
REMARK                         _______ _______ _______ _____ _____    ______ ____
ROOT
ATOM      1  C   LIG    1       23.776 -20.851   5.927  0.00  0.00    +0.406 C 
ATOM      2  F   LIG    1       25.030 -20.351   5.711  0.00  0.00    -0.205 F 
ENDROOT
BRANCH   1   3
ATOM      3  C   LIG    1       22.722 -20.091   5.101  0.00  0.00    +0.446 C 
ATOM      4  F   LIG    1       21.647 -20.868   4.833  0.00  0.00    -0.165 F 
ATOM      5  F   LIG    1       23.234 -19.688   3.912  0.00  0.00    -0.165 F 
ATOM      6  F   LIG    1       22.283 -18.981   5.735  0.00  0.00    -0.165 F 
ENDBRANCH   1   3
BRANCH   1   7
ATOM      7  O   LIG    1       23.843 -22.260   5.816  0.00  0.00    -0.280 OA
BRANCH   7   9
ATOM      8  F   LIG    1       22.930 -21.931   7.814  0.00  0.00    -0.178 F 
ATOM      9  C   LIG    1       23.384 -22.897   6.982  0.00  0.00    +0.485 C 
ATOM     10  F   LIG    1       22.317 -23.666   6.653  0.00  0.00    -0.178 F 
ENDBRANCH   7   9
ENDBRANCH   1   7
TORSDOF 3
ENDMDL
MODEL 3
REMARK VINA RESULT:      -5.3      2.175      3.401
REMARK  Name = *****
REMARK                            x       y       z     vdW  Elec       q    Type
REMARK                         _______ _______ _______ _____ _____    ______ ____
ROOT
ATOM      1  C   LIG    1       23.157 -22.813   6.823  0.00  0.00    +0.406 C 
ATOM      2  F   LIG    1       22.096 -23.672   6.890  0.00  0.00    -0.205 F 
ENDROOT
BRANCH   1   3
ATOM      3  C   LIG    1       24.486 -23.579   6.679  0.00  0.00    +0.446 C 
ATOM      4  F   LIG    1       24.303 -24.915   6.782  0.00  0.00    -0.165 F 
ATOM      5  F   LIG    1       25.363 -23.216   7.647  0.00  0.00    -0.165 F 
ATOM      6  F   LIG    1       25.088 -23.334   5.493  0.00  0.00    -0.165 F 
ENDBRANCH   1   3
BRANCH   1   7
ATOM      7  O   LIG    1       22.846 -21.807   5.879  0.00  0.00    -0.280 OA
BRANCH   7   9
ATOM      8  F   LIG    1       22.457 -19.620   5.855  0.00  0.00    -0.178 F 
ATOM      9  C   LIG    1       23.345 -20.553   6.271  0.00  0.00    +0.485 C 
ATOM     10  F   LIG    1       23.357 -20.506   7.626  0.00  0.00    -0.178 F 
ENDBRANCH   7   9
ENDBRANCH   1   7
TORSDOF 3
ENDMDL
MODEL 4
REMARK VINA RESULT:      -5.3      1.908      2.868
REMARK  Name = *****
REMARK                            x       y       z     vdW  Elec       q    Type
REMARK                         _______ _______ _______ _____ _____    ______ ____
ROOT
ATOM      1  C   LIG    1       23.085 -21.476   6.512  0.00  0.00    +0.406 C 
ATOM      2  F   LIG    1       23.248 -20.596   7.546  0.00  0.00    -0.205 F 
ENDROOT
BRANCH   1   3
ATOM      3  C   LIG    1       22.543 -20.767   5.257  0.00  0.00    +0.446 C 
ATOM      4  F   LIG    1       23.414 -20.851   4.225  0.00  0.00    -0.165 F 
ATOM      5  F   LIG    1       22.327 -19.451   5.497  0.00  0.00    -0.165 F 
ATOM      6  F   LIG    1       21.365 -21.289   4.848  0.00  0.00    -0.165 F 
ENDBRANCH   1   3
BRANCH   1   7
ATOM      7  O   LIG    1       24.266 -22.246   6.403  0.00  0.00    -0.280 OA
BRANCH   7   9
ATOM      8  F   LIG    1       24.911 -24.213   7.209  0.00  0.00    -0.178 F 
ATOM      9  C   LIG    1       23.992 -23.625   6.408  0.00  0.00    +0.485 C 
ATOM     10  F   LIG    1       22.783 -23.814   6.992  0.00  0.00    -0.178 F 
ENDBRANCH   7   9
ENDBRANCH   1   7
TORSDOF 3
ENDMDL
MODEL 5
REMARK VINA RESULT:      -5.3      2.325      3.595
REMARK  Name = *****
REMARK                            x       y       z     vdW  Elec       q    Type
REMARK                         _______ _______ _______ _____ _____    ______ ____
ROOT
ATOM      1  C   LIG    1       23.338 -22.995   6.744  0.00  0.00    +0.406 C 
ATOM      2  F   LIG    1       22.119 -23.580   6.936  0.00  0.00    -0.205 F 
ENDROOT
BRANCH   1   3
ATOM      3  C   LIG    1       24.434 -24.051   6.508  0.00  0.00    +0.446 C 
ATOM      4  F   LIG    1       24.980 -23.933   5.276  0.00  0.00    -0.165 F 
ATOM      5  F   LIG    1       23.929 -25.305   6.607  0.00  0.00    -0.165 F 
ATOM      6  F   LIG    1       25.432 -23.958   7.414  0.00  0.00    -0.165 F 
ENDBRANCH   1   3
BRANCH   1   7
ATOM      7  O   LIG    1       23.179 -21.955   5.797  0.00  0.00    -0.280 OA
BRANCH   7   9
ATOM      8  F   LIG    1       22.498 -19.843   5.888  0.00  0.00    -0.178 F 
ATOM      9  C   LIG    1       23.439 -20.694   6.359  0.00  0.00    +0.485 C 
ATOM     10  F   LIG    1       23.254 -20.781   7.700  0.00  0.00    -0.178 F 
ENDBRANCH   7   9
ENDBRANCH   1   7
TORSDOF 3
ENDMDL
MODEL 6
REMARK VINA RESULT:      -5.2      1.989      2.975
REMARK  Name = *****
REMARK                            x       y       z     vdW  Elec       q    Type
REMARK                         _______ _______ _______ _____ _____    ______ ____
ROOT
ATOM      1  C   LIG    1       22.692 -21.725   5.689  0.00  0.00    +0.406 C 
ATOM      2  F   LIG    1       21.468 -21.560   5.102  0.00  0.00    -0.205 F 
ENDROOT
BRANCH   1   3
ATOM      3  C   LIG    1       23.237 -20.389   6.227  0.00  0.00    +0.446 C 
ATOM      4  F   LIG    1       22.454 -19.349   5.858  0.00  0.00    -0.165 F 
ATOM      5  F   LIG    1       24.482 -20.145   5.751  0.00  0.00    -0.165 F 
ATOM      6  F   LIG    1       23.325 -20.383   7.576  0.00  0.00    -0.165 F 
ENDBRANCH   1   3
BRANCH   1   7
ATOM      7  O   LIG    1       22.610 -22.831   6.567  0.00  0.00    -0.280 OA
BRANCH   7   9
ATOM      8  F   LIG    1       24.593 -23.175   7.505  0.00  0.00    -0.178 F 
ATOM      9  C   LIG    1       23.774 -23.618   6.524  0.00  0.00    +0.485 C 
ATOM     10  F   LIG    1       23.435 -24.892   6.839  0.00  0.00    -0.178 F 
ENDBRANCH   7   9
ENDBRANCH   1   7
TORSDOF 3
ENDMDL
MODEL 7
REMARK VINA RESULT:      -5.2      1.764      2.304
REMARK  Name = *****
REMARK                            x       y       z     vdW  Elec       q    Type
REMARK                         _______ _______ _______ _____ _____    ______ ____
ROOT
ATOM      1  C   LIG    1       24.088 -20.591   4.732  0.00  0.00    +0.406 C 
ATOM      2  F   LIG    1       23.817 -21.173   3.525  0.00  0.00    -0.205 F 
ENDROOT
BRANCH   1   3
ATOM      3  C   LIG    1       22.792 -20.189   5.461  0.00  0.00    +0.446 C 
ATOM      4  F   LIG    1       21.754 -20.976   5.098  0.00  0.00    -0.165 F 
ATOM      5  F   LIG    1       22.449 -18.910   5.171  0.00  0.00    -0.165 F 
ATOM      6  F   LIG    1       22.921 -20.265   6.804  0.00  0.00    -0.165 F 
ENDBRANCH   1   3
BRANCH   1   7
ATOM      7  O   LIG    1       25.026 -21.405   5.409  0.00  0.00    -0.280 OA
BRANCH   7   9
ATOM      8  F   LIG    1       26.289 -19.630   4.976  0.00  0.00    -0.178 F 
ATOM      9  C   LIG    1       26.146 -20.669   5.832  0.00  0.00    +0.485 C 
ATOM     10  F   LIG    1       25.871 -20.140   7.050  0.00  0.00    -0.178 F 
ENDBRANCH   7   9
ENDBRANCH   1   7
TORSDOF 3
ENDMDL
MODEL 8
REMARK VINA RESULT:      -5.2      2.215      3.645
REMARK  Name = *****
REMARK                            x       y       z     vdW  Elec       q    Type
REMARK                         _______ _______ _______ _____ _____    ______ ____
ROOT
ATOM      1  C   LIG    1       23.698 -22.041   5.566  0.00  0.00    +0.406 C 
ATOM      2  F   LIG    1       24.763 -22.605   4.922  0.00  0.00    -0.205 F 
ENDROOT
BRANCH   1   3
ATOM      3  C   LIG    1       23.447 -22.717   6.927  0.00  0.00    +0.446 C 
ATOM      4  F   LIG    1       22.539 -23.715   6.826  0.00  0.00    -0.165 F 
ATOM      5  F   LIG    1       22.969 -21.827   7.831  0.00  0.00    -0.165 F 
ATOM      6  F   LIG    1       24.579 -23.238   7.452  0.00  0.00    -0.165 F 
ENDBRANCH   1   3
BRANCH   1   7
ATOM      7  O   LIG    1       23.853 -20.636   5.522  0.00  0.00    -0.280 OA
BRANCH   7   9
ATOM      8  F   LIG    1       21.737 -20.926   4.913  0.00  0.00    -0.178 F 
ATOM      9  C   LIG    1       22.726 -20.004   4.970  0.00  0.00    +0.485 C 
ATOM     10  F   LIG    1       22.316 -19.041   5.833  0.00  0.00    -0.178 F 
ENDBRANCH   7   9
ENDBRANCH   1   7
TORSDOF 3
ENDMDL
MODEL 9
REMARK VINA RESULT:      -5.1      1.676      2.305
REMARK  Name = *****
REMARK                            x       y       z     vdW  Elec       q    Type
REMARK                         _______ _______ _______ _____ _____    ______ ____
ROOT
ATOM      1  C   LIG    1       24.053 -21.055   4.843  0.00  0.00    +0.406 C 
ATOM      2  F   LIG    1       24.562 -22.305   5.056  0.00  0.00    -0.205 F 
ENDROOT
BRANCH   1   3
ATOM      3  C   LIG    1       22.771 -20.827   5.665  0.00  0.00    +0.446 C 
ATOM      4  F   LIG    1       22.573 -19.513   5.922  0.00  0.00    -0.165 F 
ATOM      5  F   LIG    1       22.839 -21.466   6.859  0.00  0.00    -0.165 F 
ATOM      6  F   LIG    1       21.672 -21.296   5.033  0.00  0.00    -0.165 F 
ENDBRANCH   1   3
BRANCH   1   7
ATOM      7  O   LIG    1       25.113 -20.125   4.963  0.00  0.00    -0.280 OA
BRANCH   7   9
ATOM      8  F   LIG    1       27.229 -19.888   5.596  0.00  0.00    -0.178 F 
ATOM      9  C   LIG    1       26.088 -20.561   5.876  0.00  0.00    +0.485 C 
ATOM     10  F   LIG    1       25.704 -20.181   7.120  0.00  0.00    -0.178 F 
ENDBRANCH   7   9
ENDBRANCH   1   7
TORSDOF 3
ENDMDL
