MODEL 1
REMARK VINA RESULT:      -4.8      0.000      0.000
REMARK  Name = *****
REMARK                            x       y       z     vdW  Elec       q    Type
REMARK                         _______ _______ _______ _____ _____    ______ ____
ROOT
ATOM      1  C   LIG    1       26.483 -20.380   5.841  0.00  0.00    +0.002 C 
ENDROOT
BRANCH   1   2
ATOM      2  C   LIG    1       27.594 -20.635   6.870  0.00  0.00    +0.011 C 
BRANCH   2   3
ATOM      3  C   LIG    1       28.996 -20.347   6.335  0.00  0.00    +0.120 C 
BRANCH   3   5
ATOM      4  O   LIG    1       29.475 -18.085   7.048  0.00  0.00    -0.251 OA
ATOM      5  C   LIG    1       29.269 -18.879   6.142  0.00  0.00    +0.305 C 
BRANCH   5   6
ATOM      6  O   LIG    1       29.218 -18.494   4.840  0.00  0.00    -0.481 OA
ATOM      7  H   LIG    1       29.260 -17.532   4.711  0.00  0.00    +0.295 HD
ENDBRANCH   5   6
ENDBRANCH   3   5
ENDBRANCH   2   3
ENDBRANCH   1   2
BRANCH   1   8
ATOM      8  C   LIG    1       25.130 -20.892   6.359  0.00  0.00    +0.015 C 
BRANCH   8   9
ATOM      9  C   LIG    1       24.172 -21.359   5.249  0.00  0.00    +0.058 C 
ATOM     10  S   LIG    1       24.567 -20.651   3.618  0.00  0.00    -0.090 S 
ATOM     11  S   LIG    1       23.450 -18.945   3.802  0.00  0.00    -0.093 S 
ATOM     12  C   LIG    1       22.533 -19.425   5.289  0.00  0.00    +0.082 C 
ATOM     13  C   LIG    1       22.719 -20.926   5.504  0.00  0.00    +0.026 C 
ENDBRANCH   8   9
ENDBRANCH   1   8
TORSDOF 6
ENDMDL
MODEL 2
REMARK VINA RESULT:      -4.5      3.846      4.385
REMARK  Name = *****
REMARK                            x       y       z     vdW  Elec       q    Type
REMARK                         _______ _______ _______ _____ _____    ______ ____
ROOT
ATOM      1  C   LIG    1       25.663 -17.937   3.346  0.00  0.00    +0.002 C 
ENDROOT
BRANCH   1   2
ATOM      2  C   LIG    1       25.679 -16.403   3.310  0.00  0.00    +0.011 C 
BRANCH   2   3
ATOM      3  C   LIG    1       27.039 -15.800   3.657  0.00  0.00    +0.120 C 
BRANCH   3   5
ATOM      4  O   LIG    1       27.973 -13.574   3.499  0.00  0.00    -0.251 OA
ATOM      5  C   LIG    1       27.273 -14.455   3.023  0.00  0.00    +0.305 C 
BRANCH   5   6
ATOM      6  O   LIG    1       26.581 -14.282   1.867  0.00  0.00    -0.481 OA
ATOM      7  H   LIG    1       26.187 -15.098   1.517  0.00  0.00    +0.295 HD
ENDBRANCH   5   6
ENDBRANCH   3   5
ENDBRANCH   2   3
ENDBRANCH   1   2
BRANCH   1   8
ATOM      8  C   LIG    1       24.306 -18.459   3.844  0.00  0.00    +0.015 C 
BRANCH   8   9
ATOM      9  C   LIG    1       24.191 -19.993   3.852  0.00  0.00    +0.058 C 
ATOM     10  S   LIG    1       22.732 -20.596   4.762  0.00  0.00    -0.090 S 
ATOM     11  S   LIG    1       23.607 -20.697   6.610  0.00  0.00    -0.093 S 
ATOM     12  C   LIG    1       25.322 -20.472   6.070  0.00  0.00    +0.082 C 
ATOM     13  C   LIG    1       25.378 -20.669   4.556  0.00  0.00    +0.026 C 
ENDBRANCH   8   9
ENDBRANCH   1   8
TORSDOF 6
ENDMDL
MODEL 3
REMARK VINA RESULT:      -4.3      0.981      1.097
REMARK  Name = *****
REMARK                            x       y       z     vdW  Elec       q    Type
REMARK                         _______ _______ _______ _____ _____    ______ ____
ROOT
ATOM      1  C   LIG    1       25.707 -20.442   6.627  0.00  0.00    +0.002 C 
ENDROOT
BRANCH   1   2
ATOM      2  C   LIG    1       26.804 -21.461   6.963  0.00  0.00    +0.011 C 
BRANCH   2   3
ATOM      3  C   LIG    1       28.199 -20.844   7.062  0.00  0.00    +0.120 C 
BRANCH   3   5
ATOM      4  O   LIG    1       29.293 -18.958   6.013  0.00  0.00    -0.251 OA
ATOM      5  C   LIG    1       28.509 -19.892   5.938  0.00  0.00    +0.305 C 
BRANCH   5   6
ATOM      6  O   LIG    1       27.786 -20.139   4.815  0.00  0.00    -0.481 OA
ATOM      7  H   LIG    1       27.641 -21.083   4.638  0.00  0.00    +0.295 HD
ENDBRANCH   5   6
ENDBRANCH   3   5
ENDBRANCH   2   3
ENDBRANCH   1   2
BRANCH   1   8
ATOM      8  C   LIG    1       24.312 -21.052   6.834  0.00  0.00    +0.015 C 
BRANCH   8   9
ATOM      9  C   LIG    1       23.635 -21.518   5.533  0.00  0.00    +0.058 C 
ATOM     10  S   LIG    1       24.571 -21.066   4.037  0.00  0.00    -0.090 S 
ATOM     11  S   LIG    1       23.731 -19.219   3.758  0.00  0.00    -0.093 S 
ATOM     12  C   LIG    1       22.375 -19.397   4.948  0.00  0.00    +0.082 C 
ATOM     13  C   LIG    1       22.256 -20.873   5.322  0.00  0.00    +0.026 C 
ENDBRANCH   8   9
ENDBRANCH   1   8
TORSDOF 6
ENDMDL
MODEL 4
REMARK VINA RESULT:      -4.2      5.125      6.264
REMARK  Name = *****
REMARK                            x       y       z     vdW  Elec       q    Type
REMARK                         _______ _______ _______ _____ _____    ______ ____
ROOT
ATOM      1  C   LIG    1       25.477 -16.574   3.373  0.00  0.00    +0.002 C 
ENDROOT
BRANCH   1   2
ATOM      2  C   LIG    1       25.889 -18.050   3.290  0.00  0.00    +0.011 C 
BRANCH   2   3
ATOM      3  C   LIG    1       24.764 -19.017   3.659  0.00  0.00    +0.120 C 
BRANCH   3   5
ATOM      4  O   LIG    1       24.569 -21.298   4.442  0.00  0.00    -0.251 OA
ATOM      5  C   LIG    1       25.261 -20.308   4.252  0.00  0.00    +0.305 C 
BRANCH   5   6
ATOM      6  O   LIG    1       26.569 -20.261   4.613  0.00  0.00    -0.481 OA
ATOM      7  H   LIG    1       27.184 -20.206   3.863  0.00  0.00    +0.295 HD
ENDBRANCH   5   6
ENDBRANCH   3   5
ENDBRANCH   2   3
ENDBRANCH   1   2
BRANCH   1   8
ATOM      8  C   LIG    1       26.712 -15.659   3.337  0.00  0.00    +0.015 C 
BRANCH   8   9
ATOM      9  C   LIG    1       26.529 -14.332   4.094  0.00  0.00    +0.058 C 
ATOM     10  S   LIG    1       24.792 -13.986   4.521  0.00  0.00    -0.090 S 
ATOM     11  S   LIG    1       24.293 -13.013   2.789  0.00  0.00    -0.093 S 
ATOM     12  C   LIG    1       25.972 -12.821   2.136  0.00  0.00    +0.082 C 
ATOM     13  C   LIG    1       26.961 -13.114   3.263  0.00  0.00    +0.026 C 
ENDBRANCH   8   9
ENDBRANCH   1   8
TORSDOF 6
ENDMDL
MODEL 5
REMARK VINA RESULT:      -4.0      5.122      6.090
REMARK  Name = *****
REMARK                            x       y       z     vdW  Elec       q    Type
REMARK                         _______ _______ _______ _____ _____    ______ ____
ROOT
ATOM      1  C   LIG    1       25.555 -17.044   3.296  0.00  0.00    +0.002 C 
ENDROOT
BRANCH   1   2
ATOM      2  C   LIG    1       25.816 -18.554   3.384  0.00  0.00    +0.011 C 
BRANCH   2   3
ATOM      3  C   LIG    1       24.568 -19.368   3.723  0.00  0.00    +0.120 C 
BRANCH   3   5
ATOM      4  O   LIG    1       24.058 -21.517   4.712  0.00  0.00    -0.251 OA
ATOM      5  C   LIG    1       24.871 -20.636   4.476  0.00  0.00    +0.305 C 
BRANCH   5   6
ATOM      6  O   LIG    1       26.152 -20.696   4.925  0.00  0.00    -0.481 OA
ATOM      7  H   LIG    1       26.818 -20.484   4.251  0.00  0.00    +0.295 HD
ENDBRANCH   5   6
ENDBRANCH   3   5
ENDBRANCH   2   3
ENDBRANCH   1   2
BRANCH   1   8
ATOM      8  C   LIG    1       26.861 -16.252   3.464  0.00  0.00    +0.015 C 
BRANCH   8   9
ATOM      9  C   LIG    1       26.781 -14.800   2.962  0.00  0.00    +0.058 C 
ATOM     10  S   LIG    1       28.012 -13.705   3.739  0.00  0.00    -0.090 S 
ATOM     11  S   LIG    1       26.883 -13.159   5.358  0.00  0.00    -0.093 S 
ATOM     12  C   LIG    1       25.301 -13.825   4.774  0.00  0.00    +0.082 C 
ATOM     13  C   LIG    1       25.432 -14.138   3.285  0.00  0.00    +0.026 C 
ENDBRANCH   8   9
ENDBRANCH   1   8
TORSDOF 6
ENDMDL
MODEL 6
REMARK VINA RESULT:      -3.8      5.340      6.444
REMARK  Name = *****
REMARK                            x       y       z     vdW  Elec       q    Type
REMARK                         _______ _______ _______ _____ _____    ______ ____
ROOT
ATOM      1  C   LIG    1       26.176 -16.576   3.294  0.00  0.00    +0.002 C 
ENDROOT
BRANCH   1   2
ATOM      2  C   LIG    1       25.763 -18.054   3.280  0.00  0.00    +0.011 C 
BRANCH   2   3
ATOM      3  C   LIG    1       24.319 -18.287   3.723  0.00  0.00    +0.120 C 
BRANCH   3   5
ATOM      4  O   LIG    1       24.850 -20.626   4.047  0.00  0.00    -0.251 OA
ATOM      5  C   LIG    1       24.046 -19.709   4.134  0.00  0.00    +0.305 C 
BRANCH   5   6
ATOM      6  O   LIG    1       22.777 -19.901   4.580  0.00  0.00    -0.481 OA
ATOM      7  H   LIG    1       22.704 -19.968   5.546  0.00  0.00    +0.295 HD
ENDBRANCH   5   6
ENDBRANCH   3   5
ENDBRANCH   2   3
ENDBRANCH   1   2
BRANCH   1   8
ATOM      8  C   LIG    1       25.017 -15.689   3.776  0.00  0.00    +0.015 C 
BRANCH   8   9
ATOM      9  C   LIG    1       25.169 -14.204   3.401  0.00  0.00    +0.058 C 
ATOM     10  S   LIG    1       26.669 -13.861   2.426  0.00  0.00    -0.090 S 
ATOM     11  S   LIG    1       27.933 -13.545   4.006  0.00  0.00    -0.093 S 
ATOM     12  C   LIG    1       26.670 -13.458   5.303  0.00  0.00    +0.082 C 
ATOM     13  C   LIG    1       25.307 -13.296   4.634  0.00  0.00    +0.026 C 
ENDBRANCH   8   9
ENDBRANCH   1   8
TORSDOF 6
ENDMDL
MODEL 7
REMARK VINA RESULT:      -3.8      5.073      6.782
REMARK  Name = *****
REMARK                            x       y       z     vdW  Elec       q    Type
REMARK                         _______ _______ _______ _____ _____    ______ ____
ROOT
ATOM      1  C   LIG    1       22.575 -15.776   4.954  0.00  0.00    +0.002 C 
ENDROOT
BRANCH   1   2
ATOM      2  C   LIG    1       22.132 -17.207   4.623  0.00  0.00    +0.011 C 
BRANCH   2   3
ATOM      3  C   LIG    1       23.269 -18.095   4.120  0.00  0.00    +0.120 C 
BRANCH   3   5
ATOM      4  O   LIG    1       22.622 -19.862   5.641  0.00  0.00    -0.251 OA
ATOM      5  C   LIG    1       23.174 -19.516   4.607  0.00  0.00    +0.305 C 
BRANCH   5   6
ATOM      6  O   LIG    1       23.814 -20.401   3.799  0.00  0.00    -0.481 OA
ATOM      7  H   LIG    1       23.876 -21.298   4.167  0.00  0.00    +0.295 HD
ENDBRANCH   5   6
ENDBRANCH   3   5
ENDBRANCH   2   3
ENDBRANCH   1   2
BRANCH   1   8
ATOM      8  C   LIG    1       23.810 -15.381   4.130  0.00  0.00    +0.015 C 
BRANCH   8   9
ATOM      9  C   LIG    1       24.204 -13.899   4.264  0.00  0.00    +0.058 C 
ATOM     10  S   LIG    1       24.453 -13.077   2.658  0.00  0.00    -0.090 S 
ATOM     11  S   LIG    1       26.437 -13.537   2.441  0.00  0.00    -0.093 S 
ATOM     12  C   LIG    1       26.724 -14.135   4.128  0.00  0.00    +0.082 C 
ATOM     13  C   LIG    1       25.542 -13.708   4.996  0.00  0.00    +0.026 C 
ENDBRANCH   8   9
ENDBRANCH   1   8
TORSDOF 6
ENDMDL
MODEL 8
REMARK VINA RESULT:      -3.7      4.224      5.480
REMARK  Name = *****
REMARK                            x       y       z     vdW  Elec       q    Type
REMARK                         _______ _______ _______ _____ _____    ______ ____
ROOT
ATOM      1  C   LIG    1       22.506 -16.863   4.503  0.00  0.00    +0.002 C 
ENDROOT
BRANCH   1   2
ATOM      2  C   LIG    1       22.909 -15.407   4.776  0.00  0.00    +0.011 C 
BRANCH   2   3
ATOM      3  C   LIG    1       24.164 -14.972   4.021  0.00  0.00    +0.120 C 
BRANCH   3   5
ATOM      4  O   LIG    1       23.922 -12.565   4.084  0.00  0.00    -0.251 OA
ATOM      5  C   LIG    1       24.586 -13.561   4.333  0.00  0.00    +0.305 C 
BRANCH   5   6
ATOM      6  O   LIG    1       25.823 -13.484   4.888  0.00  0.00    -0.481 OA
ATOM      7  H   LIG    1       26.495 -13.096   4.303  0.00  0.00    +0.295 HD
ENDBRANCH   5   6
ENDBRANCH   3   5
ENDBRANCH   2   3
ENDBRANCH   1   2
BRANCH   1   8
ATOM      8  C   LIG    1       23.726 -17.700   4.088  0.00  0.00    +0.015 C 
BRANCH   8   9
ATOM      9  C   LIG    1       23.397 -19.169   3.768  0.00  0.00    +0.058 C 
ATOM     10  S   LIG    1       22.623 -20.049   5.163  0.00  0.00    -0.090 S 
ATOM     11  S   LIG    1       24.352 -20.678   6.060  0.00  0.00    -0.093 S 
ATOM     12  C   LIG    1       25.483 -20.264   4.706  0.00  0.00    +0.082 C 
ATOM     13  C   LIG    1       24.652 -19.998   3.452  0.00  0.00    +0.026 C 
ENDBRANCH   8   9
ENDBRANCH   1   8
TORSDOF 6
ENDMDL
MODEL 9
REMARK VINA RESULT:      -3.6      5.220      6.885
REMARK  Name = *****
REMARK                            x       y       z     vdW  Elec       q    Type
REMARK                         _______ _______ _______ _____ _____    ______ ____
ROOT
ATOM      1  C   LIG    1       22.695 -16.235   4.794  0.00  0.00    +0.002 C 
ENDROOT
BRANCH   1   2
ATOM      2  C   LIG    1       22.928 -17.605   4.143  0.00  0.00    +0.011 C 
BRANCH   2   3
ATOM      3  C   LIG    1       22.183 -18.744   4.839  0.00  0.00    +0.120 C 
BRANCH   3   5
ATOM      4  O   LIG    1       24.185 -20.104   4.857  0.00  0.00    -0.251 OA
ATOM      5  C   LIG    1       22.965 -20.030   4.876  0.00  0.00    +0.305 C 
BRANCH   5   6
ATOM      6  O   LIG    1       22.175 -21.135   4.885  0.00  0.00    -0.481 OA
ATOM      7  H   LIG    1       22.071 -21.540   5.762  0.00  0.00    +0.295 HD
ENDBRANCH   5   6
ENDBRANCH   3   5
ENDBRANCH   2   3
ENDBRANCH   1   2
BRANCH   1   8
ATOM      8  C   LIG    1       23.166 -15.103   3.868  0.00  0.00    +0.015 C 
BRANCH   8   9
ATOM      9  C   LIG    1       24.286 -14.233   4.465  0.00  0.00    +0.058 C 
ATOM     10  S   LIG    1       24.053 -12.453   4.154  0.00  0.00    -0.090 S 
ATOM     11  S   LIG    1       25.019 -12.380   2.350  0.00  0.00    -0.093 S 
ATOM     12  C   LIG    1       25.772 -14.027   2.421  0.00  0.00    +0.082 C 
ATOM     13  C   LIG    1       25.662 -14.543   3.854  0.00  0.00    +0.026 C 
ENDBRANCH   8   9
ENDBRANCH   1   8
TORSDOF 6
ENDMDL
