MODEL 1
REMARK VINA RESULT:      -6.0      0.000      0.000
REMARK  Name = *****
REMARK                            x       y       z     vdW  Elec       q    Type
REMARK                         _______ _______ _______ _____ _____    ______ ____
ROOT
ATOM      1  C   LIG    1       25.609 -30.523   5.322  0.00  0.00    +0.007 C 
ENDROOT
BRANCH   1   2
ATOM      2  C   LIG    1       25.879 -31.964   5.780  0.00  0.00    +0.041 C 
BRANCH   2   3
ATOM      3  C   LIG    1       25.479 -32.305   7.219  0.00  0.00    +0.232 C 
BRANCH   3   4
ATOM      4  O   LIG    1       26.352 -31.552   8.090  0.00  0.00    -0.465 OA
BRANCH   4   5
ATOM      5  C   LIG    1       26.122 -31.520   9.396  0.00  0.00    +0.312 C 
ATOM      6  O   LIG    1       26.632 -32.305  10.267  0.00  0.00    -0.251 OA
BRANCH   5   7
ATOM      7  C   LIG    1       24.954 -30.605   9.693  0.00  0.00    +0.171 C 
BRANCH   7   8
ATOM      8  C   LIG    1       25.326 -29.512  10.690  0.00  0.00    +0.145 C 
BRANCH   8   9
ATOM      9  N   LIG    1       24.650 -29.681  12.088  0.00  0.00    +0.247 N 
ATOM     10  C   LIG    1       23.404 -30.523  11.791  0.00  0.00    +0.193 C 
ATOM     11  C   LIG    1       24.339 -28.301  12.854  0.00  0.00    +0.102 C 
ATOM     12  C   LIG    1       25.603 -27.577  13.310  0.00  0.00    +0.008 A 
ATOM     13  C   LIG    1       26.683 -28.317  13.766  0.00  0.00    -0.030 A 
ATOM     14  C   LIG    1       27.694 -27.671  14.485  0.00  0.00    +0.053 A 
ATOM     15  C   LIG    1       27.738 -26.279  14.672  0.00  0.00    +0.162 A 
ATOM     16  C   LIG    1       26.698 -25.509  14.134  0.00  0.00    +0.162 A 
ATOM     17  C   LIG    1       26.843 -29.777  13.456  0.00  0.00    +0.086 C 
ATOM     18  C   LIG    1       25.640 -26.173  13.479  0.00  0.00    +0.059 A 
ATOM     19  C   LIG    1       25.576 -30.511  13.014  0.00  0.00    +0.138 C 
BRANCH  15  20
ATOM     20  O   LIG    1       28.724 -25.708  15.427  0.00  0.00    -0.491 OA
ATOM     21  C   LIG    1       30.000 -26.363  15.460  0.00  0.00    +0.277 C 
ENDBRANCH  15  20
BRANCH  16  22
ATOM     22  O   LIG    1       26.480 -24.160  14.250  0.00  0.00    -0.491 OA
ATOM     23  C   LIG    1       25.398 -23.694  15.049  0.00  0.00    +0.277 C 
ENDBRANCH  16  22
BRANCH  11  24
ATOM     24  C   LIG    1       23.448 -28.532  14.134  0.00  0.00    +0.095 C 
BRANCH  24  25
ATOM     25  C   LIG    1       22.003 -28.092  13.978  0.00  0.00    -0.038 A 
ATOM     26  C   LIG    1       20.926 -28.985  14.136  0.00  0.00    +0.053 A 
ATOM     27  C   LIG    1       19.582 -28.554  14.065  0.00  0.00    +0.162 A 
ATOM     28  C   LIG    1       19.316 -27.190  13.864  0.00  0.00    +0.162 A 
ATOM     29  C   LIG    1       20.402 -26.316  13.710  0.00  0.00    +0.050 A 
ATOM     30  C   LIG    1       21.719 -26.759  13.717  0.00  0.00    +0.007 A 
BRANCH  28  31
ATOM     31  O   LIG    1       18.030 -26.713  13.805  0.00  0.00    -0.491 OA
ATOM     32  C   LIG    1       17.291 -26.755  15.029  0.00  0.00    +0.277 C 
ENDBRANCH  28  31
BRANCH  27  33
ATOM     33  O   LIG    1       18.696 -29.599  14.109  0.00  0.00    -0.491 OA
ATOM     34  C   LIG    1       19.031 -30.823  13.471  0.00  0.00    +0.277 C 
ENDBRANCH  27  33
ENDBRANCH  24  25
ENDBRANCH  11  24
ENDBRANCH   8   9
ENDBRANCH   7   8
ENDBRANCH   5   7
ENDBRANCH   4   5
ENDBRANCH   3   4
ENDBRANCH   2   3
ENDBRANCH   1   2
BRANCH   1  35
ATOM     35  C   LIG    1       24.406 -29.782   5.908  0.00  0.00    +0.041 C 
BRANCH  35  36
ATOM     36  C   LIG    1       24.251 -28.308   5.570  0.00  0.00    +0.232 C 
BRANCH  36  37
ATOM     37  O   LIG    1       25.490 -27.725   5.195  0.00  0.00    -0.465 OA
BRANCH  37  38
ATOM     38  C   LIG    1       25.768 -26.605   5.920  0.00  0.00    +0.312 C 
ATOM     39  O   LIG    1       26.385 -26.553   6.948  0.00  0.00    -0.251 OA
BRANCH  38  40
ATOM     40  C   LIG    1       25.007 -25.449   5.325  0.00  0.00    +0.171 C 
BRANCH  40  41
ATOM     41  C   LIG    1       25.603 -24.069   5.643  0.00  0.00    +0.145 C 
BRANCH  41  43
ATOM     42  C   LIG    1       24.888 -21.633   6.123  0.00  0.00    +0.102 C 
ATOM     43  N   LIG    1       24.777 -23.142   6.610  0.00  0.00    +0.247 N 
ATOM     44  C   LIG    1       23.313 -23.515   6.537  0.00  0.00    +0.193 C 
ATOM     45  C   LIG    1       25.258 -23.253   8.071  0.00  0.00    +0.138 C 
ATOM     46  C   LIG    1       26.619 -22.607   8.371  0.00  0.00    +0.086 C 
ATOM     47  C   LIG    1       27.030 -21.459   7.491  0.00  0.00    -0.030 A 
ATOM     48  C   LIG    1       28.252 -20.796   7.722  0.00  0.00    +0.053 A 
ATOM     49  C   LIG    1       28.740 -19.826   6.826  0.00  0.00    +0.162 A 
ATOM     50  C   LIG    1       27.993 -19.512   5.685  0.00  0.00    +0.162 A 
ATOM     51  C   LIG    1       26.807 -20.200   5.442  0.00  0.00    +0.059 A 
ATOM     52  C   LIG    1       26.282 -21.112   6.364  0.00  0.00    +0.008 A 
BRANCH  50  53
ATOM     53  O   LIG    1       28.449 -18.543   4.843  0.00  0.00    -0.491 OA
ATOM     54  C   LIG    1       27.507 -17.740   4.153  0.00  0.00    +0.277 C 
ENDBRANCH  50  53
BRANCH  49  55
ATOM     55  O   LIG    1       29.926 -19.251   7.196  0.00  0.00    -0.491 OA
ATOM     56  C   LIG    1       29.992 -18.585   8.459  0.00  0.00    +0.277 C 
ENDBRANCH  49  55
BRANCH  42  57
ATOM     57  C   LIG    1       23.757 -20.707   6.738  0.00  0.00    +0.095 C 
BRANCH  57  61
ATOM     58  C   LIG    1       21.275 -18.507   3.850  0.00  0.00    +0.162 A 
ATOM     59  C   LIG    1       22.054 -17.798   4.778  0.00  0.00    +0.162 A 
ATOM     60  C   LIG    1       22.793 -18.532   5.762  0.00  0.00    +0.053 A 
ATOM     61  C   LIG    1       22.815 -19.938   5.821  0.00  0.00    -0.038 A 
ATOM     62  C   LIG    1       22.053 -20.601   4.873  0.00  0.00    +0.007 A 
ATOM     63  C   LIG    1       21.278 -19.906   3.944  0.00  0.00    +0.050 A 
BRANCH  58  65
ATOM     64  C   LIG    1       19.032 -18.586   2.870  0.00  0.00    +0.277 C 
ATOM     65  O   LIG    1       20.374 -18.129   2.894  0.00  0.00    -0.491 OA
ENDBRANCH  58  65
BRANCH  59  66
ATOM     66  O   LIG    1       22.254 -16.457   4.981  0.00  0.00    -0.491 OA
ATOM     67  C   LIG    1       23.047 -15.723   4.076  0.00  0.00    +0.277 C 
ENDBRANCH  59  66
ENDBRANCH  57  61
ENDBRANCH  42  57
ENDBRANCH  41  43
ENDBRANCH  40  41
ENDBRANCH  38  40
ENDBRANCH  37  38
ENDBRANCH  36  37
ENDBRANCH  35  36
ENDBRANCH   1  35
TORSDOF 26
ENDMDL
MODEL 2
REMARK VINA RESULT:      -5.8      1.559      2.452
REMARK  Name = *****
REMARK                            x       y       z     vdW  Elec       q    Type
REMARK                         _______ _______ _______ _____ _____    ______ ____
ROOT
ATOM      1  C   LIG    1       25.619 -30.444   5.274  0.00  0.00    +0.007 C 
ENDROOT
BRANCH   1   2
ATOM      2  C   LIG    1       25.551 -31.963   5.054  0.00  0.00    +0.041 C 
BRANCH   2   3
ATOM      3  C   LIG    1       25.590 -32.833   6.315  0.00  0.00    +0.232 C 
BRANCH   3   4
ATOM      4  O   LIG    1       26.659 -32.326   7.144  0.00  0.00    -0.465 OA
BRANCH   4   5
ATOM      5  C   LIG    1       26.485 -32.208   8.454  0.00  0.00    +0.312 C 
ATOM      6  O   LIG    1       27.408 -32.237   9.339  0.00  0.00    -0.251 OA
BRANCH   5   7
ATOM      7  C   LIG    1       25.014 -32.313   8.791  0.00  0.00    +0.171 C 
BRANCH   7   8
ATOM      8  C   LIG    1       24.579 -31.236   9.781  0.00  0.00    +0.145 C 
BRANCH   8   9
ATOM      9  N   LIG    1       23.926 -31.806  11.081  0.00  0.00    +0.247 N 
ATOM     10  C   LIG    1       23.428 -33.193  10.661  0.00  0.00    +0.193 C 
ATOM     11  C   LIG    1       22.787 -30.869  11.724  0.00  0.00    +0.102 C 
ATOM     12  C   LIG    1       23.343 -29.574  12.310  0.00  0.00    +0.008 A 
ATOM     13  C   LIG    1       24.574 -29.591  12.946  0.00  0.00    -0.030 A 
ATOM     14  C   LIG    1       24.931 -28.511  13.762  0.00  0.00    +0.053 A 
ATOM     15  C   LIG    1       24.156 -27.345  13.880  0.00  0.00    +0.162 A 
ATOM     16  C   LIG    1       22.952 -27.279  13.166  0.00  0.00    +0.162 A 
ATOM     17  C   LIG    1       25.571 -30.693  12.738  0.00  0.00    +0.086 C 
ATOM     18  C   LIG    1       22.558 -28.402  12.409  0.00  0.00    +0.059 A 
ATOM     19  C   LIG    1       25.016 -31.999  12.167  0.00  0.00    +0.138 C 
BRANCH  15  20
ATOM     20  O   LIG    1       24.529 -26.343  14.732  0.00  0.00    -0.491 OA
ATOM     21  C   LIG    1       25.118 -25.168  14.157  0.00  0.00    +0.277 C 
ENDBRANCH  15  20
BRANCH  16  22
ATOM     22  O   LIG    1       21.998 -26.294  13.181  0.00  0.00    -0.491 OA
ATOM     23  C   LIG    1       20.656 -26.626  13.522  0.00  0.00    +0.277 C 
ENDBRANCH  16  22
BRANCH  11  24
ATOM     24  C   LIG    1       22.009 -31.607  12.881  0.00  0.00    +0.095 C 
BRANCH  24  25
ATOM     25  C   LIG    1       20.538 -31.244  12.976  0.00  0.00    -0.038 A 
ATOM     26  C   LIG    1       19.591 -31.699  12.039  0.00  0.00    +0.053 A 
ATOM     27  C   LIG    1       18.212 -31.422  12.176  0.00  0.00    +0.162 A 
ATOM     28  C   LIG    1       17.772 -30.700  13.297  0.00  0.00    +0.162 A 
ATOM     29  C   LIG    1       18.731 -30.257  14.221  0.00  0.00    +0.050 A 
ATOM     30  C   LIG    1       20.090 -30.479  14.044  0.00  0.00    +0.007 A 
BRANCH  28  31
ATOM     31  O   LIG    1       16.443 -30.419  13.491  0.00  0.00    -0.491 OA
ATOM     32  C   LIG    1       15.778 -31.195  14.491  0.00  0.00    +0.277 C 
ENDBRANCH  28  31
BRANCH  27  33
ATOM     33  O   LIG    1       17.487 -31.836  11.089  0.00  0.00    -0.491 OA
ATOM     34  C   LIG    1       17.907 -31.459   9.786  0.00  0.00    +0.277 C 
ENDBRANCH  27  33
ENDBRANCH  24  25
ENDBRANCH  11  24
ENDBRANCH   8   9
ENDBRANCH   7   8
ENDBRANCH   5   7
ENDBRANCH   4   5
ENDBRANCH   3   4
ENDBRANCH   2   3
ENDBRANCH   1   2
BRANCH   1  35
ATOM     35  C   LIG    1       24.529 -29.775   6.112  0.00  0.00    +0.041 C 
BRANCH  35  36
ATOM     36  C   LIG    1       24.400 -28.263   6.027  0.00  0.00    +0.232 C 
BRANCH  36  37
ATOM     37  O   LIG    1       25.176 -27.732   4.964  0.00  0.00    -0.465 OA
BRANCH  37  38
ATOM     38  C   LIG    1       25.861 -26.615   5.339  0.00  0.00    +0.312 C 
ATOM     39  O   LIG    1       27.028 -26.548   5.609  0.00  0.00    -0.251 OA
BRANCH  38  40
ATOM     40  C   LIG    1       24.873 -25.497   5.552  0.00  0.00    +0.171 C 
BRANCH  40  41
ATOM     41  C   LIG    1       25.516 -24.122   5.795  0.00  0.00    +0.145 C 
BRANCH  41  43
ATOM     42  C   LIG    1       24.863 -21.649   6.155  0.00  0.00    +0.102 C 
ATOM     43  N   LIG    1       24.735 -23.126   6.728  0.00  0.00    +0.247 N 
ATOM     44  C   LIG    1       23.262 -23.471   6.714  0.00  0.00    +0.193 C 
ATOM     45  C   LIG    1       25.252 -23.166   8.181  0.00  0.00    +0.138 C 
ATOM     46  C   LIG    1       26.632 -22.533   8.410  0.00  0.00    +0.086 C 
ATOM     47  C   LIG    1       27.044 -21.445   7.457  0.00  0.00    -0.030 A 
ATOM     48  C   LIG    1       28.283 -20.797   7.620  0.00  0.00    +0.053 A 
ATOM     49  C   LIG    1       28.767 -19.888   6.659  0.00  0.00    +0.162 A 
ATOM     50  C   LIG    1       27.997 -19.623   5.521  0.00  0.00    +0.162 A 
ATOM     51  C   LIG    1       26.792 -20.297   5.347  0.00  0.00    +0.059 A 
ATOM     52  C   LIG    1       26.273 -21.145   6.332  0.00  0.00    +0.008 A 
BRANCH  50  53
ATOM     53  O   LIG    1       28.450 -18.712   4.615  0.00  0.00    -0.491 OA
ATOM     54  C   LIG    1       28.425 -17.337   4.959  0.00  0.00    +0.277 C 
ENDBRANCH  50  53
BRANCH  49  55
ATOM     55  O   LIG    1       29.974 -19.319   6.966  0.00  0.00    -0.491 OA
ATOM     56  C   LIG    1       30.388 -19.303   8.334  0.00  0.00    +0.277 C 
ENDBRANCH  49  55
BRANCH  42  57
ATOM     57  C   LIG    1       23.767 -20.666   6.746  0.00  0.00    +0.095 C 
BRANCH  57  61
ATOM     58  C   LIG    1       21.267 -18.550   3.811  0.00  0.00    +0.162 A 
ATOM     59  C   LIG    1       22.004 -17.816   4.753  0.00  0.00    +0.162 A 
ATOM     60  C   LIG    1       22.748 -18.525   5.751  0.00  0.00    +0.053 A 
ATOM     61  C   LIG    1       22.817 -19.929   5.811  0.00  0.00    -0.038 A 
ATOM     62  C   LIG    1       22.096 -20.617   4.849  0.00  0.00    +0.007 A 
ATOM     63  C   LIG    1       21.316 -19.949   3.906  0.00  0.00    +0.050 A 
BRANCH  58  65
ATOM     64  C   LIG    1       19.019 -18.626   2.843  0.00  0.00    +0.277 C 
ATOM     65  O   LIG    1       20.372 -18.203   2.838  0.00  0.00    -0.491 OA
ENDBRANCH  58  65
BRANCH  59  66
ATOM     66  O   LIG    1       22.154 -16.469   4.960  0.00  0.00    -0.491 OA
ATOM     67  C   LIG    1       23.108 -15.749   4.212  0.00  0.00    +0.277 C 
ENDBRANCH  59  66
ENDBRANCH  57  61
ENDBRANCH  42  57
ENDBRANCH  41  43
ENDBRANCH  40  41
ENDBRANCH  38  40
ENDBRANCH  37  38
ENDBRANCH  36  37
ENDBRANCH  35  36
ENDBRANCH   1  35
TORSDOF 26
ENDMDL
MODEL 3
REMARK VINA RESULT:      -5.0      1.604     11.202
REMARK  Name = *****
REMARK                            x       y       z     vdW  Elec       q    Type
REMARK                         _______ _______ _______ _____ _____    ______ ____
ROOT
ATOM      1  C   LIG    1       25.711 -29.698   8.265  0.00  0.00    +0.007 C 
ENDROOT
BRANCH   1   2
ATOM      2  C   LIG    1       26.330 -28.384   8.764  0.00  0.00    +0.041 C 
BRANCH   2   3
ATOM      3  C   LIG    1       26.245 -27.189   7.810  0.00  0.00    +0.232 C 
BRANCH   3   4
ATOM      4  O   LIG    1       25.674 -27.674   6.574  0.00  0.00    -0.465 OA
BRANCH   4   5
ATOM      5  C   LIG    1       25.700 -26.916   5.487  0.00  0.00    +0.312 C 
ATOM      6  O   LIG    1       26.612 -26.920   4.590  0.00  0.00    -0.251 OA
BRANCH   5   7
ATOM      7  C   LIG    1       24.643 -25.837   5.583  0.00  0.00    +0.171 C 
BRANCH   7   8
ATOM      8  C   LIG    1       25.242 -24.441   5.445  0.00  0.00    +0.145 C 
BRANCH   8   9
ATOM      9  N   LIG    1       24.502 -23.354   6.290  0.00  0.00    +0.247 N 
ATOM     10  C   LIG    1       23.032 -23.783   6.228  0.00  0.00    +0.193 C 
ATOM     11  C   LIG    1       24.763 -21.841   5.811  0.00  0.00    +0.102 C 
ATOM     12  C   LIG    1       26.194 -21.376   6.065  0.00  0.00    +0.008 A 
ATOM     13  C   LIG    1       26.850 -21.792   7.213  0.00  0.00    -0.030 A 
ATOM     14  C   LIG    1       28.009 -21.119   7.614  0.00  0.00    +0.053 A 
ATOM     15  C   LIG    1       28.620 -20.112   6.849  0.00  0.00    +0.162 A 
ATOM     16  C   LIG    1       28.016 -19.747   5.638  0.00  0.00    +0.162 A 
ATOM     17  C   LIG    1       26.402 -22.984   8.006  0.00  0.00    +0.086 C 
ATOM     18  C   LIG    1       26.804 -20.372   5.277  0.00  0.00    +0.059 A 
ATOM     19  C   LIG    1       24.962 -23.445   7.767  0.00  0.00    +0.138 C 
BRANCH  15  20
ATOM     20  O   LIG    1       29.724 -19.454   7.315  0.00  0.00    -0.491 OA
ATOM     21  C   LIG    1       30.099 -19.672   8.683  0.00  0.00    +0.277 C 
ENDBRANCH  15  20
BRANCH  16  22
ATOM     22  O   LIG    1       28.374 -18.750   4.767  0.00  0.00    -0.491 OA
ATOM     23  C   LIG    1       29.173 -17.668   5.233  0.00  0.00    +0.277 C 
ENDBRANCH  16  22
BRANCH  11  24
ATOM     24  C   LIG    1       23.807 -20.824   6.545  0.00  0.00    +0.095 C 
BRANCH  24  25
ATOM     25  C   LIG    1       22.844 -20.095   5.625  0.00  0.00    -0.038 A 
ATOM     26  C   LIG    1       22.989 -18.729   5.317  0.00  0.00    +0.053 A 
ATOM     27  C   LIG    1       22.136 -18.075   4.399  0.00  0.00    +0.162 A 
ATOM     28  C   LIG    1       21.136 -18.819   3.752  0.00  0.00    +0.162 A 
ATOM     29  C   LIG    1       21.008 -20.179   4.071  0.00  0.00    +0.050 A 
ATOM     30  C   LIG    1       21.810 -20.798   5.022  0.00  0.00    +0.007 A 
BRANCH  28  31
ATOM     31  O   LIG    1       20.292 -18.240   2.838  0.00  0.00    -0.491 OA
ATOM     32  C   LIG    1       18.920 -18.632   2.918  0.00  0.00    +0.277 C 
ENDBRANCH  28  31
BRANCH  27  33
ATOM     33  O   LIG    1       22.362 -16.724   4.348  0.00  0.00    -0.491 OA
ATOM     34  C   LIG    1       22.189 -15.944   5.522  0.00  0.00    +0.277 C 
ENDBRANCH  27  33
ENDBRANCH  24  25
ENDBRANCH  11  24
ENDBRANCH   8   9
ENDBRANCH   7   8
ENDBRANCH   5   7
ENDBRANCH   4   5
ENDBRANCH   3   4
ENDBRANCH   2   3
ENDBRANCH   1   2
BRANCH   1  35
ATOM     35  C   LIG    1       24.192 -29.864   8.332  0.00  0.00    +0.041 C 
BRANCH  35  36
ATOM     36  C   LIG    1       23.630 -31.272   8.230  0.00  0.00    +0.232 C 
BRANCH  36  37
ATOM     37  O   LIG    1       22.579 -31.484   9.161  0.00  0.00    -0.465 OA
BRANCH  37  38
ATOM     38  C   LIG    1       22.459 -32.797   9.507  0.00  0.00    +0.312 C 
ATOM     39  O   LIG    1       21.951 -33.665   8.853  0.00  0.00    -0.251 OA
BRANCH  38  40
ATOM     40  C   LIG    1       22.897 -32.957  10.939  0.00  0.00    +0.171 C 
BRANCH  40  41
ATOM     41  C   LIG    1       23.220 -31.635  11.654  0.00  0.00    +0.145 C 
BRANCH  41  43
ATOM     42  C   LIG    1       22.599 -29.969  13.528  0.00  0.00    +0.102 C 
ATOM     43  N   LIG    1       22.759 -31.505  13.153  0.00  0.00    +0.247 N 
ATOM     44  C   LIG    1       21.395 -32.137  13.318  0.00  0.00    +0.193 C 
ATOM     45  C   LIG    1       23.751 -32.176  14.124  0.00  0.00    +0.138 C 
ATOM     46  C   LIG    1       25.088 -31.445  14.315  0.00  0.00    +0.086 C 
ATOM     47  C   LIG    1       25.082 -29.957  14.099  0.00  0.00    -0.030 A 
ATOM     48  C   LIG    1       26.264 -29.213  14.284  0.00  0.00    +0.053 A 
ATOM     49  C   LIG    1       26.332 -27.850  13.940  0.00  0.00    +0.162 A 
ATOM     50  C   LIG    1       25.201 -27.222  13.407  0.00  0.00    +0.162 A 
ATOM     51  C   LIG    1       24.049 -27.973  13.190  0.00  0.00    +0.059 A 
ATOM     52  C   LIG    1       23.953 -29.308  13.597  0.00  0.00    +0.008 A 
BRANCH  50  53
ATOM     53  O   LIG    1       25.260 -25.892  13.115  0.00  0.00    -0.491 OA
ATOM     54  C   LIG    1       24.937 -24.956  14.129  0.00  0.00    +0.277 C 
ENDBRANCH  50  53
BRANCH  49  55
ATOM     55  O   LIG    1       27.538 -27.254  14.200  0.00  0.00    -0.491 OA
ATOM     56  C   LIG    1       28.517 -27.995  14.929  0.00  0.00    +0.277 C 
ENDBRANCH  49  55
BRANCH  42  57
ATOM     57  C   LIG    1       21.726 -29.746  14.833  0.00  0.00    +0.095 C 
BRANCH  57  61
ATOM     58  C   LIG    1       17.970 -27.460  14.960  0.00  0.00    +0.162 A 
ATOM     59  C   LIG    1       17.929 -28.856  14.812  0.00  0.00    +0.162 A 
ATOM     60  C   LIG    1       19.164 -29.573  14.692  0.00  0.00    +0.053 A 
ATOM     61  C   LIG    1       20.426 -28.955  14.759  0.00  0.00    -0.038 A 
ATOM     62  C   LIG    1       20.425 -27.580  14.930  0.00  0.00    +0.007 A 
ATOM     63  C   LIG    1       19.235 -26.854  14.988  0.00  0.00    +0.050 A 
BRANCH  58  65
ATOM     64  C   LIG    1       15.928 -26.457  14.055  0.00  0.00    +0.277 C 
ATOM     65  O   LIG    1       17.012 -26.486  14.969  0.00  0.00    -0.491 OA
ENDBRANCH  58  65
BRANCH  59  66
ATOM     66  O   LIG    1       16.889 -29.743  14.722  0.00  0.00    -0.491 OA
ATOM     67  C   LIG    1       16.565 -30.316  13.476  0.00  0.00    +0.277 C 
ENDBRANCH  59  66
ENDBRANCH  57  61
ENDBRANCH  42  57
ENDBRANCH  41  43
ENDBRANCH  40  41
ENDBRANCH  38  40
ENDBRANCH  37  38
ENDBRANCH  36  37
ENDBRANCH  35  36
ENDBRANCH   1  35
TORSDOF 26
ENDMDL
MODEL 4
REMARK VINA RESULT:      -4.9      2.161     11.922
REMARK  Name = *****
REMARK                            x       y       z     vdW  Elec       q    Type
REMARK                         _______ _______ _______ _____ _____    ______ ____
ROOT
ATOM      1  C   LIG    1       24.617 -28.626   6.808  0.00  0.00    +0.007 C 
ENDROOT
BRANCH   1   2
ATOM      2  C   LIG    1       24.419 -27.459   5.829  0.00  0.00    +0.041 C 
BRANCH   2   3
ATOM      3  C   LIG    1       25.665 -26.995   5.067  0.00  0.00    +0.232 C 
BRANCH   3   4
ATOM      4  O   LIG    1       25.626 -25.551   5.033  0.00  0.00    -0.465 OA
BRANCH   4   5
ATOM      5  C   LIG    1       25.343 -24.868   6.134  0.00  0.00    +0.312 C 
ATOM      6  O   LIG    1       25.931 -24.988   7.264  0.00  0.00    -0.251 OA
BRANCH   5   7
ATOM      7  C   LIG    1       24.040 -24.120   5.958  0.00  0.00    +0.171 C 
BRANCH   7   8
ATOM      8  C   LIG    1       24.101 -23.136   4.793  0.00  0.00    +0.145 C 
BRANCH   8   9
ATOM      9  N   LIG    1       23.578 -21.708   5.149  0.00  0.00    +0.247 N 
ATOM     10  C   LIG    1       22.228 -21.624   4.428  0.00  0.00    +0.193 C 
ATOM     11  C   LIG    1       24.591 -20.512   4.782  0.00  0.00    +0.102 C 
ATOM     12  C   LIG    1       25.844 -20.507   5.653  0.00  0.00    +0.008 A 
ATOM     13  C   LIG    1       25.743 -20.855   6.991  0.00  0.00    -0.030 A 
ATOM     14  C   LIG    1       26.795 -20.536   7.856  0.00  0.00    +0.053 A 
ATOM     15  C   LIG    1       28.012 -19.985   7.420  0.00  0.00    +0.162 A 
ATOM     16  C   LIG    1       28.161 -19.715   6.053  0.00  0.00    +0.162 A 
ATOM     17  C   LIG    1       24.575 -21.625   7.534  0.00  0.00    +0.086 C 
ATOM     18  C   LIG    1       27.068 -19.964   5.197  0.00  0.00    +0.059 A 
ATOM     19  C   LIG    1       23.310 -21.619   6.673  0.00  0.00    +0.138 C 
BRANCH  15  20
ATOM     20  O   LIG    1       28.985 -19.647   8.318  0.00  0.00    -0.491 OA
ATOM     21  C   LIG    1       30.285 -20.226   8.138  0.00  0.00    +0.277 C 
ENDBRANCH  15  20
BRANCH  16  22
ATOM     22  O   LIG    1       29.209 -19.112   5.407  0.00  0.00    -0.491 OA
ATOM     23  C   LIG    1       29.224 -17.695   5.270  0.00  0.00    +0.277 C 
ENDBRANCH  16  22
BRANCH  11  24
ATOM     24  C   LIG    1       23.908 -19.100   4.942  0.00  0.00    +0.095 C 
BRANCH  24  25
ATOM     25  C   LIG    1       24.629 -17.972   4.226  0.00  0.00    -0.038 A 
ATOM     26  C   LIG    1       24.163 -16.644   4.257  0.00  0.00    +0.053 A 
ATOM     27  C   LIG    1       24.880 -15.586   3.653  0.00  0.00    +0.162 A 
ATOM     28  C   LIG    1       26.108 -15.866   3.033  0.00  0.00    +0.162 A 
ATOM     29  C   LIG    1       26.556 -17.195   3.012  0.00  0.00    +0.050 A 
ATOM     30  C   LIG    1       25.814 -18.237   3.552  0.00  0.00    +0.007 A 
BRANCH  28  31
ATOM     31  O   LIG    1       26.856 -14.875   2.447  0.00  0.00    -0.491 OA
ATOM     32  C   LIG    1       27.604 -14.045   3.339  0.00  0.00    +0.277 C 
ENDBRANCH  28  31
BRANCH  27  33
ATOM     33  O   LIG    1       24.188 -14.404   3.681  0.00  0.00    -0.491 OA
ATOM     34  C   LIG    1       23.235 -14.179   4.710  0.00  0.00    +0.277 C 
ENDBRANCH  27  33
ENDBRANCH  24  25
ENDBRANCH  11  24
ENDBRANCH   8   9
ENDBRANCH   7   8
ENDBRANCH   5   7
ENDBRANCH   4   5
ENDBRANCH   3   4
ENDBRANCH   2   3
ENDBRANCH   1   2
BRANCH   1  35
ATOM     35  C   LIG    1       24.316 -30.046   6.325  0.00  0.00    +0.041 C 
BRANCH  35  36
ATOM     36  C   LIG    1       25.495 -30.933   5.960  0.00  0.00    +0.232 C 
BRANCH  36  37
ATOM     37  O   LIG    1       26.279 -31.256   7.100  0.00  0.00    -0.465 OA
BRANCH  37  38
ATOM     38  C   LIG    1       26.782 -32.520   7.032  0.00  0.00    +0.312 C 
ATOM     39  O   LIG    1       27.769 -32.867   6.446  0.00  0.00    -0.251 OA
BRANCH  38  40
ATOM     40  C   LIG    1       25.788 -33.465   7.659  0.00  0.00    +0.171 C 
BRANCH  40  41
ATOM     41  C   LIG    1       25.576 -33.252   9.166  0.00  0.00    +0.145 C 
BRANCH  41  43
ATOM     42  C   LIG    1       24.386 -31.074   9.879  0.00  0.00    +0.102 C 
ATOM     43  N   LIG    1       24.202 -32.629   9.611  0.00  0.00    +0.247 N 
ATOM     44  C   LIG    1       23.201 -32.761   8.484  0.00  0.00    +0.193 C 
ATOM     45  C   LIG    1       23.637 -33.311  10.874  0.00  0.00    +0.138 C 
ATOM     46  C   LIG    1       24.375 -32.994  12.183  0.00  0.00    +0.086 C 
ATOM     47  C   LIG    1       25.089 -31.673  12.253  0.00  0.00    -0.030 A 
ATOM     48  C   LIG    1       25.764 -31.298  13.431  0.00  0.00    +0.053 A 
ATOM     49  C   LIG    1       26.571 -30.145  13.478  0.00  0.00    +0.162 A 
ATOM     50  C   LIG    1       26.701 -29.354  12.331  0.00  0.00    +0.162 A 
ATOM     51  C   LIG    1       26.063 -29.752  11.159  0.00  0.00    +0.059 A 
ATOM     52  C   LIG    1       25.203 -30.856  11.126  0.00  0.00    +0.008 A 
BRANCH  50  53
ATOM     53  O   LIG    1       27.449 -28.217  12.394  0.00  0.00    -0.491 OA
ATOM     54  C   LIG    1       26.785 -26.967  12.463  0.00  0.00    +0.277 C 
ENDBRANCH  50  53
BRANCH  49  55
ATOM     55  O   LIG    1       27.143 -29.896  14.697  0.00  0.00    -0.491 OA
ATOM     56  C   LIG    1       28.528 -30.199  14.871  0.00  0.00    +0.277 C 
ENDBRANCH  49  55
BRANCH  42  57
ATOM     57  C   LIG    1       23.008 -30.288   9.887  0.00  0.00    +0.095 C 
BRANCH  57  61
ATOM     58  C   LIG    1       20.495 -29.688  13.447  0.00  0.00    +0.162 A 
ATOM     59  C   LIG    1       21.616 -28.867  13.242  0.00  0.00    +0.162 A 
ATOM     60  C   LIG    1       22.467 -29.131  12.120  0.00  0.00    +0.053 A 
ATOM     61  C   LIG    1       22.214 -30.147  11.180  0.00  0.00    -0.038 A 
ATOM     62  C   LIG    1       21.086 -30.919  11.404  0.00  0.00    +0.007 A 
ATOM     63  C   LIG    1       20.276 -30.719  12.523  0.00  0.00    +0.050 A 
BRANCH  58  65
ATOM     64  C   LIG    1       18.474 -28.919  14.596  0.00  0.00    +0.277 C 
ATOM     65  O   LIG    1       19.580 -29.795  14.456  0.00  0.00    -0.491 OA
ENDBRANCH  58  65
BRANCH  59  66
ATOM     66  O   LIG    1       22.127 -27.811  13.950  0.00  0.00    -0.491 OA
ATOM     67  C   LIG    1       22.637 -26.690  13.263  0.00  0.00    +0.277 C 
ENDBRANCH  59  66
ENDBRANCH  57  61
ENDBRANCH  42  57
ENDBRANCH  41  43
ENDBRANCH  40  41
ENDBRANCH  38  40
ENDBRANCH  37  38
ENDBRANCH  36  37
ENDBRANCH  35  36
ENDBRANCH   1  35
TORSDOF 26
ENDMDL
MODEL 5
REMARK VINA RESULT:      -4.8      2.005     12.173
REMARK  Name = *****
REMARK                            x       y       z     vdW  Elec       q    Type
REMARK                         _______ _______ _______ _____ _____    ______ ____
ROOT
ATOM      1  C   LIG    1       24.399 -28.673   6.407  0.00  0.00    +0.007 C 
ENDROOT
BRANCH   1   2
ATOM      2  C   LIG    1       24.473 -27.497   5.421  0.00  0.00    +0.041 C 
BRANCH   2   3
ATOM      3  C   LIG    1       25.870 -26.929   5.147  0.00  0.00    +0.232 C 
BRANCH   3   4
ATOM      4  O   LIG    1       25.745 -25.489   5.136  0.00  0.00    -0.465 OA
BRANCH   4   5
ATOM      5  C   LIG    1       25.367 -24.847   6.232  0.00  0.00    +0.312 C 
ATOM      6  O   LIG    1       25.900 -24.958   7.390  0.00  0.00    -0.251 OA
BRANCH   5   7
ATOM      7  C   LIG    1       24.035 -24.167   6.000  0.00  0.00    +0.171 C 
BRANCH   7   8
ATOM      8  C   LIG    1       24.097 -23.174   4.843  0.00  0.00    +0.145 C 
BRANCH   8   9
ATOM      9  N   LIG    1       23.545 -21.757   5.202  0.00  0.00    +0.247 N 
ATOM     10  C   LIG    1       22.194 -21.700   4.481  0.00  0.00    +0.193 C 
ATOM     11  C   LIG    1       24.534 -20.541   4.837  0.00  0.00    +0.102 C 
ATOM     12  C   LIG    1       25.786 -20.512   5.708  0.00  0.00    +0.008 A 
ATOM     13  C   LIG    1       25.693 -20.864   7.045  0.00  0.00    -0.030 A 
ATOM     14  C   LIG    1       26.738 -20.526   7.911  0.00  0.00    +0.053 A 
ATOM     15  C   LIG    1       27.943 -19.950   7.477  0.00  0.00    +0.162 A 
ATOM     16  C   LIG    1       28.087 -19.674   6.110  0.00  0.00    +0.162 A 
ATOM     17  C   LIG    1       24.541 -21.658   7.587  0.00  0.00    +0.086 C 
ATOM     18  C   LIG    1       26.999 -19.943   5.253  0.00  0.00    +0.059 A 
ATOM     19  C   LIG    1       23.276 -21.677   6.726  0.00  0.00    +0.138 C 
BRANCH  15  20
ATOM     20  O   LIG    1       28.910 -19.594   8.375  0.00  0.00    -0.491 OA
ATOM     21  C   LIG    1       30.132 -20.345   8.369  0.00  0.00    +0.277 C 
ENDBRANCH  15  20
BRANCH  16  22
ATOM     22  O   LIG    1       29.123 -19.049   5.465  0.00  0.00    -0.491 OA
ATOM     23  C   LIG    1       28.955 -17.711   5.008  0.00  0.00    +0.277 C 
ENDBRANCH  16  22
BRANCH  11  24
ATOM     24  C   LIG    1       23.822 -19.143   5.000  0.00  0.00    +0.095 C 
BRANCH  24  25
ATOM     25  C   LIG    1       24.496 -18.008   4.250  0.00  0.00    -0.038 A 
ATOM     26  C   LIG    1       23.989 -16.694   4.263  0.00  0.00    +0.053 A 
ATOM     27  C   LIG    1       24.662 -15.627   3.626  0.00  0.00    +0.162 A 
ATOM     28  C   LIG    1       25.888 -15.880   2.991  0.00  0.00    +0.162 A 
ATOM     29  C   LIG    1       26.377 -17.195   2.989  0.00  0.00    +0.050 A 
ATOM     30  C   LIG    1       25.677 -18.249   3.562  0.00  0.00    +0.007 A 
BRANCH  28  31
ATOM     31  O   LIG    1       26.594 -14.879   2.373  0.00  0.00    -0.491 OA
ATOM     32  C   LIG    1       27.400 -14.063   3.227  0.00  0.00    +0.277 C 
ENDBRANCH  28  31
BRANCH  27  33
ATOM     33  O   LIG    1       23.933 -14.467   3.643  0.00  0.00    -0.491 OA
ATOM     34  C   LIG    1       24.026 -13.601   4.764  0.00  0.00    +0.277 C 
ENDBRANCH  27  33
ENDBRANCH  24  25
ENDBRANCH  11  24
ENDBRANCH   8   9
ENDBRANCH   7   8
ENDBRANCH   5   7
ENDBRANCH   4   5
ENDBRANCH   3   4
ENDBRANCH   2   3
ENDBRANCH   1   2
BRANCH   1  35
ATOM     35  C   LIG    1       24.190 -30.082   5.851  0.00  0.00    +0.041 C 
BRANCH  35  36
ATOM     36  C   LIG    1       25.426 -30.892   5.496  0.00  0.00    +0.232 C 
BRANCH  36  37
ATOM     37  O   LIG    1       26.069 -31.400   6.656  0.00  0.00    -0.465 OA
BRANCH  37  38
ATOM     38  C   LIG    1       25.724 -32.695   6.906  0.00  0.00    +0.312 C 
ATOM     39  O   LIG    1       25.110 -33.425   6.179  0.00  0.00    -0.251 OA
BRANCH  38  40
ATOM     40  C   LIG    1       26.070 -33.014   8.338  0.00  0.00    +0.171 C 
BRANCH  40  41
ATOM     41  C   LIG    1       25.223 -32.260   9.376  0.00  0.00    +0.145 C 
BRANCH  41  43
ATOM     42  C   LIG    1       25.667 -31.146  11.664  0.00  0.00    +0.102 C 
ATOM     43  N   LIG    1       25.903 -31.038  10.096  0.00  0.00    +0.247 N 
ATOM     44  C   LIG    1       27.399 -31.092   9.877  0.00  0.00    +0.193 C 
ATOM     45  C   LIG    1       25.363 -29.688   9.582  0.00  0.00    +0.138 C 
ATOM     46  C   LIG    1       23.931 -29.339  10.015  0.00  0.00    +0.086 C 
ATOM     47  C   LIG    1       23.452 -29.938  11.308  0.00  0.00    -0.030 A 
ATOM     48  C   LIG    1       22.161 -29.642  11.787  0.00  0.00    +0.053 A 
ATOM     49  C   LIG    1       21.624 -30.305  12.906  0.00  0.00    +0.162 A 
ATOM     50  C   LIG    1       22.392 -31.277  13.558  0.00  0.00    +0.162 A 
ATOM     51  C   LIG    1       23.651 -31.593  13.056  0.00  0.00    +0.059 A 
ATOM     52  C   LIG    1       24.218 -30.887  11.989  0.00  0.00    +0.008 A 
BRANCH  50  53
ATOM     53  O   LIG    1       21.884 -31.886  14.666  0.00  0.00    -0.491 OA
ATOM     54  C   LIG    1       21.721 -33.294  14.655  0.00  0.00    +0.277 C 
ENDBRANCH  50  53
BRANCH  49  55
ATOM     55  O   LIG    1       20.369 -29.894  13.269  0.00  0.00    -0.491 OA
ATOM     56  C   LIG    1       20.201 -28.549  13.722  0.00  0.00    +0.277 C 
ENDBRANCH  49  55
BRANCH  42  57
ATOM     57  C   LIG    1       26.668 -30.241  12.497  0.00  0.00    +0.095 C 
BRANCH  57  61
ATOM     58  C   LIG    1       25.930 -26.042  13.580  0.00  0.00    +0.162 A 
ATOM     59  C   LIG    1       25.373 -27.069  14.359  0.00  0.00    +0.162 A 
ATOM     60  C   LIG    1       25.557 -28.428  13.944  0.00  0.00    +0.053 A 
ATOM     61  C   LIG    1       26.310 -28.794  12.813  0.00  0.00    -0.038 A 
ATOM     62  C   LIG    1       26.864 -27.754  12.085  0.00  0.00    +0.007 A 
ATOM     63  C   LIG    1       26.647 -26.422  12.436  0.00  0.00    +0.050 A 
BRANCH  58  65
ATOM     64  C   LIG    1       25.519 -23.953  14.789  0.00  0.00    +0.277 C 
ATOM     65  O   LIG    1       25.837 -24.680  13.613  0.00  0.00    -0.491 OA
ENDBRANCH  58  65
BRANCH  59  66
ATOM     66  O   LIG    1       24.610 -27.052  15.498  0.00  0.00    -0.491 OA
ATOM     67  C   LIG    1       23.330 -27.642  15.491  0.00  0.00    +0.277 C 
ENDBRANCH  59  66
ENDBRANCH  57  61
ENDBRANCH  42  57
ENDBRANCH  41  43
ENDBRANCH  40  41
ENDBRANCH  38  40
ENDBRANCH  37  38
ENDBRANCH  36  37
ENDBRANCH  35  36
ENDBRANCH   1  35
TORSDOF 26
ENDMDL
MODEL 6
REMARK VINA RESULT:      -4.4      1.786     11.914
REMARK  Name = *****
REMARK                            x       y       z     vdW  Elec       q    Type
REMARK                         _______ _______ _______ _____ _____    ______ ____
ROOT
ATOM      1  C   LIG    1       24.390 -28.119   5.902  0.00  0.00    +0.007 C 
ENDROOT
BRANCH   1   2
ATOM      2  C   LIG    1       25.685 -27.903   5.105  0.00  0.00    +0.041 C 
BRANCH   2   3
ATOM      3  C   LIG    1       26.545 -26.704   5.521  0.00  0.00    +0.232 C 
BRANCH   3   4
ATOM      4  O   LIG    1       25.798 -25.513   5.189  0.00  0.00    -0.465 OA
BRANCH   4   5
ATOM      5  C   LIG    1       25.425 -24.675   6.146  0.00  0.00    +0.312 C 
ATOM      6  O   LIG    1       25.952 -24.579   7.308  0.00  0.00    -0.251 OA
BRANCH   5   7
ATOM      7  C   LIG    1       24.104 -24.031   5.785  0.00  0.00    +0.171 C 
BRANCH   7   8
ATOM      8  C   LIG    1       24.254 -23.022   4.651  0.00  0.00    +0.145 C 
BRANCH   8   9
ATOM      9  N   LIG    1       23.690 -21.606   4.991  0.00  0.00    +0.247 N 
ATOM     10  C   LIG    1       22.369 -21.544   4.217  0.00  0.00    +0.193 C 
ATOM     11  C   LIG    1       24.693 -20.390   4.672  0.00  0.00    +0.102 C 
ATOM     12  C   LIG    1       25.910 -20.366   5.593  0.00  0.00    +0.008 A 
ATOM     13  C   LIG    1       25.761 -20.722   6.924  0.00  0.00    -0.030 A 
ATOM     14  C   LIG    1       26.771 -20.389   7.833  0.00  0.00    +0.053 A 
ATOM     15  C   LIG    1       27.993 -19.812   7.450  0.00  0.00    +0.162 A 
ATOM     16  C   LIG    1       28.193 -19.532   6.091  0.00  0.00    +0.162 A 
ATOM     17  C   LIG    1       24.587 -21.517   7.416  0.00  0.00    +0.086 C 
ATOM     18  C   LIG    1       27.141 -19.796   5.190  0.00  0.00    +0.059 A 
ATOM     19  C   LIG    1       23.358 -21.531   6.504  0.00  0.00    +0.138 C 
BRANCH  15  20
ATOM     20  O   LIG    1       28.923 -19.460   8.389  0.00  0.00    -0.491 OA
ATOM     21  C   LIG    1       30.043 -20.338   8.576  0.00  0.00    +0.277 C 
ENDBRANCH  15  20
BRANCH  16  22
ATOM     22  O   LIG    1       29.255 -18.906   5.491  0.00  0.00    -0.491 OA
ATOM     23  C   LIG    1       30.534 -18.945   6.116  0.00  0.00    +0.277 C 
ENDBRANCH  16  22
BRANCH  11  24
ATOM     24  C   LIG    1       23.978 -18.991   4.811  0.00  0.00    +0.095 C 
BRANCH  24  25
ATOM     25  C   LIG    1       24.712 -17.844   4.141  0.00  0.00    -0.038 A 
ATOM     26  C   LIG    1       24.214 -16.527   4.148  0.00  0.00    +0.053 A 
ATOM     27  C   LIG    1       24.939 -15.450   3.589  0.00  0.00    +0.162 A 
ATOM     28  C   LIG    1       26.208 -15.698   3.041  0.00  0.00    +0.162 A 
ATOM     29  C   LIG    1       26.688 -17.016   3.044  0.00  0.00    +0.050 A 
ATOM     30  C   LIG    1       25.940 -18.078   3.537  0.00  0.00    +0.007 A 
BRANCH  28  31
ATOM     31  O   LIG    1       26.964 -14.687   2.503  0.00  0.00    -0.491 OA
ATOM     32  C   LIG    1       27.712 -13.901   3.434  0.00  0.00    +0.277 C 
ENDBRANCH  28  31
BRANCH  27  33
ATOM     33  O   LIG    1       24.218 -14.285   3.579  0.00  0.00    -0.491 OA
ATOM     34  C   LIG    1       23.679 -13.789   4.796  0.00  0.00    +0.277 C 
ENDBRANCH  27  33
ENDBRANCH  24  25
ENDBRANCH  11  24
ENDBRANCH   8   9
ENDBRANCH   7   8
ENDBRANCH   5   7
ENDBRANCH   4   5
ENDBRANCH   3   4
ENDBRANCH   2   3
ENDBRANCH   1   2
BRANCH   1  35
ATOM     35  C   LIG    1       23.833 -29.538   6.023  0.00  0.00    +0.041 C 
BRANCH  35  36
ATOM     36  C   LIG    1       24.789 -30.639   6.452  0.00  0.00    +0.232 C 
BRANCH  36  37
ATOM     37  O   LIG    1       25.152 -30.512   7.819  0.00  0.00    -0.465 OA
BRANCH  37  38
ATOM     38  C   LIG    1       24.457 -31.374   8.614  0.00  0.00    +0.312 C 
ATOM     39  O   LIG    1       24.541 -32.570   8.618  0.00  0.00    -0.251 OA
BRANCH  38  40
ATOM     40  C   LIG    1       23.411 -30.592   9.366  0.00  0.00    +0.171 C 
BRANCH  40  41
ATOM     41  C   LIG    1       23.902 -29.994  10.694  0.00  0.00    +0.145 C 
BRANCH  41  43
ATOM     42  C   LIG    1       22.752 -29.318  12.906  0.00  0.00    +0.102 C 
ATOM     43  N   LIG    1       23.234 -30.539  12.011  0.00  0.00    +0.247 N 
ATOM     44  C   LIG    1       21.996 -31.334  11.656  0.00  0.00    +0.193 C 
ATOM     45  C   LIG    1       24.195 -31.431  12.822  0.00  0.00    +0.138 C 
ATOM     46  C   LIG    1       25.343 -30.695  13.530  0.00  0.00    +0.086 C 
ATOM     47  C   LIG    1       25.096 -29.260  13.903  0.00  0.00    -0.030 A 
ATOM     48  C   LIG    1       26.090 -28.527  14.581  0.00  0.00    +0.053 A 
ATOM     49  C   LIG    1       25.956 -27.144  14.805  0.00  0.00    +0.162 A 
ATOM     50  C   LIG    1       24.808 -26.485  14.347  0.00  0.00    +0.162 A 
ATOM     51  C   LIG    1       23.850 -27.208  13.643  0.00  0.00    +0.059 A 
ATOM     52  C   LIG    1       23.943 -28.595  13.481  0.00  0.00    +0.008 A 
BRANCH  50  53
ATOM     53  O   LIG    1       24.665 -25.155  14.603  0.00  0.00    -0.491 OA
ATOM     54  C   LIG    1       25.418 -24.228  13.839  0.00  0.00    +0.277 C 
ENDBRANCH  50  53
BRANCH  49  55
ATOM     55  O   LIG    1       26.989 -26.573  15.498  0.00  0.00    -0.491 OA
ATOM     56  C   LIG    1       28.326 -26.888  15.103  0.00  0.00    +0.277 C 
ENDBRANCH  49  55
BRANCH  42  57
ATOM     57  C   LIG    1       21.690 -29.747  14.004  0.00  0.00    +0.095 C 
BRANCH  57  61
ATOM     58  C   LIG    1       17.895 -27.627  14.673  0.00  0.00    +0.162 A 
ATOM     59  C   LIG    1       17.885 -29.010  14.429  0.00  0.00    +0.162 A 
ATOM     60  C   LIG    1       19.123 -29.667  14.134  0.00  0.00    +0.053 A 
ATOM     61  C   LIG    1       20.365 -29.005  14.118  0.00  0.00    -0.038 A 
ATOM     62  C   LIG    1       20.336 -27.647  14.388  0.00  0.00    +0.007 A 
ATOM     63  C   LIG    1       19.136 -26.974  14.619  0.00  0.00    +0.050 A 
BRANCH  58  65
ATOM     64  C   LIG    1       15.775 -26.599  14.006  0.00  0.00    +0.277 C 
ATOM     65  O   LIG    1       16.911 -26.695  14.848  0.00  0.00    -0.491 OA
ENDBRANCH  58  65
BRANCH  59  66
ATOM     66  O   LIG    1       16.870 -29.929  14.378  0.00  0.00    -0.491 OA
ATOM     67  C   LIG    1       16.499 -30.494  13.142  0.00  0.00    +0.277 C 
ENDBRANCH  59  66
ENDBRANCH  57  61
ENDBRANCH  42  57
ENDBRANCH  41  43
ENDBRANCH  40  41
ENDBRANCH  38  40
ENDBRANCH  37  38
ENDBRANCH  36  37
ENDBRANCH  35  36
ENDBRANCH   1  35
TORSDOF 26
ENDMDL
MODEL 7
REMARK VINA RESULT:      -4.1      2.089     12.235
REMARK  Name = *****
REMARK                            x       y       z     vdW  Elec       q    Type
REMARK                         _______ _______ _______ _____ _____    ______ ____
ROOT
ATOM      1  C   LIG    1       24.379 -28.064   5.624  0.00  0.00    +0.007 C 
ENDROOT
BRANCH   1   2
ATOM      2  C   LIG    1       25.737 -27.852   4.938  0.00  0.00    +0.041 C 
BRANCH   2   3
ATOM      3  C   LIG    1       26.572 -26.669   5.441  0.00  0.00    +0.232 C 
BRANCH   3   4
ATOM      4  O   LIG    1       25.757 -25.484   5.296  0.00  0.00    -0.465 OA
BRANCH   4   5
ATOM      5  C   LIG    1       25.367 -24.811   6.369  0.00  0.00    +0.312 C 
ATOM      6  O   LIG    1       25.906 -24.868   7.528  0.00  0.00    -0.251 OA
BRANCH   5   7
ATOM      7  C   LIG    1       24.020 -24.170   6.117  0.00  0.00    +0.171 C 
BRANCH   7   8
ATOM      8  C   LIG    1       24.065 -23.196   4.943  0.00  0.00    +0.145 C 
BRANCH   8   9
ATOM      9  N   LIG    1       23.542 -21.766   5.294  0.00  0.00    +0.247 N 
ATOM     10  C   LIG    1       22.178 -21.696   4.598  0.00  0.00    +0.193 C 
ATOM     11  C   LIG    1       24.542 -20.570   4.897  0.00  0.00    +0.102 C 
ATOM     12  C   LIG    1       25.811 -20.551   5.744  0.00  0.00    +0.008 A 
ATOM     13  C   LIG    1       25.737 -20.885   7.087  0.00  0.00    -0.030 A 
ATOM     14  C   LIG    1       26.803 -20.554   7.929  0.00  0.00    +0.053 A 
ATOM     15  C   LIG    1       28.009 -20.001   7.466  0.00  0.00    +0.162 A 
ATOM     16  C   LIG    1       28.131 -19.745   6.093  0.00  0.00    +0.162 A 
ATOM     17  C   LIG    1       24.583 -21.654   7.660  0.00  0.00    +0.086 C 
ATOM     18  C   LIG    1       27.024 -20.007   5.260  0.00  0.00    +0.059 A 
ATOM     19  C   LIG    1       23.302 -21.663   6.823  0.00  0.00    +0.138 C 
BRANCH  15  20
ATOM     20  O   LIG    1       28.998 -19.650   8.342  0.00  0.00    -0.491 OA
ATOM     21  C   LIG    1       30.194 -20.442   8.346  0.00  0.00    +0.277 C 
ENDBRANCH  15  20
BRANCH  16  22
ATOM     22  O   LIG    1       29.165 -19.144   5.421  0.00  0.00    -0.491 OA
ATOM     23  C   LIG    1       29.133 -17.737   5.206  0.00  0.00    +0.277 C 
ENDBRANCH  16  22
BRANCH  11  24
ATOM     24  C   LIG    1       23.856 -19.159   5.055  0.00  0.00    +0.095 C 
BRANCH  24  25
ATOM     25  C   LIG    1       24.542 -18.041   4.291  0.00  0.00    -0.038 A 
ATOM     26  C   LIG    1       24.114 -16.703   4.374  0.00  0.00    +0.053 A 
ATOM     27  C   LIG    1       24.803 -15.656   3.721  0.00  0.00    +0.162 A 
ATOM     28  C   LIG    1       25.969 -15.957   2.998  0.00  0.00    +0.162 A 
ATOM     29  C   LIG    1       26.380 -17.296   2.929  0.00  0.00    +0.050 A 
ATOM     30  C   LIG    1       25.660 -18.326   3.520  0.00  0.00    +0.007 A 
BRANCH  28  31
ATOM     31  O   LIG    1       26.689 -14.978   2.361  0.00  0.00    -0.491 OA
ATOM     32  C   LIG    1       27.394 -14.068   3.209  0.00  0.00    +0.277 C 
ENDBRANCH  28  31
BRANCH  27  33
ATOM     33  O   LIG    1       24.145 -14.458   3.817  0.00  0.00    -0.491 OA
ATOM     34  C   LIG    1       23.021 -14.348   4.679  0.00  0.00    +0.277 C 
ENDBRANCH  27  33
ENDBRANCH  24  25
ENDBRANCH  11  24
ENDBRANCH   8   9
ENDBRANCH   7   8
ENDBRANCH   5   7
ENDBRANCH   4   5
ENDBRANCH   3   4
ENDBRANCH   2   3
ENDBRANCH   1   2
BRANCH   1  35
ATOM     35  C   LIG    1       23.806 -29.481   5.693  0.00  0.00    +0.041 C 
BRANCH  35  36
ATOM     36  C   LIG    1       24.771 -30.619   5.982  0.00  0.00    +0.232 C 
BRANCH  36  37
ATOM     37  O   LIG    1       25.708 -30.267   6.990  0.00  0.00    -0.465 OA
BRANCH  37  38
ATOM     38  C   LIG    1       25.804 -31.224   7.955  0.00  0.00    +0.312 C 
ATOM     39  O   LIG    1       26.545 -32.167   7.956  0.00  0.00    -0.251 OA
BRANCH  38  40
ATOM     40  C   LIG    1       24.685 -31.020   8.944  0.00  0.00    +0.171 C 
BRANCH  40  41
ATOM     41  C   LIG    1       25.117 -30.348  10.257  0.00  0.00    +0.145 C 
BRANCH  41  43
ATOM     42  C   LIG    1       23.428 -30.641  12.189  0.00  0.00    +0.102 C 
ATOM     43  N   LIG    1       24.816 -31.129  11.589  0.00  0.00    +0.247 N 
ATOM     44  C   LIG    1       24.663 -32.604  11.285  0.00  0.00    +0.193 C 
ATOM     45  C   LIG    1       25.931 -30.940  12.637  0.00  0.00    +0.138 C 
ATOM     46  C   LIG    1       25.996 -29.551  13.291  0.00  0.00    +0.086 C 
ATOM     47  C   LIG    1       24.710 -28.776  13.359  0.00  0.00    -0.030 A 
ATOM     48  C   LIG    1       24.684 -27.507  13.970  0.00  0.00    +0.053 A 
ATOM     49  C   LIG    1       23.539 -26.690  13.913  0.00  0.00    +0.162 A 
ATOM     50  C   LIG    1       22.403 -27.151  13.238  0.00  0.00    +0.162 A 
ATOM     51  C   LIG    1       22.450 -28.389  12.603  0.00  0.00    +0.059 A 
ATOM     52  C   LIG    1       23.558 -29.235  12.718  0.00  0.00    +0.008 A 
BRANCH  50  53
ATOM     53  O   LIG    1       21.284 -26.374  13.221  0.00  0.00    -0.491 OA
ATOM     54  C   LIG    1       20.117 -26.845  13.873  0.00  0.00    +0.277 C 
ENDBRANCH  50  53
BRANCH  49  55
ATOM     55  O   LIG    1       23.654 -25.495  14.573  0.00  0.00    -0.491 OA
ATOM     56  C   LIG    1       24.964 -25.012  14.876  0.00  0.00    +0.277 C 
ENDBRANCH  49  55
BRANCH  42  57
ATOM     57  C   LIG    1       22.829 -31.656  13.250  0.00  0.00    +0.095 C 
BRANCH  57  61
ATOM     58  C   LIG    1       18.630 -32.934  12.974  0.00  0.00    +0.162 A 
ATOM     59  C   LIG    1       19.112 -31.941  12.107  0.00  0.00    +0.162 A 
ATOM     60  C   LIG    1       20.459 -31.482  12.266  0.00  0.00    +0.053 A 
ATOM     61  C   LIG    1       21.347 -32.007  13.223  0.00  0.00    -0.038 A 
ATOM     62  C   LIG    1       20.841 -33.002  14.043  0.00  0.00    +0.007 A 
ATOM     63  C   LIG    1       19.515 -33.423  13.946  0.00  0.00    +0.050 A 
BRANCH  58  65
ATOM     64  C   LIG    1       16.383 -33.508  12.188  0.00  0.00    +0.277 C 
ATOM     65  O   LIG    1       17.397 -33.487  13.178  0.00  0.00    -0.491 OA
ENDBRANCH  58  65
BRANCH  59  66
ATOM     66  O   LIG    1       18.522 -31.243  11.085  0.00  0.00    -0.491 OA
ATOM     67  C   LIG    1       18.271 -31.883   9.855  0.00  0.00    +0.277 C 
ENDBRANCH  59  66
ENDBRANCH  57  61
ENDBRANCH  42  57
ENDBRANCH  41  43
ENDBRANCH  40  41
ENDBRANCH  38  40
ENDBRANCH  37  38
ENDBRANCH  36  37
ENDBRANCH  35  36
ENDBRANCH   1  35
TORSDOF 26
ENDMDL
MODEL 8
REMARK VINA RESULT:      -3.4      1.441      4.301
REMARK  Name = *****
REMARK                            x       y       z     vdW  Elec       q    Type
REMARK                         _______ _______ _______ _____ _____    ______ ____
ROOT
ATOM      1  C   LIG    1       25.228 -31.650   5.384  0.00  0.00    +0.007 C 
ENDROOT
BRANCH   1   2
ATOM      2  C   LIG    1       23.786 -31.997   5.783  0.00  0.00    +0.041 C 
BRANCH   2   3
ATOM      3  C   LIG    1       23.603 -32.656   7.155  0.00  0.00    +0.232 C 
BRANCH   3   4
ATOM      4  O   LIG    1       24.489 -31.976   8.072  0.00  0.00    -0.465 OA
BRANCH   4   5
ATOM      5  C   LIG    1       24.001 -31.110   8.948  0.00  0.00    +0.312 C 
ATOM      6  O   LIG    1       23.281 -30.088   8.673  0.00  0.00    -0.251 OA
BRANCH   5   7
ATOM      7  C   LIG    1       24.638 -31.328  10.303  0.00  0.00    +0.171 C 
BRANCH   7   8
ATOM      8  C   LIG    1       24.712 -30.037  11.112  0.00  0.00    +0.145 C 
BRANCH   8   9
ATOM      9  N   LIG    1       24.196 -30.186  12.579  0.00  0.00    +0.247 N 
ATOM     10  C   LIG    1       23.009 -31.147  12.453  0.00  0.00    +0.193 C 
ATOM     11  C   LIG    1       23.839 -28.797  13.309  0.00  0.00    +0.102 C 
ATOM     12  C   LIG    1       25.071 -27.944  13.597  0.00  0.00    +0.008 A 
ATOM     13  C   LIG    1       26.253 -28.562  13.972  0.00  0.00    -0.030 A 
ATOM     14  C   LIG    1       27.268 -27.793  14.551  0.00  0.00    +0.053 A 
ATOM     15  C   LIG    1       27.204 -26.395  14.668  0.00  0.00    +0.162 A 
ATOM     16  C   LIG    1       26.050 -25.747  14.206  0.00  0.00    +0.162 A 
ATOM     17  C   LIG    1       26.514 -30.017  13.715  0.00  0.00    +0.086 C 
ATOM     18  C   LIG    1       24.997 -26.535  13.696  0.00  0.00    +0.059 A 
ATOM     19  C   LIG    1       25.281 -30.881  13.441  0.00  0.00    +0.138 C 
BRANCH  15  20
ATOM     20  O   LIG    1       28.204 -25.700  15.289  0.00  0.00    -0.491 OA
ATOM     21  C   LIG    1       28.587 -24.438  14.724  0.00  0.00    +0.277 C 
ENDBRANCH  15  20
BRANCH  16  22
ATOM     22  O   LIG    1       25.723 -24.417  14.282  0.00  0.00    -0.491 OA
ATOM     23  C   LIG    1       25.199 -23.896  15.499  0.00  0.00    +0.277 C 
ENDBRANCH  16  22
BRANCH  11  24
ATOM     24  C   LIG    1       23.104 -29.032  14.684  0.00  0.00    +0.095 C 
BRANCH  24  25
ATOM     25  C   LIG    1       21.675 -28.522  14.725  0.00  0.00    -0.038 A 
ATOM     26  C   LIG    1       20.567 -29.382  14.603  0.00  0.00    +0.053 A 
ATOM     27  C   LIG    1       19.239 -28.911  14.718  0.00  0.00    +0.162 A 
ATOM     28  C   LIG    1       19.023 -27.552  14.996  0.00  0.00    +0.162 A 
ATOM     29  C   LIG    1       20.139 -26.711  15.115  0.00  0.00    +0.050 A 
ATOM     30  C   LIG    1       21.438 -27.170  14.936  0.00  0.00    +0.007 A 
BRANCH  28  31
ATOM     31  O   LIG    1       17.755 -27.044  15.138  0.00  0.00    -0.491 OA
ATOM     32  C   LIG    1       17.286 -26.225  14.064  0.00  0.00    +0.277 C 
ENDBRANCH  28  31
BRANCH  27  33
ATOM     33  O   LIG    1       18.315 -29.882  14.432  0.00  0.00    -0.491 OA
ATOM     34  C   LIG    1       18.503 -30.708  13.293  0.00  0.00    +0.277 C 
ENDBRANCH  27  33
ENDBRANCH  24  25
ENDBRANCH  11  24
ENDBRANCH   8   9
ENDBRANCH   7   8
ENDBRANCH   5   7
ENDBRANCH   4   5
ENDBRANCH   3   4
ENDBRANCH   2   3
ENDBRANCH   1   2
BRANCH   1  35
ATOM     35  C   LIG    1       25.563 -30.200   5.032  0.00  0.00    +0.041 C 
BRANCH  35  36
ATOM     36  C   LIG    1       24.707 -29.107   5.651  0.00  0.00    +0.232 C 
BRANCH  36  37
ATOM     37  O   LIG    1       25.486 -27.978   6.018  0.00  0.00    -0.465 OA
BRANCH  37  38
ATOM     38  C   LIG    1       25.063 -26.842   5.396  0.00  0.00    +0.312 C 
ATOM     39  O   LIG    1       25.540 -26.342   4.415  0.00  0.00    -0.251 OA
BRANCH  38  40
ATOM     40  C   LIG    1       24.007 -26.193   6.253  0.00  0.00    +0.171 C 
BRANCH  40  41
ATOM     41  C   LIG    1       23.970 -24.659   6.158  0.00  0.00    +0.145 C 
BRANCH  41  43
ATOM     42  C   LIG    1       24.474 -22.467   7.428  0.00  0.00    +0.102 C 
ATOM     43  N   LIG    1       25.063 -23.869   6.967  0.00  0.00    +0.247 N 
ATOM     44  C   LIG    1       25.407 -24.632   8.228  0.00  0.00    +0.193 C 
ATOM     45  C   LIG    1       26.348 -23.647   6.143  0.00  0.00    +0.138 C 
ATOM     46  C   LIG    1       26.235 -22.622   5.005  0.00  0.00    +0.086 C 
ATOM     47  C   LIG    1       25.209 -21.536   5.173  0.00  0.00    -0.030 A 
ATOM     48  C   LIG    1       25.066 -20.542   4.186  0.00  0.00    +0.053 A 
ATOM     49  C   LIG    1       24.015 -19.606   4.235  0.00  0.00    +0.162 A 
ATOM     50  C   LIG    1       23.097 -19.664   5.290  0.00  0.00    +0.162 A 
ATOM     51  C   LIG    1       23.221 -20.673   6.240  0.00  0.00    +0.059 A 
ATOM     52  C   LIG    1       24.304 -21.560   6.236  0.00  0.00    +0.008 A 
BRANCH  50  53
ATOM     53  O   LIG    1       22.107 -18.730   5.354  0.00  0.00    -0.491 OA
ATOM     54  C   LIG    1       21.362 -18.443   4.183  0.00  0.00    +0.277 C 
ENDBRANCH  50  53
BRANCH  49  55
ATOM     55  O   LIG    1       24.020 -18.686   3.220  0.00  0.00    -0.491 OA
ATOM     56  C   LIG    1       25.131 -17.792   3.121  0.00  0.00    +0.277 C 
ENDBRANCH  49  55
BRANCH  42  57
ATOM     57  C   LIG    1       25.311 -21.808   8.603  0.00  0.00    +0.095 C 
BRANCH  57  61
ATOM     58  C   LIG    1       29.295 -20.295   7.516  0.00  0.00    +0.162 A 
ATOM     59  C   LIG    1       29.181 -21.371   8.411  0.00  0.00    +0.162 A 
ATOM     60  C   LIG    1       27.874 -21.796   8.815  0.00  0.00    +0.053 A 
ATOM     61  C   LIG    1       26.688 -21.219   8.325  0.00  0.00    -0.038 A 
ATOM     62  C   LIG    1       26.842 -20.177   7.425  0.00  0.00    +0.007 A 
ATOM     63  C   LIG    1       28.105 -19.706   7.065  0.00  0.00    +0.050 A 
BRANCH  58  65
ATOM     64  C   LIG    1       30.882 -18.441   7.715  0.00  0.00    +0.277 C 
ATOM     65  O   LIG    1       30.354 -19.572   7.044  0.00  0.00    -0.491 OA
ENDBRANCH  58  65
BRANCH  59  66
ATOM     66  O   LIG    1       30.117 -22.139   9.053  0.00  0.00    -0.491 OA
ATOM     67  C   LIG    1       31.483 -21.807   8.952  0.00  0.00    +0.277 C 
ENDBRANCH  59  66
ENDBRANCH  57  61
ENDBRANCH  42  57
ENDBRANCH  41  43
ENDBRANCH  40  41
ENDBRANCH  38  40
ENDBRANCH  37  38
ENDBRANCH  36  37
ENDBRANCH  35  36
ENDBRANCH   1  35
TORSDOF 26
ENDMDL
