MODEL 1
REMARK VINA RESULT:      -8.5      0.000      0.000
REMARK  Name = *****
REMARK                            x       y       z     vdW  Elec       q    Type
REMARK                         _______ _______ _______ _____ _____    ______ ____
ROOT
ATOM      1  C   LIG    1       25.427 -23.000   6.423  0.00  0.00    +0.061 A 
ATOM      2  C   LIG    1       24.019 -22.912   6.563  0.00  0.00    +0.131 A 
ATOM      3  C   LIG    1       23.252 -24.076   6.698  0.00  0.00    +0.048 A 
ATOM      4  C   LIG    1       23.860 -25.332   6.708  0.00  0.00    +0.032 A 
ATOM      5  C   LIG    1       25.242 -25.428   6.545  0.00  0.00    +0.106 A 
ATOM      6  C   LIG    1       26.030 -24.274   6.439  0.00  0.00    +0.043 A 
ENDROOT
BRANCH   1  10
ATOM      7  C   LIG    1       29.333 -19.991   7.181  0.00  0.00    +0.089 A 
ATOM      8  C   LIG    1       28.142 -20.493   6.624  0.00  0.00    +0.119 A 
ATOM      9  N   LIG    1       27.417 -21.654   6.926  0.00  0.00    -0.225 NA
ATOM     10  C   LIG    1       26.318 -21.790   6.235  0.00  0.00    +0.145 C 
ATOM     11  N   LIG    1       25.896 -20.865   5.280  0.00  0.00    -0.305 N 
ATOM     12  H   LIG    1       25.040 -21.030   4.770  0.00  0.00    +0.170 HD
ATOM     13  C   LIG    1       26.578 -19.733   4.924  0.00  0.00    +0.278 C 
ATOM     14  O   LIG    1       26.183 -18.967   4.050  0.00  0.00    -0.266 OA
ATOM     15  C   LIG    1       27.760 -19.589   5.677  0.00  0.00    +0.151 A 
ATOM     16  N   LIG    1       28.726 -18.634   5.656  0.00  0.00    -0.260 N 
ATOM     17  C   LIG    1       28.825 -17.526   4.737  0.00  0.00    +0.173 C 
ATOM     18  N   LIG    1       29.694 -18.838   6.582  0.00  0.00    -0.174 NA
BRANCH   7  19
ATOM     19  C   LIG    1       30.156 -20.567   8.281  0.00  0.00    +0.059 C 
BRANCH  19  21
ATOM     20  C   LIG    1       30.893 -18.615   9.748  0.00  0.00    +0.004 C 
ATOM     21  C   LIG    1       31.309 -19.661   8.722  0.00  0.00    +0.003 C 
ENDBRANCH  19  21
ENDBRANCH   7  19
ENDBRANCH   1  10
BRANCH   5  22
ATOM     22  S   LIG    1       25.990 -27.050   6.508  0.00  0.00    +0.061 S 
ATOM     23  O   LIG    1       26.596 -27.292   7.797  0.00  0.00    -0.153 OA
ATOM     24  O   LIG    1       26.772 -27.122   5.283  0.00  0.00    -0.153 OA
BRANCH  22  25
ATOM     25  N   LIG    1       24.639 -28.071   6.344  0.00  0.00    -0.174 NA
ATOM     26  C   LIG    1       24.544 -28.837   5.067  0.00  0.00    +0.124 C 
ATOM     27  C   LIG    1       25.315 -30.170   5.121  0.00  0.00    +0.101 C 
ATOM     28  N   LIG    1       24.983 -31.050   6.259  0.00  0.00    -0.303 NA
ATOM     29  C   LIG    1       23.717 -31.752   6.074  0.00  0.00    +0.105 C 
ATOM     30  C   LIG    1       25.020 -30.284   7.520  0.00  0.00    +0.101 C 
ATOM     31  C   LIG    1       24.277 -28.931   7.511  0.00  0.00    +0.124 C 
ENDBRANCH  22  25
ENDBRANCH   5  22
BRANCH   2  32
ATOM     32  O   LIG    1       23.432 -21.669   6.516  0.00  0.00    -0.491 OA
BRANCH  32  33
ATOM     33  C   LIG    1       22.523 -21.424   5.438  0.00  0.00    +0.226 C 
ATOM     34  C   LIG    1       22.511 -19.931   5.159  0.00  0.00    +0.048 C 
ENDBRANCH  32  33
ENDBRANCH   2  32
TORSDOF 7
ENDMDL
MODEL 2
REMARK VINA RESULT:      -7.9      3.645      9.566
REMARK  Name = *****
REMARK                            x       y       z     vdW  Elec       q    Type
REMARK                         _______ _______ _______ _____ _____    ______ ____
ROOT
ATOM      1  C   LIG    1       28.032 -19.963   6.488  0.00  0.00    +0.061 A 
ATOM      2  C   LIG    1       28.309 -19.069   5.423  0.00  0.00    +0.131 A 
ATOM      3  C   LIG    1       29.443 -18.249   5.472  0.00  0.00    +0.048 A 
ATOM      4  C   LIG    1       30.319 -18.309   6.556  0.00  0.00    +0.032 A 
ATOM      5  C   LIG    1       30.040 -19.168   7.619  0.00  0.00    +0.106 A 
ATOM      6  C   LIG    1       28.926 -20.018   7.575  0.00  0.00    +0.043 A 
ENDROOT
BRANCH   1  10
ATOM      7  C   LIG    1       23.200 -21.166   6.172  0.00  0.00    +0.089 A 
ATOM      8  C   LIG    1       24.591 -21.317   6.332  0.00  0.00    +0.119 A 
ATOM      9  N   LIG    1       25.620 -20.366   6.282  0.00  0.00    -0.225 NA
ATOM     10  C   LIG    1       26.806 -20.853   6.524  0.00  0.00    +0.145 C 
ATOM     11  N   LIG    1       27.038 -22.198   6.809  0.00  0.00    -0.305 N 
ATOM     12  H   LIG    1       27.980 -22.517   6.978  0.00  0.00    +0.170 HD
ATOM     13  C   LIG    1       26.077 -23.173   6.841  0.00  0.00    +0.278 C 
ATOM     14  O   LIG    1       26.336 -24.352   7.061  0.00  0.00    -0.266 OA
ATOM     15  C   LIG    1       24.798 -22.641   6.586  0.00  0.00    +0.151 A 
ATOM     16  N   LIG    1       23.578 -23.234   6.517  0.00  0.00    -0.260 N 
ATOM     17  C   LIG    1       23.298 -24.647   6.601  0.00  0.00    +0.173 C 
ATOM     18  N   LIG    1       22.573 -22.355   6.287  0.00  0.00    -0.174 NA
BRANCH   7  19
ATOM     19  C   LIG    1       22.428 -19.919   5.912  0.00  0.00    +0.059 C 
BRANCH  19  21
ATOM     20  C   LIG    1       22.091 -17.935   4.345  0.00  0.00    +0.004 C 
ATOM     21  C   LIG    1       22.648 -19.343   4.511  0.00  0.00    +0.003 C 
ENDBRANCH  19  21
ENDBRANCH   7  19
ENDBRANCH   1  10
BRANCH   5  22
ATOM     22  S   LIG    1       31.149 -19.188   9.019  0.00  0.00    +0.061 S 
ATOM     23  O   LIG    1       32.503 -19.213   8.517  0.00  0.00    -0.153 OA
ATOM     24  O   LIG    1       30.663 -20.220   9.922  0.00  0.00    -0.153 OA
BRANCH  22  25
ATOM     25  N   LIG    1       30.862 -17.671   9.733  0.00  0.00    -0.174 NA
ATOM     26  C   LIG    1       30.420 -17.687  11.159  0.00  0.00    +0.124 C 
ATOM     27  C   LIG    1       31.606 -17.721  12.142  0.00  0.00    +0.101 C 
ATOM     28  N   LIG    1       32.625 -16.671  11.945  0.00  0.00    -0.303 NA
ATOM     29  C   LIG    1       32.198 -15.373  12.455  0.00  0.00    +0.105 C 
ATOM     30  C   LIG    1       33.024 -16.614  10.526  0.00  0.00    +0.101 C 
ATOM     31  C   LIG    1       31.872 -16.596   9.499  0.00  0.00    +0.124 C 
ENDBRANCH  22  25
ENDBRANCH   5  22
BRANCH   2  32
ATOM     32  O   LIG    1       27.417 -18.996   4.378  0.00  0.00    -0.491 OA
BRANCH  32  33
ATOM     33  C   LIG    1       27.086 -17.689   3.901  0.00  0.00    +0.226 C 
ATOM     34  C   LIG    1       25.704 -17.750   3.273  0.00  0.00    +0.048 C 
ENDBRANCH  32  33
ENDBRANCH   2  32
TORSDOF 7
ENDMDL
MODEL 3
REMARK VINA RESULT:      -7.7      3.471      9.357
REMARK  Name = *****
REMARK                            x       y       z     vdW  Elec       q    Type
REMARK                         _______ _______ _______ _____ _____    ______ ____
ROOT
ATOM      1  C   LIG    1       27.817 -20.087   6.406  0.00  0.00    +0.061 A 
ATOM      2  C   LIG    1       28.061 -19.179   5.344  0.00  0.00    +0.131 A 
ATOM      3  C   LIG    1       29.185 -18.345   5.377  0.00  0.00    +0.048 A 
ATOM      4  C   LIG    1       30.084 -18.404   6.442  0.00  0.00    +0.032 A 
ATOM      5  C   LIG    1       29.837 -19.277   7.503  0.00  0.00    +0.106 A 
ATOM      6  C   LIG    1       28.734 -20.140   7.474  0.00  0.00    +0.043 A 
ENDROOT
BRANCH   1  10
ATOM      7  C   LIG    1       25.270 -24.366   6.710  0.00  0.00    +0.089 A 
ATOM      8  C   LIG    1       25.524 -22.984   6.631  0.00  0.00    +0.119 A 
ATOM      9  N   LIG    1       26.739 -22.285   6.574  0.00  0.00    -0.225 NA
ATOM     10  C   LIG    1       26.604 -20.992   6.459  0.00  0.00    +0.145 C 
ATOM     11  N   LIG    1       25.365 -20.355   6.395  0.00  0.00    -0.305 N 
ATOM     12  H   LIG    1       25.325 -19.350   6.316  0.00  0.00    +0.170 HD
ATOM     13  C   LIG    1       24.151 -20.983   6.476  0.00  0.00    +0.278 C 
ATOM     14  O   LIG    1       23.086 -20.374   6.452  0.00  0.00    -0.266 OA
ATOM     15  C   LIG    1       24.303 -22.379   6.594  0.00  0.00    +0.151 A 
ATOM     16  N   LIG    1       23.385 -23.374   6.705  0.00  0.00    -0.260 N 
ATOM     17  C   LIG    1       21.955 -23.222   6.831  0.00  0.00    +0.173 C 
ATOM     18  N   LIG    1       23.944 -24.607   6.755  0.00  0.00    -0.174 NA
BRANCH   7  19
ATOM     19  C   LIG    1       26.249 -25.488   6.742  0.00  0.00    +0.059 C 
BRANCH  19  21
ATOM     20  C   LIG    1       25.950 -27.064   4.759  0.00  0.00    +0.004 C 
ATOM     21  C   LIG    1       25.677 -26.815   6.237  0.00  0.00    +0.003 C 
ENDBRANCH  19  21
ENDBRANCH   7  19
ENDBRANCH   1  10
BRANCH   5  22
ATOM     22  S   LIG    1       30.975 -19.295   8.880  0.00  0.00    +0.061 S 
ATOM     23  O   LIG    1       32.317 -19.381   8.350  0.00  0.00    -0.153 OA
ATOM     24  O   LIG    1       30.474 -20.283   9.823  0.00  0.00    -0.153 OA
BRANCH  22  25
ATOM     25  N   LIG    1       30.757 -17.749   9.554  0.00  0.00    -0.174 NA
ATOM     26  C   LIG    1       30.215 -17.707  10.944  0.00  0.00    +0.124 C 
ATOM     27  C   LIG    1       31.322 -17.816  12.011  0.00  0.00    +0.101 C 
ATOM     28  N   LIG    1       32.430 -16.849  11.876  0.00  0.00    -0.303 NA
ATOM     29  C   LIG    1       32.069 -15.514  12.339  0.00  0.00    +0.105 C 
ATOM     30  C   LIG    1       32.932 -16.846  10.489  0.00  0.00    +0.101 C 
ATOM     31  C   LIG    1       31.860 -16.757   9.382  0.00  0.00    +0.124 C 
ENDBRANCH  22  25
ENDBRANCH   5  22
BRANCH   2  32
ATOM     32  O   LIG    1       27.147 -19.109   4.319  0.00  0.00    -0.491 OA
BRANCH  32  33
ATOM     33  C   LIG    1       26.839 -17.805   3.815  0.00  0.00    +0.226 C 
ATOM     34  C   LIG    1       25.407 -17.819   3.309  0.00  0.00    +0.048 C 
ENDBRANCH  32  33
ENDBRANCH   2  32
TORSDOF 7
ENDMDL
MODEL 4
REMARK VINA RESULT:      -7.3      1.597      2.810
REMARK  Name = *****
REMARK                            x       y       z     vdW  Elec       q    Type
REMARK                         _______ _______ _______ _____ _____    ______ ____
ROOT
ATOM      1  C   LIG    1       25.949 -22.776   6.708  0.00  0.00    +0.061 A 
ATOM      2  C   LIG    1       24.589 -22.499   6.999  0.00  0.00    +0.131 A 
ATOM      3  C   LIG    1       23.626 -23.511   6.884  0.00  0.00    +0.048 A 
ATOM      4  C   LIG    1       23.992 -24.800   6.498  0.00  0.00    +0.032 A 
ATOM      5  C   LIG    1       25.324 -25.074   6.186  0.00  0.00    +0.106 A 
ATOM      6  C   LIG    1       26.306 -24.083   6.323  0.00  0.00    +0.043 A 
ENDROOT
BRANCH   1  10
ATOM      7  C   LIG    1       28.435 -18.633   5.464  0.00  0.00    +0.089 A 
ATOM      8  C   LIG    1       28.092 -19.808   6.159  0.00  0.00    +0.119 A 
ATOM      9  N   LIG    1       27.029 -20.702   5.963  0.00  0.00    -0.225 NA
ATOM     10  C   LIG    1       27.039 -21.726   6.772  0.00  0.00    +0.145 C 
ATOM     11  N   LIG    1       28.017 -21.921   7.747  0.00  0.00    -0.305 N 
ATOM     12  H   LIG    1       27.965 -22.729   8.350  0.00  0.00    +0.170 HD
ATOM     13  C   LIG    1       29.057 -21.068   8.002  0.00  0.00    +0.278 C 
ATOM     14  O   LIG    1       29.873 -21.265   8.897  0.00  0.00    -0.266 OA
ATOM     15  C   LIG    1       29.045 -19.968   7.122  0.00  0.00    +0.151 A 
ATOM     16  N   LIG    1       29.870 -18.894   7.017  0.00  0.00    -0.260 N 
ATOM     17  C   LIG    1       30.964 -18.556   7.895  0.00  0.00    +0.173 C 
ATOM     18  N   LIG    1       29.538 -18.067   5.996  0.00  0.00    -0.174 NA
BRANCH   7  19
ATOM     19  C   LIG    1       27.751 -18.015   4.294  0.00  0.00    +0.059 C 
BRANCH  19  21
ATOM     20  C   LIG    1       26.681 -15.841   3.498  0.00  0.00    +0.004 C 
ATOM     21  C   LIG    1       27.813 -16.485   4.288  0.00  0.00    +0.003 C 
ENDBRANCH  19  21
ENDBRANCH   7  19
ENDBRANCH   1  10
BRANCH   5  22
ATOM     22  S   LIG    1       25.757 -26.720   5.643  0.00  0.00    +0.061 S 
ATOM     23  O   LIG    1       27.072 -27.028   6.156  0.00  0.00    -0.153 OA
ATOM     24  O   LIG    1       25.473 -26.777   4.217  0.00  0.00    -0.153 OA
BRANCH  22  25
ATOM     25  N   LIG    1       24.617 -27.684   6.458  0.00  0.00    -0.174 NA
ATOM     26  C   LIG    1       23.972 -28.763   5.653  0.00  0.00    +0.124 C 
ATOM     27  C   LIG    1       24.797 -30.065   5.646  0.00  0.00    +0.101 C 
ATOM     28  N   LIG    1       25.170 -30.587   6.976  0.00  0.00    -0.303 NA
ATOM     29  C   LIG    1       24.061 -31.254   7.648  0.00  0.00    +0.105 C 
ATOM     30  C   LIG    1       25.756 -29.509   7.796  0.00  0.00    +0.101 C 
ATOM     31  C   LIG    1       24.977 -28.178   7.821  0.00  0.00    +0.124 C 
ENDBRANCH  22  25
ENDBRANCH   5  22
BRANCH   2  32
ATOM     32  O   LIG    1       24.240 -21.215   7.344  0.00  0.00    -0.491 OA
BRANCH  32  33
ATOM     33  C   LIG    1       23.099 -20.655   6.686  0.00  0.00    +0.226 C 
ATOM     34  C   LIG    1       23.527 -20.200   5.302  0.00  0.00    +0.048 C 
ENDBRANCH  32  33
ENDBRANCH   2  32
TORSDOF 7
ENDMDL
MODEL 5
REMARK VINA RESULT:      -7.2      3.708      9.875
REMARK  Name = *****
REMARK                            x       y       z     vdW  Elec       q    Type
REMARK                         _______ _______ _______ _____ _____    ______ ____
ROOT
ATOM      1  C   LIG    1       24.781 -29.420   7.670  0.00  0.00    +0.061 A 
ATOM      2  C   LIG    1       24.077 -30.151   6.679  0.00  0.00    +0.131 A 
ATOM      3  C   LIG    1       23.900 -29.609   5.400  0.00  0.00    +0.048 A 
ATOM      4  C   LIG    1       24.421 -28.355   5.080  0.00  0.00    +0.032 A 
ATOM      5  C   LIG    1       25.093 -27.619   6.057  0.00  0.00    +0.106 A 
ATOM      6  C   LIG    1       25.306 -28.157   7.334  0.00  0.00    +0.043 A 
ENDROOT
BRANCH   1  10
ATOM      7  C   LIG    1       24.689 -29.306  12.657  0.00  0.00    +0.089 A 
ATOM      8  C   LIG    1       24.875 -29.797  11.351  0.00  0.00    +0.119 A 
ATOM      9  N   LIG    1       24.652 -29.184  10.110  0.00  0.00    -0.225 NA
ATOM     10  C   LIG    1       24.979 -29.923   9.085  0.00  0.00    +0.145 C 
ATOM     11  N   LIG    1       25.506 -31.209   9.206  0.00  0.00    -0.305 N 
ATOM     12  H   LIG    1       25.731 -31.736   8.375  0.00  0.00    +0.170 HD
ATOM     13  C   LIG    1       25.716 -31.866  10.389  0.00  0.00    +0.278 C 
ATOM     14  O   LIG    1       26.149 -33.013  10.443  0.00  0.00    -0.266 OA
ATOM     15  C   LIG    1       25.367 -31.061  11.491  0.00  0.00    +0.151 A 
ATOM     16  N   LIG    1       25.408 -31.304  12.827  0.00  0.00    -0.260 N 
ATOM     17  C   LIG    1       25.749 -32.550  13.469  0.00  0.00    +0.173 C 
ATOM     18  N   LIG    1       25.021 -30.240  13.572  0.00  0.00    -0.174 NA
BRANCH   7  19
ATOM     19  C   LIG    1       24.205 -27.962  13.082  0.00  0.00    +0.059 C 
BRANCH  19  21
ATOM     20  C   LIG    1       22.201 -26.410  13.364  0.00  0.00    +0.004 C 
ATOM     21  C   LIG    1       22.682 -27.816  13.031  0.00  0.00    +0.003 C 
ENDBRANCH  19  21
ENDBRANCH   7  19
ENDBRANCH   1  10
BRANCH   5  22
ATOM     22  S   LIG    1       25.705 -25.994   5.637  0.00  0.00    +0.061 S 
ATOM     23  O   LIG    1       25.137 -25.618   4.362  0.00  0.00    -0.153 OA
ATOM     24  O   LIG    1       27.145 -26.025   5.839  0.00  0.00    -0.153 OA
BRANCH  22  25
ATOM     25  N   LIG    1       25.013 -25.020   6.848  0.00  0.00    -0.174 NA
ATOM     26  C   LIG    1       25.882 -23.938   7.399  0.00  0.00    +0.124 C 
ATOM     27  C   LIG    1       25.806 -22.642   6.568  0.00  0.00    +0.101 C 
ATOM     28  N   LIG    1       24.446 -22.120   6.329  0.00  0.00    -0.303 NA
ATOM     29  C   LIG    1       23.892 -21.443   7.497  0.00  0.00    +0.105 C 
ATOM     30  C   LIG    1       23.568 -23.199   5.838  0.00  0.00    +0.101 C 
ATOM     31  C   LIG    1       23.621 -24.525   6.626  0.00  0.00    +0.124 C 
ENDBRANCH  22  25
ENDBRANCH   5  22
BRANCH   2  32
ATOM     32  O   LIG    1       23.539 -31.369   7.021  0.00  0.00    -0.491 OA
BRANCH  32  33
ATOM     33  C   LIG    1       23.595 -32.401   6.031  0.00  0.00    +0.226 C 
ATOM     34  C   LIG    1       24.942 -33.094   6.144  0.00  0.00    +0.048 C 
ENDBRANCH  32  33
ENDBRANCH   2  32
TORSDOF 7
ENDMDL
MODEL 6
REMARK VINA RESULT:      -6.6      6.799     10.498
REMARK  Name = *****
REMARK                            x       y       z     vdW  Elec       q    Type
REMARK                         _______ _______ _______ _____ _____    ______ ____
ROOT
ATOM      1  C   LIG    1       22.942 -30.205  10.711  0.00  0.00    +0.061 A 
ATOM      2  C   LIG    1       21.569 -30.483  10.930  0.00  0.00    +0.131 A 
ATOM      3  C   LIG    1       20.968 -30.135  12.146  0.00  0.00    +0.048 A 
ATOM      4  C   LIG    1       21.703 -29.503  13.148  0.00  0.00    +0.032 A 
ATOM      5  C   LIG    1       23.061 -29.249  12.950  0.00  0.00    +0.106 A 
ATOM      6  C   LIG    1       23.673 -29.563  11.729  0.00  0.00    +0.043 A 
ENDROOT
BRANCH   1  10
ATOM      7  C   LIG    1       24.742 -29.653   6.090  0.00  0.00    +0.089 A 
ATOM      8  C   LIG    1       24.478 -30.238   7.343  0.00  0.00    +0.119 A 
ATOM      9  N   LIG    1       23.755 -29.749   8.440  0.00  0.00    -0.225 NA
ATOM     10  C   LIG    1       23.671 -30.586   9.438  0.00  0.00    +0.145 C 
ATOM     11  N   LIG    1       24.245 -31.857   9.421  0.00  0.00    -0.305 N 
ATOM     12  H   LIG    1       24.154 -32.456  10.228  0.00  0.00    +0.170 HD
ATOM     13  C   LIG    1       24.985 -32.373   8.392  0.00  0.00    +0.278 C 
ATOM     14  O   LIG    1       25.502 -33.485   8.439  0.00  0.00    -0.266 OA
ATOM     15  C   LIG    1       25.067 -31.468   7.315  0.00  0.00    +0.151 A 
ATOM     16  N   LIG    1       25.692 -31.559   6.112  0.00  0.00    -0.260 N 
ATOM     17  C   LIG    1       26.549 -32.630   5.663  0.00  0.00    +0.173 C 
ATOM     18  N   LIG    1       25.493 -30.473   5.327  0.00  0.00    -0.174 NA
BRANCH   7  19
ATOM     19  C   LIG    1       24.300 -28.327   5.575  0.00  0.00    +0.059 C 
BRANCH  19  21
ATOM     20  C   LIG    1       24.203 -25.836   6.113  0.00  0.00    +0.004 C 
ATOM     21  C   LIG    1       24.966 -27.143   6.282  0.00  0.00    +0.003 C 
ENDBRANCH  19  21
ENDBRANCH   7  19
ENDBRANCH   1  10
BRANCH   5  22
ATOM     22  S   LIG    1       23.992 -28.486  14.270  0.00  0.00    +0.061 S 
ATOM     23  O   LIG    1       24.843 -29.495  14.858  0.00  0.00    -0.153 OA
ATOM     24  O   LIG    1       23.038 -27.741  15.077  0.00  0.00    -0.153 OA
BRANCH  22  25
ATOM     25  N   LIG    1       24.969 -27.374  13.431  0.00  0.00    -0.174 NA
ATOM     26  C   LIG    1       24.764 -25.934  13.765  0.00  0.00    +0.124 C 
ATOM     27  C   LIG    1       25.608 -25.485  14.974  0.00  0.00    +0.101 C 
ATOM     28  N   LIG    1       27.052 -25.778  14.885  0.00  0.00    -0.303 NA
ATOM     29  C   LIG    1       27.758 -24.852  14.006  0.00  0.00    +0.105 C 
ATOM     30  C   LIG    1       27.260 -27.187  14.499  0.00  0.00    +0.101 C 
ATOM     31  C   LIG    1       26.423 -27.691  13.303  0.00  0.00    +0.124 C 
ENDBRANCH  22  25
ENDBRANCH   5  22
BRANCH   2  32
ATOM     32  O   LIG    1       20.867 -31.139   9.945  0.00  0.00    -0.491 OA
BRANCH  32  33
ATOM     33  C   LIG    1       19.787 -31.976  10.370  0.00  0.00    +0.226 C 
ATOM     34  C   LIG    1       18.486 -31.338   9.912  0.00  0.00    +0.048 C 
ENDBRANCH  32  33
ENDBRANCH   2  32
TORSDOF 7
ENDMDL
MODEL 7
REMARK VINA RESULT:      -6.2      2.832      8.978
REMARK  Name = *****
REMARK                            x       y       z     vdW  Elec       q    Type
REMARK                         _______ _______ _______ _____ _____    ______ ____
ROOT
ATOM      1  C   LIG    1       26.351 -22.669   7.324  0.00  0.00    +0.061 A 
ATOM      2  C   LIG    1       25.354 -21.739   7.716  0.00  0.00    +0.131 A 
ATOM      3  C   LIG    1       25.721 -20.468   8.174  0.00  0.00    +0.048 A 
ATOM      4  C   LIG    1       27.064 -20.094   8.237  0.00  0.00    +0.032 A 
ATOM      5  C   LIG    1       28.051 -21.012   7.876  0.00  0.00    +0.106 A 
ATOM      6  C   LIG    1       27.703 -22.279   7.388  0.00  0.00    +0.043 A 
ENDROOT
BRANCH   1  10
ATOM      7  C   LIG    1       25.908 -27.630   7.604  0.00  0.00    +0.089 A 
ATOM      8  C   LIG    1       25.836 -26.326   7.080  0.00  0.00    +0.119 A 
ATOM      9  N   LIG    1       26.192 -25.096   7.651  0.00  0.00    -0.225 NA
ATOM     10  C   LIG    1       26.033 -24.074   6.855  0.00  0.00    +0.145 C 
ATOM     11  N   LIG    1       25.554 -24.188   5.550  0.00  0.00    -0.305 N 
ATOM     12  H   LIG    1       25.443 -23.358   4.986  0.00  0.00    +0.170 HD
ATOM     13  C   LIG    1       25.163 -25.356   4.954  0.00  0.00    +0.278 C 
ATOM     14  O   LIG    1       24.713 -25.400   3.813  0.00  0.00    -0.266 OA
ATOM     15  C   LIG    1       25.343 -26.457   5.815  0.00  0.00    +0.151 A 
ATOM     16  N   LIG    1       25.090 -27.780   5.643  0.00  0.00    -0.260 N 
ATOM     17  C   LIG    1       24.452 -28.398   4.506  0.00  0.00    +0.173 C 
ATOM     18  N   LIG    1       25.446 -28.531   6.713  0.00  0.00    -0.174 NA
BRANCH   7  19
ATOM     19  C   LIG    1       26.408 -28.066   8.938  0.00  0.00    +0.059 C 
BRANCH  19  21
ATOM     20  C   LIG    1       26.943 -30.407   9.800  0.00  0.00    +0.004 C 
ATOM     21  C   LIG    1       25.857 -29.423   9.385  0.00  0.00    +0.003 C 
ENDBRANCH  19  21
ENDBRANCH   7  19
ENDBRANCH   1  10
BRANCH   5  22
ATOM     22  S   LIG    1       29.765 -20.527   8.017  0.00  0.00    +0.061 S 
ATOM     23  O   LIG    1       30.328 -20.484   6.687  0.00  0.00    -0.153 OA
ATOM     24  O   LIG    1       30.351 -21.362   9.055  0.00  0.00    -0.153 OA
BRANCH  22  25
ATOM     25  N   LIG    1       29.647 -18.937   8.608  0.00  0.00    -0.174 NA
ATOM     26  C   LIG    1       29.826 -18.766  10.080  0.00  0.00    +0.124 C 
ATOM     27  C   LIG    1       31.307 -18.610  10.478  0.00  0.00    +0.101 C 
ATOM     28  N   LIG    1       32.050 -17.557   9.758  0.00  0.00    -0.303 NA
ATOM     29  C   LIG    1       31.742 -16.218  10.248  0.00  0.00    +0.105 C 
ATOM     30  C   LIG    1       31.830 -17.687   8.305  0.00  0.00    +0.101 C 
ATOM     31  C   LIG    1       30.364 -17.864   7.856  0.00  0.00    +0.124 C 
ENDBRANCH  22  25
ENDBRANCH   5  22
BRANCH   2  32
ATOM     32  O   LIG    1       24.038 -22.135   7.681  0.00  0.00    -0.491 OA
BRANCH  32  33
ATOM     33  C   LIG    1       23.105 -21.228   7.085  0.00  0.00    +0.226 C 
ATOM     34  C   LIG    1       23.219 -21.356   5.576  0.00  0.00    +0.048 C 
ENDBRANCH  32  33
ENDBRANCH   2  32
TORSDOF 7
ENDMDL
MODEL 8
REMARK VINA RESULT:      -6.2      6.997     10.662
REMARK  Name = *****
REMARK                            x       y       z     vdW  Elec       q    Type
REMARK                         _______ _______ _______ _____ _____    ______ ____
ROOT
ATOM      1  C   LIG    1       24.686 -29.627  11.372  0.00  0.00    +0.061 A 
ATOM      2  C   LIG    1       25.387 -28.550  11.972  0.00  0.00    +0.131 A 
ATOM      3  C   LIG    1       24.926 -27.994  13.172  0.00  0.00    +0.048 A 
ATOM      4  C   LIG    1       23.785 -28.497  13.797  0.00  0.00    +0.032 A 
ATOM      5  C   LIG    1       23.076 -29.540  13.200  0.00  0.00    +0.106 A 
ATOM      6  C   LIG    1       23.538 -30.129  12.015  0.00  0.00    +0.043 A 
ENDROOT
BRANCH   1  10
ATOM      7  C   LIG    1       24.932 -30.222   6.424  0.00  0.00    +0.089 A 
ATOM      8  C   LIG    1       25.181 -30.434   7.793  0.00  0.00    +0.119 A 
ATOM      9  N   LIG    1       24.695 -29.756   8.921  0.00  0.00    -0.225 NA
ATOM     10  C   LIG    1       25.101 -30.254  10.057  0.00  0.00    +0.145 C 
ATOM     11  N   LIG    1       25.942 -31.363  10.149  0.00  0.00    -0.305 N 
ATOM     12  H   LIG    1       26.231 -31.696  11.057  0.00  0.00    +0.170 HD
ATOM     13  C   LIG    1       26.470 -32.043   9.084  0.00  0.00    +0.278 C 
ATOM     14  O   LIG    1       27.236 -32.992   9.217  0.00  0.00    -0.266 OA
ATOM     15  C   LIG    1       26.023 -31.505   7.861  0.00  0.00    +0.151 A 
ATOM     16  N   LIG    1       26.290 -31.856   6.576  0.00  0.00    -0.260 N 
ATOM     17  C   LIG    1       27.224 -32.863   6.132  0.00  0.00    +0.173 C 
ATOM     18  N   LIG    1       25.620 -31.104   5.670  0.00  0.00    -0.174 NA
BRANCH   7  19
ATOM     19  C   LIG    1       24.052 -29.201   5.790  0.00  0.00    +0.059 C 
BRANCH  19  21
ATOM     20  C   LIG    1       24.367 -26.687   6.083  0.00  0.00    +0.004 C 
ATOM     21  C   LIG    1       24.800 -27.944   5.339  0.00  0.00    +0.003 C 
ENDBRANCH  19  21
ENDBRANCH   7  19
ENDBRANCH   1  10
BRANCH   5  22
ATOM     22  S   LIG    1       21.589 -30.131  13.995  0.00  0.00    +0.061 S 
ATOM     23  O   LIG    1       21.667 -29.794  15.397  0.00  0.00    -0.153 OA
ATOM     24  O   LIG    1       21.403 -31.508  13.561  0.00  0.00    -0.153 OA
BRANCH  22  25
ATOM     25  N   LIG    1       20.384 -29.173  13.272  0.00  0.00    -0.174 NA
ATOM     26  C   LIG    1       19.016 -29.283  13.857  0.00  0.00    +0.124 C 
ATOM     27  C   LIG    1       18.806 -28.327  15.047  0.00  0.00    +0.101 C 
ATOM     28  N   LIG    1       19.126 -26.909  14.788  0.00  0.00    -0.303 NA
ATOM     29  C   LIG    1       18.089 -26.232  14.018  0.00  0.00    +0.105 C 
ATOM     30  C   LIG    1       20.455 -26.799  14.157  0.00  0.00    +0.101 C 
ATOM     31  C   LIG    1       20.722 -27.749  12.970  0.00  0.00    +0.124 C 
ENDBRANCH  22  25
ENDBRANCH   5  22
BRANCH   2  32
ATOM     32  O   LIG    1       26.489 -28.043  11.324  0.00  0.00    -0.491 OA
BRANCH  32  33
ATOM     33  C   LIG    1       27.719 -28.028  12.056  0.00  0.00    +0.226 C 
ATOM     34  C   LIG    1       28.417 -29.358  11.835  0.00  0.00    +0.048 C 
ENDBRANCH  32  33
ENDBRANCH   2  32
TORSDOF 7
ENDMDL
MODEL 9
REMARK VINA RESULT:      -6.0      5.572     10.810
REMARK  Name = *****
REMARK                            x       y       z     vdW  Elec       q    Type
REMARK                         _______ _______ _______ _____ _____    ______ ____
ROOT
ATOM      1  C   LIG    1       24.191 -30.752  10.305  0.00  0.00    +0.061 A 
ATOM      2  C   LIG    1       25.519 -31.057  10.694  0.00  0.00    +0.131 A 
ATOM      3  C   LIG    1       26.531 -31.149   9.730  0.00  0.00    +0.048 A 
ATOM      4  C   LIG    1       26.250 -30.929   8.381  0.00  0.00    +0.032 A 
ATOM      5  C   LIG    1       24.940 -30.653   7.987  0.00  0.00    +0.106 A 
ATOM      6  C   LIG    1       23.920 -30.528   8.941  0.00  0.00    +0.043 A 
ENDROOT
BRANCH   1  10
ATOM      7  C   LIG    1       20.703 -28.605  13.155  0.00  0.00    +0.089 A 
ATOM      8  C   LIG    1       21.461 -29.614  12.531  0.00  0.00    +0.119 A 
ATOM      9  N   LIG    1       22.535 -29.521  11.634  0.00  0.00    -0.225 NA
ATOM     10  C   LIG    1       23.038 -30.673  11.285  0.00  0.00    +0.145 C 
ATOM     11  N   LIG    1       22.557 -31.893  11.758  0.00  0.00    -0.305 N 
ATOM     12  H   LIG    1       22.982 -32.753  11.443  0.00  0.00    +0.170 HD
ATOM     13  C   LIG    1       21.494 -32.045  12.608  0.00  0.00    +0.278 C 
ATOM     14  O   LIG    1       21.084 -33.144  12.969  0.00  0.00    -0.266 OA
ATOM     15  C   LIG    1       20.959 -30.798  12.987  0.00  0.00    +0.151 A 
ATOM     16  N   LIG    1       19.918 -30.478  13.798  0.00  0.00    -0.260 N 
ATOM     17  C   LIG    1       18.998 -31.396  14.427  0.00  0.00    +0.173 C 
ATOM     18  N   LIG    1       19.747 -29.141  13.941  0.00  0.00    -0.174 NA
BRANCH   7  19
ATOM     19  C   LIG    1       20.852 -27.128  13.037  0.00  0.00    +0.059 C 
BRANCH  19  21
ATOM     20  C   LIG    1       23.247 -26.354  13.454  0.00  0.00    +0.004 C 
ATOM     21  C   LIG    1       21.850 -26.532  14.034  0.00  0.00    +0.003 C 
ENDBRANCH  19  21
ENDBRANCH   7  19
ENDBRANCH   1  10
BRANCH   5  22
ATOM     22  S   LIG    1       24.597 -30.428   6.248  0.00  0.00    +0.061 S 
ATOM     23  O   LIG    1       23.414 -31.192   5.924  0.00  0.00    -0.153 OA
ATOM     24  O   LIG    1       25.851 -30.647   5.544  0.00  0.00    -0.153 OA
BRANCH  22  25
ATOM     25  N   LIG    1       24.215 -28.773   6.163  0.00  0.00    -0.174 NA
ATOM     26  C   LIG    1       24.626 -27.941   7.332  0.00  0.00    +0.124 C 
ATOM     27  C   LIG    1       26.074 -27.426   7.207  0.00  0.00    +0.101 C 
ATOM     28  N   LIG    1       26.390 -26.717   5.952  0.00  0.00    -0.303 NA
ATOM     29  C   LIG    1       25.868 -25.354   5.931  0.00  0.00    +0.105 C 
ATOM     30  C   LIG    1       25.934 -27.510   4.794  0.00  0.00    +0.101 C 
ATOM     31  C   LIG    1       24.496 -28.064   4.878  0.00  0.00    +0.124 C 
ENDBRANCH  22  25
ENDBRANCH   5  22
BRANCH   2  32
ATOM     32  O   LIG    1       25.773 -31.305  12.023  0.00  0.00    -0.491 OA
BRANCH  32  33
ATOM     33  C   LIG    1       26.522 -30.315  12.735  0.00  0.00    +0.226 C 
ATOM     34  C   LIG    1       25.569 -29.567  13.650  0.00  0.00    +0.048 C 
ENDBRANCH  32  33
ENDBRANCH   2  32
TORSDOF 7
ENDMDL
