MODEL 1
REMARK VINA RESULT:      -9.0      0.000      0.000
REMARK  Name = *****
REMARK                            x       y       z     vdW  Elec       q    Type
REMARK                         _______ _______ _______ _____ _____    ______ ____
ROOT
ATOM      1  C   LIG    1       22.710 -23.247   6.853  0.00  0.00    +0.001 C 
ENDROOT
BRANCH   1   2
ATOM      2  C   LIG    1       23.734 -24.364   6.560  0.00  0.00    +0.015 C 
BRANCH   2   3
ATOM      3  C   LIG    1       25.225 -24.061   6.806  0.00  0.00    +0.081 C 
BRANCH   3   4
ATOM      4  N   LIG    1       26.150 -24.742   5.887  0.00  0.00    -0.313 NA
ATOM      5  H   LIG    1       26.617 -24.065   5.279  0.00  0.00    +0.122 HD
BRANCH   4   6
ATOM      6  C   LIG    1       25.421 -25.688   5.008  0.00  0.00    +0.117 C 
BRANCH   6   7
ATOM      7  C   LIG    1       26.062 -27.101   4.919  0.00  0.00    +0.158 C 
BRANCH   7  11
ATOM      8  C   LIG    1       24.212 -29.992   7.543  0.00  0.00    +0.158 A 
ATOM      9  C   LIG    1       24.048 -30.071   6.166  0.00  0.00    +0.159 A 
ATOM     10  C   LIG    1       24.651 -29.147   5.321  0.00  0.00    +0.055 A 
ATOM     11  C   LIG    1       25.429 -28.108   5.854  0.00  0.00    -0.014 A 
ATOM     12  C   LIG    1       25.561 -28.015   7.251  0.00  0.00    +0.010 A 
ATOM     13  C   LIG    1       24.955 -28.952   8.095  0.00  0.00    +0.049 A 
BRANCH   8  14
ATOM     14  O   LIG    1       23.670 -30.961   8.338  0.00  0.00    -0.503 OA
ATOM     15  H   LIG    1       22.721 -30.782   8.433  0.00  0.00    +0.292 HD
ENDBRANCH   8  14
BRANCH   9  16
ATOM     16  O   LIG    1       23.328 -31.078   5.590  0.00  0.00    -0.503 OA
ATOM     17  H   LIG    1       23.896 -31.421   4.879  0.00  0.00    +0.292 HD
ENDBRANCH   9  16
ENDBRANCH   7  11
BRANCH   7  18
ATOM     18  O   LIG    1       27.480 -27.025   5.117  0.00  0.00    -0.386 OA
ATOM     19  H   LIG    1       27.641 -27.408   5.998  0.00  0.00    +0.210 HD
ENDBRANCH   7  18
ENDBRANCH   6   7
ENDBRANCH   4   6
ENDBRANCH   3   4
ENDBRANCH   2   3
ENDBRANCH   1   2
BRANCH   1  20
ATOM     20  C   LIG    1       23.307 -21.860   7.296  0.00  0.00    +0.001 C 
BRANCH  20  21
ATOM     21  C   LIG    1       23.313 -20.794   6.162  0.00  0.00    +0.015 C 
BRANCH  21  22
ATOM     22  C   LIG    1       24.205 -20.924   4.880  0.00  0.00    +0.081 C 
BRANCH  22  23
ATOM     23  N   LIG    1       25.678 -21.047   4.931  0.00  0.00    -0.313 NA
ATOM     24  H   LIG    1       26.052 -20.646   4.071  0.00  0.00    +0.122 HD
BRANCH  23  25
ATOM     25  C   LIG    1       26.385 -20.372   6.042  0.00  0.00    +0.117 C 
BRANCH  25  26
ATOM     26  C   LIG    1       27.839 -20.019   5.732  0.00  0.00    +0.158 C 
BRANCH  26  27
ATOM     27  C   LIG    1       28.966 -20.017   6.695  0.00  0.00    -0.014 A 
ATOM     28  C   LIG    1       29.133 -21.008   7.683  0.00  0.00    +0.055 A 
ATOM     29  C   LIG    1       30.204 -20.981   8.525  0.00  0.00    +0.159 A 
ATOM     30  C   LIG    1       31.129 -19.909   8.438  0.00  0.00    +0.158 A 
ATOM     31  C   LIG    1       30.870 -18.859   7.576  0.00  0.00    +0.049 A 
ATOM     32  C   LIG    1       29.810 -18.887   6.719  0.00  0.00    +0.010 A 
BRANCH  30  33
ATOM     33  O   LIG    1       32.232 -19.970   9.215  0.00  0.00    -0.503 OA
ATOM     34  H   LIG    1       32.278 -20.889   9.569  0.00  0.00    +0.292 HD
ENDBRANCH  30  33
BRANCH  29  35
ATOM     35  O   LIG    1       30.441 -21.986   9.405  0.00  0.00    -0.503 OA
ATOM     36  H   LIG    1       31.415 -22.050   9.459  0.00  0.00    +0.292 HD
ENDBRANCH  29  35
ENDBRANCH  26  27
BRANCH  26  37
ATOM     37  O   LIG    1       27.952 -18.963   4.792  0.00  0.00    -0.386 OA
ATOM     38  H   LIG    1       28.152 -18.144   5.263  0.00  0.00    +0.210 HD
ENDBRANCH  26  37
ENDBRANCH  25  26
ENDBRANCH  23  25
ENDBRANCH  22  23
ENDBRANCH  21  22
ENDBRANCH  20  21
ENDBRANCH   1  20
TORSDOF 19
ENDMDL
MODEL 2
REMARK VINA RESULT:      -8.9      1.464      1.767
REMARK  Name = *****
REMARK                            x       y       z     vdW  Elec       q    Type
REMARK                         _______ _______ _______ _____ _____    ______ ____
ROOT
ATOM      1  C   LIG    1       23.323 -20.717   6.696  0.00  0.00    +0.001 C 
ENDROOT
BRANCH   1   2
ATOM      2  C   LIG    1       23.052 -22.126   7.263  0.00  0.00    +0.015 C 
BRANCH   2   3
ATOM      3  C   LIG    1       23.271 -23.335   6.332  0.00  0.00    +0.081 C 
BRANCH   3   4
ATOM      4  N   LIG    1       24.511 -23.285   5.541  0.00  0.00    -0.313 NA
ATOM      5  H   LIG    1       24.367 -22.754   4.678  0.00  0.00    +0.122 HD
BRANCH   4   6
ATOM      6  C   LIG    1       24.940 -24.649   5.147  0.00  0.00    +0.117 C 
BRANCH   6   7
ATOM      7  C   LIG    1       25.901 -25.333   6.159  0.00  0.00    +0.158 C 
BRANCH   7  11
ATOM      8  C   LIG    1       24.703 -29.372   7.114  0.00  0.00    +0.158 A 
ATOM      9  C   LIG    1       24.124 -28.689   6.052  0.00  0.00    +0.159 A 
ATOM     10  C   LIG    1       24.517 -27.393   5.739  0.00  0.00    +0.055 A 
ATOM     11  C   LIG    1       25.501 -26.751   6.504  0.00  0.00    -0.014 A 
ATOM     12  C   LIG    1       26.057 -27.437   7.599  0.00  0.00    +0.010 A 
ATOM     13  C   LIG    1       25.659 -28.743   7.907  0.00  0.00    +0.049 A 
BRANCH   8  14
ATOM     14  O   LIG    1       24.349 -30.671   7.346  0.00  0.00    -0.503 OA
ATOM     15  H   LIG    1       24.944 -31.245   6.839  0.00  0.00    +0.292 HD
ENDBRANCH   8  14
BRANCH   9  16
ATOM     16  O   LIG    1       23.184 -29.275   5.255  0.00  0.00    -0.503 OA
ATOM     17  H   LIG    1       23.217 -30.221   5.477  0.00  0.00    +0.292 HD
ENDBRANCH   9  16
ENDBRANCH   7  11
BRANCH   7  18
ATOM     18  O   LIG    1       26.047 -24.531   7.339  0.00  0.00    -0.386 OA
ATOM     19  H   LIG    1       25.646 -25.051   8.058  0.00  0.00    +0.210 HD
ENDBRANCH   7  18
ENDBRANCH   6   7
ENDBRANCH   4   6
ENDBRANCH   3   4
ENDBRANCH   2   3
ENDBRANCH   1   2
BRANCH   1  20
ATOM     20  C   LIG    1       22.695 -20.406   5.287  0.00  0.00    +0.001 C 
BRANCH  20  21
ATOM     21  C   LIG    1       23.592 -19.500   4.392  0.00  0.00    +0.015 C 
BRANCH  21  22
ATOM     22  C   LIG    1       24.953 -19.988   3.787  0.00  0.00    +0.081 C 
BRANCH  22  23
ATOM     23  N   LIG    1       25.970 -20.719   4.573  0.00  0.00    -0.313 NA
ATOM     24  H   LIG    1       26.527 -21.271   3.920  0.00  0.00    +0.122 HD
BRANCH  23  25
ATOM     25  C   LIG    1       26.933 -19.918   5.362  0.00  0.00    +0.117 C 
BRANCH  25  26
ATOM     26  C   LIG    1       27.365 -20.578   6.671  0.00  0.00    +0.158 C 
BRANCH  26  27
ATOM     27  C   LIG    1       28.633 -20.335   7.398  0.00  0.00    -0.014 A 
ATOM     28  C   LIG    1       29.515 -21.370   7.769  0.00  0.00    +0.055 A 
ATOM     29  C   LIG    1       30.687 -21.094   8.407  0.00  0.00    +0.159 A 
ATOM     30  C   LIG    1       30.992 -19.751   8.749  0.00  0.00    +0.158 A 
ATOM     31  C   LIG    1       30.050 -18.764   8.526  0.00  0.00    +0.049 A 
ATOM     32  C   LIG    1       28.882 -19.030   7.873  0.00  0.00    +0.010 A 
BRANCH  30  33
ATOM     33  O   LIG    1       32.206 -19.503   9.286  0.00  0.00    -0.503 OA
ATOM     34  H   LIG    1       32.205 -18.556   9.561  0.00  0.00    +0.292 HD
ENDBRANCH  30  33
BRANCH  29  35
ATOM     35  O   LIG    1       31.598 -22.064   8.671  0.00  0.00    -0.503 OA
ATOM     36  H   LIG    1       32.015 -22.259   7.809  0.00  0.00    +0.292 HD
ENDBRANCH  29  35
ENDBRANCH  26  27
BRANCH  26  37
ATOM     37  O   LIG    1       26.969 -21.938   6.749  0.00  0.00    -0.386 OA
ATOM     38  H   LIG    1       26.071 -21.984   7.101  0.00  0.00    +0.210 HD
ENDBRANCH  26  37
ENDBRANCH  25  26
ENDBRANCH  23  25
ENDBRANCH  22  23
ENDBRANCH  21  22
ENDBRANCH  20  21
ENDBRANCH   1  20
TORSDOF 19
ENDMDL
MODEL 3
REMARK VINA RESULT:      -8.9      0.725      9.112
REMARK  Name = *****
REMARK                            x       y       z     vdW  Elec       q    Type
REMARK                         _______ _______ _______ _____ _____    ______ ____
ROOT
ATOM      1  C   LIG    1       23.050 -20.340   6.430  0.00  0.00    +0.001 C 
ENDROOT
BRANCH   1   2
ATOM      2  C   LIG    1       23.332 -20.582   4.932  0.00  0.00    +0.015 C 
BRANCH   2   3
ATOM      3  C   LIG    1       24.762 -20.332   4.415  0.00  0.00    +0.081 C 
BRANCH   3   4
ATOM      4  N   LIG    1       25.801 -21.146   5.065  0.00  0.00    -0.313 NA
ATOM      5  H   LIG    1       25.378 -21.892   5.622  0.00  0.00    +0.122 HD
BRANCH   4   6
ATOM      6  C   LIG    1       26.616 -20.320   5.989  0.00  0.00    +0.117 C 
BRANCH   6   7
ATOM      7  C   LIG    1       28.046 -20.002   5.468  0.00  0.00    +0.158 C 
BRANCH   7  11
ATOM      8  C   LIG    1       31.158 -20.476   8.427  0.00  0.00    +0.158 A 
ATOM      9  C   LIG    1       31.176 -19.409   7.537  0.00  0.00    +0.159 A 
ATOM     10  C   LIG    1       30.170 -19.251   6.592  0.00  0.00    +0.055 A 
ATOM     11  C   LIG    1       29.122 -20.181   6.517  0.00  0.00    -0.014 A 
ATOM     12  C   LIG    1       29.130 -21.277   7.398  0.00  0.00    +0.010 A 
ATOM     13  C   LIG    1       30.144 -21.428   8.350  0.00  0.00    +0.049 A 
BRANCH   8  14
ATOM     14  O   LIG    1       32.120 -20.558   9.393  0.00  0.00    -0.503 OA
ATOM     15  H   LIG    1       32.313 -19.661   9.709  0.00  0.00    +0.292 HD
ENDBRANCH   8  14
BRANCH   9  16
ATOM     16  O   LIG    1       32.153 -18.458   7.585  0.00  0.00    -0.503 OA
ATOM     17  H   LIG    1       32.262 -18.254   8.529  0.00  0.00    +0.292 HD
ENDBRANCH   9  16
ENDBRANCH   7  11
BRANCH   7  18
ATOM     18  O   LIG    1       28.093 -18.689   4.893  0.00  0.00    -0.386 OA
ATOM     19  H   LIG    1       27.230 -18.565   4.457  0.00  0.00    +0.210 HD
ENDBRANCH   7  18
ENDBRANCH   6   7
ENDBRANCH   4   6
ENDBRANCH   3   4
ENDBRANCH   2   3
ENDBRANCH   1   2
BRANCH   1  20
ATOM     20  C   LIG    1       23.257 -21.577   7.380  0.00  0.00    +0.001 C 
BRANCH  20  21
ATOM     21  C   LIG    1       23.040 -22.948   6.674  0.00  0.00    +0.015 C 
BRANCH  21  22
ATOM     22  C   LIG    1       24.139 -24.065   6.635  0.00  0.00    +0.081 C 
BRANCH  22  23
ATOM     23  N   LIG    1       24.041 -25.263   5.774  0.00  0.00    -0.313 NA
ATOM     24  H   LIG    1       23.223 -25.148   5.175  0.00  0.00    +0.122 HD
BRANCH  23  25
ATOM     25  C   LIG    1       25.176 -25.553   4.870  0.00  0.00    +0.117 C 
BRANCH  25  26
ATOM     26  C   LIG    1       25.907 -26.857   5.188  0.00  0.00    +0.158 C 
BRANCH  26  27
ATOM     27  C   LIG    1       25.369 -27.995   5.970  0.00  0.00    -0.014 A 
ATOM     28  C   LIG    1       24.506 -28.964   5.421  0.00  0.00    +0.055 A 
ATOM     29  C   LIG    1       24.064 -30.012   6.172  0.00  0.00    +0.159 A 
ATOM     30  C   LIG    1       24.437 -30.093   7.539  0.00  0.00    +0.158 A 
ATOM     31  C   LIG    1       25.151 -29.055   8.109  0.00  0.00    +0.049 A 
ATOM     32  C   LIG    1       25.610 -28.011   7.360  0.00  0.00    +0.010 A 
BRANCH  30  33
ATOM     33  O   LIG    1       24.068 -31.197   8.223  0.00  0.00    -0.503 OA
ATOM     34  H   LIG    1       23.109 -31.333   8.044  0.00  0.00    +0.292 HD
ENDBRANCH  30  33
BRANCH  29  35
ATOM     35  O   LIG    1       23.325 -31.012   5.631  0.00  0.00    -0.503 OA
ATOM     36  H   LIG    1       23.979 -31.633   5.252  0.00  0.00    +0.292 HD
ENDBRANCH  29  35
ENDBRANCH  26  27
BRANCH  26  37
ATOM     37  O   LIG    1       27.289 -26.657   5.437  0.00  0.00    -0.386 OA
ATOM     38  H   LIG    1       27.731 -26.443   4.606  0.00  0.00    +0.210 HD
ENDBRANCH  26  37
ENDBRANCH  25  26
ENDBRANCH  23  25
ENDBRANCH  22  23
ENDBRANCH  21  22
ENDBRANCH  20  21
ENDBRANCH   1  20
TORSDOF 19
ENDMDL
MODEL 4
REMARK VINA RESULT:      -8.8      0.781      9.306
REMARK  Name = *****
REMARK                            x       y       z     vdW  Elec       q    Type
REMARK                         _______ _______ _______ _____ _____    ______ ____
ROOT
ATOM      1  C   LIG    1       23.280 -20.626   6.712  0.00  0.00    +0.001 C 
ENDROOT
BRANCH   1   2
ATOM      2  C   LIG    1       23.853 -20.678   5.280  0.00  0.00    +0.015 C 
BRANCH   2   3
ATOM      3  C   LIG    1       25.359 -20.409   5.094  0.00  0.00    +0.081 C 
BRANCH   3   4
ATOM      4  N   LIG    1       26.244 -21.345   5.805  0.00  0.00    -0.313 NA
ATOM      5  H   LIG    1       25.696 -22.008   6.358  0.00  0.00    +0.122 HD
BRANCH   4   6
ATOM      6  C   LIG    1       27.131 -20.620   6.747  0.00  0.00    +0.117 C 
BRANCH   6   7
ATOM      7  C   LIG    1       28.501 -20.205   6.143  0.00  0.00    +0.158 C 
BRANCH   7  11
ATOM      8  C   LIG    1       31.322 -18.843   9.120  0.00  0.00    +0.158 A 
ATOM      9  C   LIG    1       31.217 -20.191   8.800  0.00  0.00    +0.159 A 
ATOM     10  C   LIG    1       30.317 -20.628   7.835  0.00  0.00    +0.055 A 
ATOM     11  C   LIG    1       29.488 -19.707   7.177  0.00  0.00    -0.014 A 
ATOM     12  C   LIG    1       29.575 -18.349   7.532  0.00  0.00    +0.010 A 
ATOM     13  C   LIG    1       30.487 -17.916   8.501  0.00  0.00    +0.049 A 
BRANCH   8  14
ATOM     14  O   LIG    1       32.270 -18.440  10.015  0.00  0.00    -0.503 OA
ATOM     15  H   LIG    1       33.126 -18.802   9.737  0.00  0.00    +0.292 HD
ENDBRANCH   8  14
BRANCH   9  16
ATOM     16  O   LIG    1       32.019 -21.127   9.385  0.00  0.00    -0.503 OA
ATOM     17  H   LIG    1       31.606 -21.313  10.245  0.00  0.00    +0.292 HD
ENDBRANCH   9  16
ENDBRANCH   7  11
BRANCH   7  18
ATOM     18  O   LIG    1       28.321 -19.247   5.092  0.00  0.00    -0.386 OA
ATOM     19  H   LIG    1       27.370 -19.271   4.878  0.00  0.00    +0.210 HD
ENDBRANCH   7  18
ENDBRANCH   6   7
ENDBRANCH   4   6
ENDBRANCH   3   4
ENDBRANCH   2   3
ENDBRANCH   1   2
BRANCH   1  20
ATOM     20  C   LIG    1       23.352 -21.966   7.534  0.00  0.00    +0.001 C 
BRANCH  20  21
ATOM     21  C   LIG    1       23.014 -23.232   6.694  0.00  0.00    +0.015 C 
BRANCH  21  22
ATOM     22  C   LIG    1       23.936 -24.499   6.661  0.00  0.00    +0.081 C 
BRANCH  22  23
ATOM     23  N   LIG    1       25.190 -24.566   5.879  0.00  0.00    -0.313 NA
ATOM     24  H   LIG    1       25.940 -24.826   6.520  0.00  0.00    +0.122 HD
BRANCH  23  25
ATOM     25  C   LIG    1       25.249 -25.532   4.760  0.00  0.00    +0.117 C 
BRANCH  25  26
ATOM     26  C   LIG    1       25.953 -26.843   5.106  0.00  0.00    +0.158 C 
BRANCH  26  27
ATOM     27  C   LIG    1       25.395 -27.948   5.922  0.00  0.00    -0.014 A 
ATOM     28  C   LIG    1       24.526 -28.926   5.398  0.00  0.00    +0.055 A 
ATOM     29  C   LIG    1       24.066 -29.942   6.180  0.00  0.00    +0.159 A 
ATOM     30  C   LIG    1       24.425 -29.980   7.553  0.00  0.00    +0.158 A 
ATOM     31  C   LIG    1       25.145 -28.931   8.094  0.00  0.00    +0.049 A 
ATOM     32  C   LIG    1       25.623 -27.919   7.314  0.00  0.00    +0.010 A 
BRANCH  30  33
ATOM     33  O   LIG    1       24.038 -31.056   8.271  0.00  0.00    -0.503 OA
ATOM     34  H   LIG    1       24.824 -31.348   8.789  0.00  0.00    +0.292 HD
ENDBRANCH  30  33
BRANCH  29  35
ATOM     35  O   LIG    1       23.321 -30.952   5.666  0.00  0.00    -0.503 OA
ATOM     36  H   LIG    1       23.922 -31.722   5.640  0.00  0.00    +0.292 HD
ENDBRANCH  29  35
ENDBRANCH  26  27
BRANCH  26  37
ATOM     37  O   LIG    1       27.340 -26.668   5.341  0.00  0.00    -0.386 OA
ATOM     38  H   LIG    1       27.545 -26.949   6.242  0.00  0.00    +0.210 HD
ENDBRANCH  26  37
ENDBRANCH  25  26
ENDBRANCH  23  25
ENDBRANCH  22  23
ENDBRANCH  21  22
ENDBRANCH  20  21
ENDBRANCH   1  20
TORSDOF 19
ENDMDL
MODEL 5
REMARK VINA RESULT:      -8.5      1.061      8.935
REMARK  Name = *****
REMARK                            x       y       z     vdW  Elec       q    Type
REMARK                         _______ _______ _______ _____ _____    ______ ____
ROOT
ATOM      1  C   LIG    1       22.941 -20.626   6.269  0.00  0.00    +0.001 C 
ENDROOT
BRANCH   1   2
ATOM      2  C   LIG    1       23.122 -19.670   5.071  0.00  0.00    +0.015 C 
BRANCH   2   3
ATOM      3  C   LIG    1       23.857 -20.202   3.826  0.00  0.00    +0.081 C 
BRANCH   3   4
ATOM      4  N   LIG    1       25.156 -20.835   4.102  0.00  0.00    -0.313 NA
ATOM      5  H   LIG    1       25.029 -21.702   4.630  0.00  0.00    +0.122 HD
BRANCH   4   6
ATOM      6  C   LIG    1       26.013 -19.945   4.923  0.00  0.00    +0.117 C 
BRANCH   6   7
ATOM      7  C   LIG    1       26.539 -20.595   6.233  0.00  0.00    +0.158 C 
BRANCH   7  11
ATOM      8  C   LIG    1       30.629 -19.588   7.195  0.00  0.00    +0.158 A 
ATOM      9  C   LIG    1       29.917 -20.498   7.968  0.00  0.00    +0.159 A 
ATOM     10  C   LIG    1       28.605 -20.830   7.652  0.00  0.00    +0.055 A 
ATOM     11  C   LIG    1       27.974 -20.236   6.548  0.00  0.00    -0.014 A 
ATOM     12  C   LIG    1       28.690 -19.289   5.793  0.00  0.00    +0.010 A 
ATOM     13  C   LIG    1       30.013 -18.964   6.114  0.00  0.00    +0.049 A 
BRANCH   8  14
ATOM     14  O   LIG    1       31.940 -19.344   7.487  0.00  0.00    -0.503 OA
ATOM     15  H   LIG    1       32.319 -18.813   6.769  0.00  0.00    +0.292 HD
ENDBRANCH   8  14
BRANCH   9  16
ATOM     16  O   LIG    1       30.489 -21.130   9.034  0.00  0.00    -0.503 OA
ATOM     17  H   LIG    1       31.206 -20.540   9.323  0.00  0.00    +0.292 HD
ENDBRANCH   9  16
ENDBRANCH   7  11
BRANCH   7  18
ATOM     18  O   LIG    1       26.353 -22.017   6.201  0.00  0.00    -0.386 OA
ATOM     19  H   LIG    1       26.051 -22.260   7.095  0.00  0.00    +0.210 HD
ENDBRANCH   7  18
ENDBRANCH   6   7
ENDBRANCH   4   6
ENDBRANCH   3   4
ENDBRANCH   2   3
ENDBRANCH   1   2
BRANCH   1  20
ATOM     20  C   LIG    1       22.535 -22.105   5.919  0.00  0.00    +0.001 C 
BRANCH  20  21
ATOM     21  C   LIG    1       23.050 -23.153   6.948  0.00  0.00    +0.015 C 
BRANCH  21  22
ATOM     22  C   LIG    1       23.682 -24.521   6.520  0.00  0.00    +0.081 C 
BRANCH  22  23
ATOM     23  N   LIG    1       25.063 -24.647   6.006  0.00  0.00    -0.313 NA
ATOM     24  H   LIG    1       25.641 -25.020   6.760  0.00  0.00    +0.122 HD
BRANCH  23  25
ATOM     25  C   LIG    1       25.283 -25.533   4.841  0.00  0.00    +0.117 C 
BRANCH  25  26
ATOM     26  C   LIG    1       25.977 -26.850   5.183  0.00  0.00    +0.158 C 
BRANCH  26  27
ATOM     27  C   LIG    1       25.401 -27.965   5.972  0.00  0.00    -0.014 A 
ATOM     28  C   LIG    1       24.528 -28.925   5.421  0.00  0.00    +0.055 A 
ATOM     29  C   LIG    1       24.050 -29.952   6.178  0.00  0.00    +0.159 A 
ATOM     30  C   LIG    1       24.395 -30.019   7.553  0.00  0.00    +0.158 A 
ATOM     31  C   LIG    1       25.119 -28.987   8.122  0.00  0.00    +0.049 A 
ATOM     32  C   LIG    1       25.614 -27.965   7.367  0.00  0.00    +0.010 A 
BRANCH  30  33
ATOM     33  O   LIG    1       23.990 -31.105   8.247  0.00  0.00    -0.503 OA
ATOM     34  H   LIG    1       23.517 -30.771   9.044  0.00  0.00    +0.292 HD
ENDBRANCH  30  33
BRANCH  29  35
ATOM     35  O   LIG    1       23.301 -30.944   5.637  0.00  0.00    -0.503 OA
ATOM     36  H   LIG    1       22.746 -30.503   4.964  0.00  0.00    +0.292 HD
ENDBRANCH  29  35
ENDBRANCH  26  27
BRANCH  26  37
ATOM     37  O   LIG    1       27.360 -26.682   5.449  0.00  0.00    -0.386 OA
ATOM     38  H   LIG    1       27.835 -27.469   5.153  0.00  0.00    +0.210 HD
ENDBRANCH  26  37
ENDBRANCH  25  26
ENDBRANCH  23  25
ENDBRANCH  22  23
ENDBRANCH  21  22
ENDBRANCH  20  21
ENDBRANCH   1  20
TORSDOF 19
ENDMDL
MODEL 6
REMARK VINA RESULT:      -8.3      1.664      2.436
REMARK  Name = *****
REMARK                            x       y       z     vdW  Elec       q    Type
REMARK                         _______ _______ _______ _____ _____    ______ ____
ROOT
ATOM      1  C   LIG    1       23.096 -23.800   6.562  0.00  0.00    +0.001 C 
ENDROOT
BRANCH   1   2
ATOM      2  C   LIG    1       24.380 -24.648   6.443  0.00  0.00    +0.015 C 
BRANCH   2   3
ATOM      3  C   LIG    1       24.228 -26.148   6.125  0.00  0.00    +0.081 C 
BRANCH   3   4
ATOM      4  N   LIG    1       25.334 -26.726   5.345  0.00  0.00    -0.313 NA
ATOM      5  H   LIG    1       25.438 -26.237   4.452  0.00  0.00    +0.122 HD
BRANCH   4   6
ATOM      6  C   LIG    1       25.071 -28.152   5.033  0.00  0.00    +0.117 C 
BRANCH   6   7
ATOM      7  C   LIG    1       24.219 -28.892   6.101  0.00  0.00    +0.158 C 
BRANCH   7  11
ATOM      8  C   LIG    1       26.573 -31.380   8.735  0.00  0.00    +0.158 A 
ATOM      9  C   LIG    1       26.183 -30.103   9.119  0.00  0.00    +0.159 A 
ATOM     10  C   LIG    1       25.417 -29.307   8.275  0.00  0.00    +0.055 A 
ATOM     11  C   LIG    1       25.036 -29.782   7.012  0.00  0.00    -0.014 A 
ATOM     12  C   LIG    1       25.465 -31.062   6.616  0.00  0.00    +0.010 A 
ATOM     13  C   LIG    1       26.232 -31.860   7.473  0.00  0.00    +0.049 A 
BRANCH   8  14
ATOM     14  O   LIG    1       27.258 -32.164   9.618  0.00  0.00    -0.503 OA
ATOM     15  H   LIG    1       27.186 -31.766  10.500  0.00  0.00    +0.292 HD
ENDBRANCH   8  14
BRANCH   9  16
ATOM     16  O   LIG    1       26.498 -29.601  10.348  0.00  0.00    -0.503 OA
ATOM     17  H   LIG    1       27.466 -29.506  10.343  0.00  0.00    +0.292 HD
ENDBRANCH   9  16
ENDBRANCH   7  11
BRANCH   7  18
ATOM     18  O   LIG    1       23.153 -29.623   5.478  0.00  0.00    -0.386 OA
ATOM     19  H   LIG    1       22.510 -29.801   6.188  0.00  0.00    +0.210 HD
ENDBRANCH   7  18
ENDBRANCH   6   7
ENDBRANCH   4   6
ENDBRANCH   3   4
ENDBRANCH   2   3
ENDBRANCH   1   2
BRANCH   1  20
ATOM     20  C   LIG    1       23.250 -22.412   7.288  0.00  0.00    +0.001 C 
BRANCH  20  21
ATOM     21  C   LIG    1       23.323 -21.203   6.309  0.00  0.00    +0.015 C 
BRANCH  21  22
ATOM     22  C   LIG    1       24.676 -20.650   5.744  0.00  0.00    +0.081 C 
BRANCH  22  23
ATOM     23  N   LIG    1       25.938 -21.420   5.774  0.00  0.00    -0.313 NA
ATOM     24  H   LIG    1       26.459 -21.193   4.927  0.00  0.00    +0.122 HD
BRANCH  23  25
ATOM     25  C   LIG    1       26.863 -21.178   6.904  0.00  0.00    +0.117 C 
BRANCH  25  26
ATOM     26  C   LIG    1       28.238 -20.661   6.483  0.00  0.00    +0.158 C 
BRANCH  26  27
ATOM     27  C   LIG    1       29.289 -20.132   7.384  0.00  0.00    -0.014 A 
ATOM     28  C   LIG    1       30.205 -20.960   8.064  0.00  0.00    +0.055 A 
ATOM     29  C   LIG    1       31.176 -20.424   8.856  0.00  0.00    +0.159 A 
ATOM     30  C   LIG    1       31.226 -19.018   9.039  0.00  0.00    +0.158 A 
ATOM     31  C   LIG    1       30.228 -18.228   8.498  0.00  0.00    +0.049 A 
ATOM     32  C   LIG    1       29.263 -18.755   7.691  0.00  0.00    +0.010 A 
BRANCH  30  33
ATOM     33  O   LIG    1       32.263 -18.516   9.744  0.00  0.00    -0.503 OA
ATOM     34  H   LIG    1       32.230 -17.537   9.635  0.00  0.00    +0.292 HD
ENDBRANCH  30  33
BRANCH  29  35
ATOM     35  O   LIG    1       32.133 -21.198   9.427  0.00  0.00    -0.503 OA
ATOM     36  H   LIG    1       32.786 -20.566   9.788  0.00  0.00    +0.292 HD
ENDBRANCH  29  35
ENDBRANCH  26  27
BRANCH  26  37
ATOM     37  O   LIG    1       28.198 -19.954   5.254  0.00  0.00    -0.386 OA
ATOM     38  H   LIG    1       28.769 -20.401   4.616  0.00  0.00    +0.210 HD
ENDBRANCH  26  37
ENDBRANCH  25  26
ENDBRANCH  23  25
ENDBRANCH  22  23
ENDBRANCH  21  22
ENDBRANCH  20  21
ENDBRANCH   1  20
TORSDOF 19
ENDMDL
MODEL 7
REMARK VINA RESULT:      -8.2      1.458      9.248
REMARK  Name = *****
REMARK                            x       y       z     vdW  Elec       q    Type
REMARK                         _______ _______ _______ _____ _____    ______ ____
ROOT
ATOM      1  C   LIG    1       23.177 -21.176   6.603  0.00  0.00    +0.001 C 
ENDROOT
BRANCH   1   2
ATOM      2  C   LIG    1       23.241 -20.750   5.121  0.00  0.00    +0.015 C 
BRANCH   2   3
ATOM      3  C   LIG    1       24.583 -20.225   4.577  0.00  0.00    +0.081 C 
BRANCH   3   4
ATOM      4  N   LIG    1       25.762 -21.003   4.989  0.00  0.00    -0.313 NA
ATOM      5  H   LIG    1       25.477 -21.869   5.453  0.00  0.00    +0.122 HD
BRANCH   4   6
ATOM      6  C   LIG    1       26.586 -20.240   5.958  0.00  0.00    +0.117 C 
BRANCH   6   7
ATOM      7  C   LIG    1       28.019 -19.909   5.456  0.00  0.00    +0.158 C 
BRANCH   7  11
ATOM      8  C   LIG    1       31.112 -20.485   8.418  0.00  0.00    +0.158 A 
ATOM      9  C   LIG    1       31.158 -19.410   7.538  0.00  0.00    +0.159 A 
ATOM     10  C   LIG    1       30.157 -19.220   6.592  0.00  0.00    +0.055 A 
ATOM     11  C   LIG    1       29.088 -20.123   6.506  0.00  0.00    -0.014 A 
ATOM     12  C   LIG    1       29.068 -21.228   7.376  0.00  0.00    +0.010 A 
ATOM     13  C   LIG    1       30.076 -21.411   8.329  0.00  0.00    +0.049 A 
BRANCH   8  14
ATOM     14  O   LIG    1       32.069 -20.599   9.385  0.00  0.00    -0.503 OA
ATOM     15  H   LIG    1       32.591 -19.780   9.396  0.00  0.00    +0.292 HD
ENDBRANCH   8  14
BRANCH   9  16
ATOM     16  O   LIG    1       32.157 -18.483   7.597  0.00  0.00    -0.503 OA
ATOM     17  H   LIG    1       32.598 -18.530   6.731  0.00  0.00    +0.292 HD
ENDBRANCH   9  16
ENDBRANCH   7  11
BRANCH   7  18
ATOM     18  O   LIG    1       28.072 -18.580   4.922  0.00  0.00    -0.386 OA
ATOM     19  H   LIG    1       28.825 -18.578   4.303  0.00  0.00    +0.210 HD
ENDBRANCH   7  18
ENDBRANCH   6   7
ENDBRANCH   4   6
ENDBRANCH   3   4
ENDBRANCH   2   3
ENDBRANCH   1   2
BRANCH   1  20
ATOM     20  C   LIG    1       22.975 -22.713   6.872  0.00  0.00    +0.001 C 
BRANCH  20  21
ATOM     21  C   LIG    1       24.300 -23.530   6.845  0.00  0.00    +0.015 C 
BRANCH  21  22
ATOM     22  C   LIG    1       24.541 -24.722   5.857  0.00  0.00    +0.081 C 
BRANCH  22  23
ATOM     23  N   LIG    1       23.782 -25.990   5.921  0.00  0.00    -0.313 NA
ATOM     24  H   LIG    1       22.968 -25.894   5.313  0.00  0.00    +0.122 HD
BRANCH  23  25
ATOM     25  C   LIG    1       24.474 -27.226   5.493  0.00  0.00    +0.117 C 
BRANCH  25  26
ATOM     26  C   LIG    1       24.098 -28.463   6.308  0.00  0.00    +0.158 C 
BRANCH  26  27
ATOM     27  C   LIG    1       24.920 -29.098   7.366  0.00  0.00    -0.014 A 
ATOM     28  C   LIG    1       24.776 -30.449   7.742  0.00  0.00    +0.055 A 
ATOM     29  C   LIG    1       25.578 -30.997   8.697  0.00  0.00    +0.159 A 
ATOM     30  C   LIG    1       26.531 -30.179   9.358  0.00  0.00    +0.158 A 
ATOM     31  C   LIG    1       26.554 -28.821   9.097  0.00  0.00    +0.049 A 
ATOM     32  C   LIG    1       25.766 -28.268   8.130  0.00  0.00    +0.010 A 
BRANCH  30  33
ATOM     33  O   LIG    1       27.378 -30.778  10.222  0.00  0.00    -0.503 OA
ATOM     34  H   LIG    1       28.290 -30.584   9.904  0.00  0.00    +0.292 HD
ENDBRANCH  30  33
BRANCH  29  35
ATOM     35  O   LIG    1       25.530 -32.320   8.991  0.00  0.00    -0.503 OA
ATOM     36  H   LIG    1       25.147 -32.365   9.890  0.00  0.00    +0.292 HD
ENDBRANCH  29  35
ENDBRANCH  26  27
BRANCH  26  37
ATOM     37  O   LIG    1       23.400 -29.428   5.538  0.00  0.00    -0.386 OA
ATOM     38  H   LIG    1       23.329 -30.245   6.048  0.00  0.00    +0.210 HD
ENDBRANCH  26  37
ENDBRANCH  25  26
ENDBRANCH  23  25
ENDBRANCH  22  23
ENDBRANCH  21  22
ENDBRANCH  20  21
ENDBRANCH   1  20
TORSDOF 19
ENDMDL
MODEL 8
REMARK VINA RESULT:      -8.2      1.592      9.403
REMARK  Name = *****
REMARK                            x       y       z     vdW  Elec       q    Type
REMARK                         _______ _______ _______ _____ _____    ______ ____
ROOT
ATOM      1  C   LIG    1       22.954 -22.580   6.689  0.00  0.00    +0.001 C 
ENDROOT
BRANCH   1   2
ATOM      2  C   LIG    1       24.053 -21.656   7.257  0.00  0.00    +0.015 C 
BRANCH   2   3
ATOM      3  C   LIG    1       24.814 -20.747   6.274  0.00  0.00    +0.081 C 
BRANCH   3   4
ATOM      4  N   LIG    1       26.140 -21.244   5.876  0.00  0.00    -0.313 NA
ATOM      5  H   LIG    1       26.147 -22.267   5.848  0.00  0.00    +0.122 HD
BRANCH   4   6
ATOM      6  C   LIG    1       27.175 -20.827   6.852  0.00  0.00    +0.117 C 
BRANCH   6   7
ATOM      7  C   LIG    1       28.486 -20.297   6.206  0.00  0.00    +0.158 C 
BRANCH   7  11
ATOM      8  C   LIG    1       31.329 -18.831   9.110  0.00  0.00    +0.158 A 
ATOM      9  C   LIG    1       31.242 -20.186   8.818  0.00  0.00    +0.159 A 
ATOM     10  C   LIG    1       30.335 -20.657   7.876  0.00  0.00    +0.055 A 
ATOM     11  C   LIG    1       29.480 -19.763   7.214  0.00  0.00    -0.014 A 
ATOM     12  C   LIG    1       29.549 -18.397   7.542  0.00  0.00    +0.010 A 
ATOM     13  C   LIG    1       30.469 -17.930   8.488  0.00  0.00    +0.049 A 
BRANCH   8  14
ATOM     14  O   LIG    1       32.284 -18.394   9.983  0.00  0.00    -0.503 OA
ATOM     15  H   LIG    1       31.878 -18.304  10.860  0.00  0.00    +0.292 HD
ENDBRANCH   8  14
BRANCH   9  16
ATOM     16  O   LIG    1       32.070 -21.097   9.408  0.00  0.00    -0.503 OA
ATOM     17  H   LIG    1       32.534 -21.531   8.673  0.00  0.00    +0.292 HD
ENDBRANCH   9  16
ENDBRANCH   7  11
BRANCH   7  18
ATOM     18  O   LIG    1       28.193 -19.322   5.196  0.00  0.00    -0.386 OA
ATOM     19  H   LIG    1       27.225 -19.213   5.213  0.00  0.00    +0.210 HD
ENDBRANCH   7  18
ENDBRANCH   6   7
ENDBRANCH   4   6
ENDBRANCH   3   4
ENDBRANCH   2   3
ENDBRANCH   1   2
BRANCH   1  20
ATOM     20  C   LIG    1       23.334 -24.100   6.548  0.00  0.00    +0.001 C 
BRANCH  20  21
ATOM     21  C   LIG    1       24.839 -24.393   6.817  0.00  0.00    +0.015 C 
BRANCH  21  22
ATOM     22  C   LIG    1       25.715 -25.273   5.861  0.00  0.00    +0.081 C 
BRANCH  22  23
ATOM     23  N   LIG    1       25.140 -26.240   4.901  0.00  0.00    -0.313 NA
ATOM     24  H   LIG    1       25.529 -26.030   3.981  0.00  0.00    +0.122 HD
BRANCH  23  25
ATOM     25  C   LIG    1       25.397 -27.678   5.138  0.00  0.00    +0.117 C 
BRANCH  25  26
ATOM     26  C   LIG    1       24.438 -28.324   6.138  0.00  0.00    +0.158 C 
BRANCH  26  27
ATOM     27  C   LIG    1       24.796 -28.871   7.468  0.00  0.00    -0.014 A 
ATOM     28  C   LIG    1       25.985 -28.529   8.144  0.00  0.00    +0.055 A 
ATOM     29  C   LIG    1       26.255 -29.031   9.381  0.00  0.00    +0.159 A 
ATOM     30  C   LIG    1       25.350 -29.954   9.968  0.00  0.00    +0.158 A 
ATOM     31  C   LIG    1       24.270 -30.406   9.232  0.00  0.00    +0.049 A 
ATOM     32  C   LIG    1       23.985 -29.895   8.000  0.00  0.00    +0.010 A 
BRANCH  30  33
ATOM     33  O   LIG    1       25.596 -30.349  11.236  0.00  0.00    -0.503 OA
ATOM     34  H   LIG    1       24.854 -30.945  11.494  0.00  0.00    +0.292 HD
ENDBRANCH  30  33
BRANCH  29  35
ATOM     35  O   LIG    1       27.337 -28.627  10.091  0.00  0.00    -0.503 OA
ATOM     36  H   LIG    1       27.112 -27.728  10.404  0.00  0.00    +0.292 HD
ENDBRANCH  29  35
ENDBRANCH  26  27
BRANCH  26  37
ATOM     37  O   LIG    1       23.439 -29.105   5.503  0.00  0.00    -0.386 OA
ATOM     38  H   LIG    1       22.864 -28.523   4.990  0.00  0.00    +0.210 HD
ENDBRANCH  26  37
ENDBRANCH  25  26
ENDBRANCH  23  25
ENDBRANCH  22  23
ENDBRANCH  21  22
ENDBRANCH  20  21
ENDBRANCH   1  20
TORSDOF 19
ENDMDL
MODEL 9
REMARK VINA RESULT:      -8.1      1.486      9.428
REMARK  Name = *****
REMARK                            x       y       z     vdW  Elec       q    Type
REMARK                         _______ _______ _______ _____ _____    ______ ____
ROOT
ATOM      1  C   LIG    1       22.978 -22.628   6.707  0.00  0.00    +0.001 C 
ENDROOT
BRANCH   1   2
ATOM      2  C   LIG    1       24.075 -21.699   7.268  0.00  0.00    +0.015 C 
BRANCH   2   3
ATOM      3  C   LIG    1       24.861 -20.824   6.272  0.00  0.00    +0.081 C 
BRANCH   3   4
ATOM      4  N   LIG    1       26.190 -21.345   5.912  0.00  0.00    -0.313 NA
ATOM      5  H   LIG    1       26.193 -22.367   5.933  0.00  0.00    +0.122 HD
BRANCH   4   6
ATOM      6  C   LIG    1       27.216 -20.885   6.878  0.00  0.00    +0.117 C 
BRANCH   6   7
ATOM      7  C   LIG    1       28.519 -20.351   6.220  0.00  0.00    +0.158 C 
BRANCH   7  11
ATOM      8  C   LIG    1       31.350 -18.801   9.093  0.00  0.00    +0.158 A 
ATOM      9  C   LIG    1       31.282 -20.162   8.821  0.00  0.00    +0.159 A 
ATOM     10  C   LIG    1       30.378 -20.659   7.890  0.00  0.00    +0.055 A 
ATOM     11  C   LIG    1       29.509 -19.787   7.217  0.00  0.00    -0.014 A 
ATOM     12  C   LIG    1       29.560 -18.416   7.524  0.00  0.00    +0.010 A 
ATOM     13  C   LIG    1       30.476 -17.921   8.460  0.00  0.00    +0.049 A 
BRANCH   8  14
ATOM     14  O   LIG    1       32.302 -18.338   9.956  0.00  0.00    -0.503 OA
ATOM     15  H   LIG    1       31.898 -18.241  10.833  0.00  0.00    +0.292 HD
ENDBRANCH   8  14
BRANCH   9  16
ATOM     16  O   LIG    1       32.124 -21.052   9.423  0.00  0.00    -0.503 OA
ATOM     17  H   LIG    1       32.937 -21.029   8.891  0.00  0.00    +0.292 HD
ENDBRANCH   9  16
ENDBRANCH   7  11
BRANCH   7  18
ATOM     18  O   LIG    1       28.212 -19.396   5.195  0.00  0.00    -0.386 OA
ATOM     19  H   LIG    1       27.243 -19.298   5.212  0.00  0.00    +0.210 HD
ENDBRANCH   7  18
ENDBRANCH   6   7
ENDBRANCH   4   6
ENDBRANCH   3   4
ENDBRANCH   2   3
ENDBRANCH   1   2
BRANCH   1  20
ATOM     20  C   LIG    1       23.357 -24.151   6.590  0.00  0.00    +0.001 C 
BRANCH  20  21
ATOM     21  C   LIG    1       24.852 -24.447   6.907  0.00  0.00    +0.015 C 
BRANCH  21  22
ATOM     22  C   LIG    1       25.780 -25.257   5.937  0.00  0.00    +0.081 C 
BRANCH  22  23
ATOM     23  N   LIG    1       25.259 -26.122   4.856  0.00  0.00    -0.313 NA
ATOM     24  H   LIG    1       25.705 -25.831   3.986  0.00  0.00    +0.122 HD
BRANCH  23  25
ATOM     25  C   LIG    1       25.492 -27.579   4.972  0.00  0.00    +0.117 C 
BRANCH  25  26
ATOM     26  C   LIG    1       24.702 -28.248   6.096  0.00  0.00    +0.158 C 
BRANCH  26  27
ATOM     27  C   LIG    1       25.272 -28.957   7.266  0.00  0.00    -0.014 A 
ATOM     28  C   LIG    1       25.006 -30.312   7.547  0.00  0.00    +0.055 A 
ATOM     29  C   LIG    1       25.581 -30.930   8.617  0.00  0.00    +0.159 A 
ATOM     30  C   LIG    1       26.414 -30.180   9.487  0.00  0.00    +0.158 A 
ATOM     31  C   LIG    1       26.540 -28.816   9.295  0.00  0.00    +0.049 A 
ATOM     32  C   LIG    1       25.981 -28.194   8.217  0.00  0.00    +0.010 A 
BRANCH  30  33
ATOM     33  O   LIG    1       27.049 -30.847  10.474  0.00  0.00    -0.503 OA
ATOM     34  H   LIG    1       27.610 -30.188  10.945  0.00  0.00    +0.292 HD
ENDBRANCH  30  33
BRANCH  29  35
ATOM     35  O   LIG    1       25.425 -32.259   8.838  0.00  0.00    -0.503 OA
ATOM     36  H   LIG    1       25.987 -32.694   8.167  0.00  0.00    +0.292 HD
ENDBRANCH  29  35
ENDBRANCH  26  27
BRANCH  26  37
ATOM     37  O   LIG    1       23.520 -28.877   5.628  0.00  0.00    -0.386 OA
ATOM     38  H   LIG    1       22.912 -28.201   5.302  0.00  0.00    +0.210 HD
ENDBRANCH  26  37
ENDBRANCH  25  26
ENDBRANCH  23  25
ENDBRANCH  22  23
ENDBRANCH  21  22
ENDBRANCH  20  21
ENDBRANCH   1  20
TORSDOF 19
ENDMDL
