MODEL 1
REMARK VINA RESULT:      -4.5      0.000      0.000
REMARK  Name = *****
REMARK                            x       y       z     vdW  Elec       q    Type
REMARK                         _______ _______ _______ _____ _____    ______ ____
ROOT
ATOM      1  C   LIG    1       26.422 -17.663   3.819  0.00  0.00    +0.005 C 
ATOM      2  C   LIG    1       25.523 -18.182   2.949  0.00  0.00    -0.001 C 
ENDROOT
BRANCH   1   7
ATOM      3  C   LIG    1       29.427 -21.367   7.062  0.00  0.00    +0.044 C 
ATOM      4  C   LIG    1       28.603 -20.319   6.375  0.00  0.00    -0.050 A 
ATOM      5  C   LIG    1       29.196 -19.136   5.917  0.00  0.00    +0.004 A 
ATOM      6  C   LIG    1       28.472 -18.242   5.123  0.00  0.00    +0.009 A 
ATOM      7  C   LIG    1       27.148 -18.526   4.769  0.00  0.00    -0.016 A 
ATOM      8  C   LIG    1       26.533 -19.672   5.286  0.00  0.00    +0.009 A 
ATOM      9  C   LIG    1       27.257 -20.564   6.080  0.00  0.00    +0.004 A 
ENDBRANCH   1   7
BRANCH   1  10
ATOM     10  C   LIG    1       26.622 -16.202   3.755  0.00  0.00    +0.072 A 
ATOM     11  N   LIG    1       25.525 -15.461   3.444  0.00  0.00    -0.247 NA
ATOM     12  C   LIG    1       25.712 -14.141   3.225  0.00  0.00    +0.065 A 
ATOM     13  C   LIG    1       26.956 -13.528   3.344  0.00  0.00    +0.028 A 
ATOM     14  C   LIG    1       28.056 -14.297   3.716  0.00  0.00    +0.004 A 
ATOM     15  C   LIG    1       27.890 -15.659   3.925  0.00  0.00    +0.028 A 
BRANCH  12  16
ATOM     16  C   LIG    1       24.534 -13.362   2.819  0.00  0.00    +0.035 C 
ATOM     17  C   LIG    1       23.819 -12.433   3.473  0.00  0.00    +0.093 C 
BRANCH  17  18
ATOM     18  C   LIG    1       23.919 -11.787   4.803  0.00  0.00    +0.330 C 
ATOM     19  O   LIG    1       24.991 -11.695   5.371  0.00  0.00    -0.246 OA
BRANCH  18  20
ATOM     20  O   LIG    1       22.752 -11.447   5.383  0.00  0.00    -0.477 OA
ATOM     21  H   LIG    1       22.649 -11.834   6.278  0.00  0.00    +0.295 HD
ENDBRANCH  18  20
ENDBRANCH  17  18
ENDBRANCH  12  16
ENDBRANCH   1  10
BRANCH   2  22
ATOM     22  C   LIG    1       25.118 -19.624   2.763  0.00  0.00    +0.112 C 
BRANCH  22  23
ATOM     23  N   LIG    1       23.823 -19.923   3.393  0.00  0.00    -0.299 NA
ATOM     24  C   LIG    1       23.909 -20.966   4.417  0.00  0.00    +0.085 C 
ATOM     25  C   LIG    1       22.583 -20.817   5.140  0.00  0.00    +0.017 C 
ATOM     26  C   LIG    1       22.360 -19.315   5.180  0.00  0.00    +0.017 C 
ATOM     27  C   LIG    1       23.266 -18.749   4.086  0.00  0.00    +0.085 C 
ENDBRANCH  22  23
ENDBRANCH   2  22
TORSDOF 7
ENDMDL
MODEL 2
REMARK VINA RESULT:      -4.2      1.760      2.740
REMARK  Name = *****
REMARK                            x       y       z     vdW  Elec       q    Type
REMARK                         _______ _______ _______ _____ _____    ______ ____
ROOT
ATOM      1  C   LIG    1       24.993 -17.881   3.746  0.00  0.00    +0.005 C 
ATOM      2  C   LIG    1       23.963 -18.622   3.271  0.00  0.00    -0.001 C 
ENDROOT
BRANCH   1   7
ATOM      3  C   LIG    1       29.475 -20.115   6.607  0.00  0.00    +0.044 C 
ATOM      4  C   LIG    1       28.374 -19.621   5.715  0.00  0.00    -0.050 A 
ATOM      5  C   LIG    1       27.181 -20.343   5.594  0.00  0.00    +0.004 A 
ATOM      6  C   LIG    1       26.090 -19.799   4.910  0.00  0.00    +0.009 A 
ATOM      7  C   LIG    1       26.177 -18.521   4.346  0.00  0.00    -0.016 A 
ATOM      8  C   LIG    1       27.393 -17.830   4.405  0.00  0.00    +0.009 A 
ATOM      9  C   LIG    1       28.482 -18.375   5.088  0.00  0.00    +0.004 A 
ENDBRANCH   1   7
BRANCH   1  10
ATOM     10  C   LIG    1       24.852 -16.416   3.625  0.00  0.00    +0.072 A 
ATOM     11  N   LIG    1       25.899 -15.759   3.056  0.00  0.00    -0.247 NA
ATOM     12  C   LIG    1       25.866 -14.409   3.075  0.00  0.00    +0.065 A 
ATOM     13  C   LIG    1       24.801 -13.691   3.612  0.00  0.00    +0.028 A 
ATOM     14  C   LIG    1       23.716 -14.384   4.141  0.00  0.00    +0.004 A 
ATOM     15  C   LIG    1       23.739 -15.772   4.150  0.00  0.00    +0.028 A 
BRANCH  12  16
ATOM     16  C   LIG    1       27.034 -13.709   2.523  0.00  0.00    +0.035 C 
ATOM     17  C   LIG    1       28.055 -13.078   3.125  0.00  0.00    +0.093 C 
BRANCH  17  18
ATOM     18  C   LIG    1       28.457 -12.858   4.534  0.00  0.00    +0.330 C 
ATOM     19  O   LIG    1       28.010 -13.554   5.425  0.00  0.00    -0.246 OA
BRANCH  18  20
ATOM     20  O   LIG    1       29.220 -11.772   4.767  0.00  0.00    -0.477 OA
ATOM     21  H   LIG    1       30.003 -11.974   5.322  0.00  0.00    +0.295 HD
ENDBRANCH  18  20
ENDBRANCH  17  18
ENDBRANCH  12  16
ENDBRANCH   1  10
BRANCH   2  22
ATOM     22  C   LIG    1       23.822 -20.123   3.237  0.00  0.00    +0.112 C 
BRANCH  22  23
ATOM     23  N   LIG    1       23.172 -20.648   4.448  0.00  0.00    -0.299 NA
ATOM     24  C   LIG    1       24.061 -21.479   5.263  0.00  0.00    +0.085 C 
ATOM     25  C   LIG    1       23.304 -21.569   6.574  0.00  0.00    +0.017 C 
ATOM     26  C   LIG    1       22.706 -20.183   6.744  0.00  0.00    +0.017 C 
ATOM     27  C   LIG    1       22.728 -19.567   5.344  0.00  0.00    +0.085 C 
ENDBRANCH  22  23
ENDBRANCH   2  22
TORSDOF 7
ENDMDL
MODEL 3
REMARK VINA RESULT:      -3.2      3.019      6.626
REMARK  Name = *****
REMARK                            x       y       z     vdW  Elec       q    Type
REMARK                         _______ _______ _______ _____ _____    ______ ____
ROOT
ATOM      1  C   LIG    1       26.346 -17.475   3.925  0.00  0.00    +0.005 C 
ATOM      2  C   LIG    1       26.844 -16.369   3.322  0.00  0.00    -0.001 C 
ENDROOT
BRANCH   1   7
ATOM      3  C   LIG    1       20.841 -19.197   3.941  0.00  0.00    +0.044 C 
ATOM      4  C   LIG    1       22.234 -18.661   3.781  0.00  0.00    -0.050 A 
ATOM      5  C   LIG    1       22.594 -17.436   4.354  0.00  0.00    +0.004 A 
ATOM      6  C   LIG    1       23.928 -17.022   4.361  0.00  0.00    +0.009 A 
ATOM      7  C   LIG    1       24.921 -17.834   3.801  0.00  0.00    -0.016 A 
ATOM      8  C   LIG    1       24.552 -19.025   3.164  0.00  0.00    +0.009 A 
ATOM      9  C   LIG    1       23.218 -19.437   3.158  0.00  0.00    +0.004 A 
ENDBRANCH   1   7
BRANCH   1  10
ATOM     10  C   LIG    1       27.307 -18.282   4.703  0.00  0.00    +0.072 A 
ATOM     11  N   LIG    1       26.790 -19.346   5.374  0.00  0.00    -0.247 NA
ATOM     12  C   LIG    1       27.614 -20.007   6.215  0.00  0.00    +0.065 A 
ATOM     13  C   LIG    1       28.953 -19.662   6.381  0.00  0.00    +0.028 A 
ATOM     14  C   LIG    1       29.475 -18.602   5.644  0.00  0.00    +0.004 A 
ATOM     15  C   LIG    1       28.639 -17.897   4.789  0.00  0.00    +0.028 A 
BRANCH  12  16
ATOM     16  C   LIG    1       27.029 -21.110   6.990  0.00  0.00    +0.035 C 
ATOM     17  C   LIG    1       25.769 -21.571   7.062  0.00  0.00    +0.093 C 
BRANCH  17  18
ATOM     18  C   LIG    1       24.492 -21.218   6.398  0.00  0.00    +0.330 C 
ATOM     19  O   LIG    1       23.568 -20.752   7.035  0.00  0.00    -0.246 OA
BRANCH  18  20
ATOM     20  O   LIG    1       24.384 -21.572   5.103  0.00  0.00    -0.477 OA
ATOM     21  H   LIG    1       23.603 -22.137   4.930  0.00  0.00    +0.295 HD
ENDBRANCH  18  20
ENDBRANCH  17  18
ENDBRANCH  12  16
ENDBRANCH   1  10
BRANCH   2  22
ATOM     22  C   LIG    1       26.124 -15.366   2.455  0.00  0.00    +0.112 C 
BRANCH  22  23
ATOM     23  N   LIG    1       25.892 -14.093   3.154  0.00  0.00    -0.299 NA
ATOM     24  C   LIG    1       24.474 -13.816   3.390  0.00  0.00    +0.085 C 
ATOM     25  C   LIG    1       24.530 -12.696   4.411  0.00  0.00    +0.017 C 
ATOM     26  C   LIG    1       25.692 -13.083   5.309  0.00  0.00    +0.017 C 
ATOM     27  C   LIG    1       26.513 -14.079   4.490  0.00  0.00    +0.085 C 
ENDBRANCH  22  23
ENDBRANCH   2  22
TORSDOF 7
ENDMDL
MODEL 4
REMARK VINA RESULT:      -2.1      1.405      4.139
REMARK  Name = *****
REMARK                            x       y       z     vdW  Elec       q    Type
REMARK                         _______ _______ _______ _____ _____    ______ ____
ROOT
ATOM      1  C   LIG    1       25.388 -17.366   3.662  0.00  0.00    +0.005 C 
ATOM      2  C   LIG    1       26.331 -18.331   3.542  0.00  0.00    -0.001 C 
ENDROOT
BRANCH   1   7
ATOM      3  C   LIG    1       19.750 -18.583   3.686  0.00  0.00    +0.044 C 
ATOM      4  C   LIG    1       21.215 -18.305   3.859  0.00  0.00    -0.050 A 
ATOM      5  C   LIG    1       22.157 -19.322   3.667  0.00  0.00    +0.004 A 
ATOM      6  C   LIG    1       23.523 -19.028   3.650  0.00  0.00    +0.009 A 
ATOM      7  C   LIG    1       23.963 -17.709   3.817  0.00  0.00    -0.016 A 
ATOM      8  C   LIG    1       23.024 -16.705   4.081  0.00  0.00    +0.009 A 
ATOM      9  C   LIG    1       21.660 -17.000   4.097  0.00  0.00    +0.004 A 
ENDBRANCH   1   7
BRANCH   1  10
ATOM     10  C   LIG    1       25.874 -15.972   3.628  0.00  0.00    +0.072 A 
ATOM     11  N   LIG    1       24.928 -15.013   3.440  0.00  0.00    -0.247 NA
ATOM     12  C   LIG    1       25.359 -13.747   3.248  0.00  0.00    +0.065 A 
ATOM     13  C   LIG    1       26.707 -13.400   3.275  0.00  0.00    +0.028 A 
ATOM     14  C   LIG    1       27.655 -14.390   3.522  0.00  0.00    +0.004 A 
ATOM     15  C   LIG    1       27.234 -15.700   3.701  0.00  0.00    +0.028 A 
BRANCH  12  16
ATOM     16  C   LIG    1       24.334 -12.731   2.974  0.00  0.00    +0.035 C 
ATOM     17  C   LIG    1       23.714 -11.857   3.784  0.00  0.00    +0.093 C 
BRANCH  17  18
ATOM     18  C   LIG    1       23.813 -11.523   5.225  0.00  0.00    +0.330 C 
ATOM     19  O   LIG    1       24.896 -11.447   5.772  0.00  0.00    -0.246 OA
BRANCH  18  20
ATOM     20  O   LIG    1       22.647 -11.450   5.894  0.00  0.00    -0.477 OA
ATOM     21  H   LIG    1       22.447 -10.542   6.206  0.00  0.00    +0.295 HD
ENDBRANCH  18  20
ENDBRANCH  17  18
ENDBRANCH  12  16
ENDBRANCH   1  10
BRANCH   2  22
ATOM     22  C   LIG    1       26.151 -19.828   3.558  0.00  0.00    +0.112 C 
BRANCH  22  23
ATOM     23  N   LIG    1       26.781 -20.451   4.732  0.00  0.00    -0.299 NA
ATOM     24  C   LIG    1       27.653 -19.536   5.471  0.00  0.00    +0.085 C 
ATOM     25  C   LIG    1       27.860 -20.274   6.779  0.00  0.00    +0.017 C 
ATOM     26  C   LIG    1       26.504 -20.898   7.062  0.00  0.00    +0.017 C 
ATOM     27  C   LIG    1       25.782 -20.907   5.714  0.00  0.00    +0.085 C 
ENDBRANCH  22  23
ENDBRANCH   2  22
TORSDOF 7
ENDMDL
MODEL 5
REMARK VINA RESULT:      -1.9      2.857      6.417
REMARK  Name = *****
REMARK                            x       y       z     vdW  Elec       q    Type
REMARK                         _______ _______ _______ _____ _____    ______ ____
ROOT
ATOM      1  C   LIG    1       26.272 -15.558   3.357  0.00  0.00    +0.005 C 
ATOM      2  C   LIG    1       25.267 -15.382   2.466  0.00  0.00    -0.001 C 
ENDROOT
BRANCH   1   7
ATOM      3  C   LIG    1       29.475 -11.447   5.828  0.00  0.00    +0.044 C 
ATOM      4  C   LIG    1       28.534 -12.381   5.126  0.00  0.00    -0.050 A 
ATOM      5  C   LIG    1       28.764 -12.754   3.796  0.00  0.00    +0.004 A 
ATOM      6  C   LIG    1       27.996 -13.757   3.199  0.00  0.00    +0.009 A 
ATOM      7  C   LIG    1       26.993 -14.406   3.929  0.00  0.00    -0.016 A 
ATOM      8  C   LIG    1       26.715 -13.983   5.234  0.00  0.00    +0.009 A 
ATOM      9  C   LIG    1       27.483 -12.981   5.829  0.00  0.00    +0.004 A 
ENDBRANCH   1   7
BRANCH   1  10
ATOM     10  C   LIG    1       26.593 -16.955   3.710  0.00  0.00    +0.072 A 
ATOM     11  N   LIG    1       25.662 -17.887   3.372  0.00  0.00    -0.247 NA
ATOM     12  C   LIG    1       25.855 -19.146   3.821  0.00  0.00    +0.065 A 
ATOM     13  C   LIG    1       26.971 -19.515   4.567  0.00  0.00    +0.028 A 
ATOM     14  C   LIG    1       27.938 -18.556   4.856  0.00  0.00    +0.004 A 
ATOM     15  C   LIG    1       27.748 -17.252   4.422  0.00  0.00    +0.028 A 
BRANCH  12  16
ATOM     16  C   LIG    1       24.808 -20.129   3.511  0.00  0.00    +0.035 C 
ATOM     17  C   LIG    1       23.728 -20.522   4.206  0.00  0.00    +0.093 C 
BRANCH  17  18
ATOM     18  C   LIG    1       23.124 -20.129   5.501  0.00  0.00    +0.330 C 
ATOM     19  O   LIG    1       22.337 -19.205   5.566  0.00  0.00    -0.246 OA
BRANCH  18  20
ATOM     20  O   LIG    1       23.604 -20.759   6.591  0.00  0.00    -0.477 OA
ATOM     21  H   LIG    1       23.458 -21.728   6.560  0.00  0.00    +0.295 HD
ENDBRANCH  18  20
ENDBRANCH  17  18
ENDBRANCH  12  16
ENDBRANCH   1  10
BRANCH   2  22
ATOM     22  C   LIG    1       24.703 -14.091   1.928  0.00  0.00    +0.112 C 
BRANCH  22  23
ATOM     23  N   LIG    1       23.863 -13.397   2.916  0.00  0.00    -0.299 NA
ATOM     24  C   LIG    1       23.791 -14.094   4.201  0.00  0.00    +0.085 C 
ATOM     25  C   LIG    1       23.211 -13.030   5.113  0.00  0.00    +0.017 C 
ATOM     26  C   LIG    1       23.878 -11.748   4.644  0.00  0.00    +0.017 C 
ATOM     27  C   LIG    1       24.384 -12.057   3.235  0.00  0.00    +0.085 C 
ENDBRANCH  22  23
ENDBRANCH   2  22
TORSDOF 7
ENDMDL
