MODEL 1
REMARK VINA RESULT:      -4.7      0.000      0.000
REMARK  Name = *****
REMARK                            x       y       z     vdW  Elec       q    Type
REMARK                         _______ _______ _______ _____ _____    ______ ____
ROOT
ATOM      1  C   LIG    1       26.118 -14.678   3.120  0.00  0.00    +0.074 C 
ENDROOT
BRANCH   1   2
ATOM      2  N   LIG    1       26.759 -14.110   1.930  0.00  0.00    -0.324 NA
ATOM      3  H   LIG    1       26.669 -14.793   1.174  0.00  0.00    +0.119 HD
ATOM      4  H   LIG    1       26.190 -13.315   1.627  0.00  0.00    +0.119 HD
ENDBRANCH   1   2
BRANCH   1   6
ATOM      5  C   LIG    1       23.825 -14.380   4.229  0.00  0.00    +0.005 C 
ATOM      6  C   LIG    1       24.882 -13.922   3.541  0.00  0.00    -0.016 C 
ENDBRANCH   1   6
BRANCH   1   7
ATOM      7  C   LIG    1       27.146 -14.739   4.266  0.00  0.00    +0.034 C 
BRANCH   7   8
ATOM      8  C   LIG    1       27.340 -13.419   5.012  0.00  0.00    +0.122 C 
BRANCH   8   9
ATOM      9  C   LIG    1       28.615 -12.716   4.616  0.00  0.00    +0.305 C 
ATOM     10  O   LIG    1       29.208 -12.920   3.572  0.00  0.00    -0.251 OA
BRANCH   9  11
ATOM     11  O   LIG    1       29.022 -11.802   5.527  0.00  0.00    -0.481 OA
ATOM     12  H   LIG    1       29.865 -12.048   5.963  0.00  0.00    +0.295 HD
ENDBRANCH   9  11
ENDBRANCH   8   9
ENDBRANCH   7   8
ENDBRANCH   1   7
TORSDOF 6
ENDMDL
MODEL 2
REMARK VINA RESULT:      -4.5      7.066      7.494
REMARK  Name = *****
REMARK                            x       y       z     vdW  Elec       q    Type
REMARK                         _______ _______ _______ _____ _____    ______ ____
ROOT
ATOM      1  C   LIG    1       24.560 -21.316   6.252  0.00  0.00    +0.074 C 
ENDROOT
BRANCH   1   2
ATOM      2  N   LIG    1       25.042 -21.529   4.885  0.00  0.00    -0.324 NA
ATOM      3  H   LIG    1       24.254 -21.866   4.327  0.00  0.00    +0.119 HD
ATOM      4  H   LIG    1       25.261 -20.610   4.491  0.00  0.00    +0.119 HD
ENDBRANCH   1   2
BRANCH   1   6
ATOM      5  C   LIG    1       22.688 -19.811   5.350  0.00  0.00    +0.005 C 
ATOM      6  C   LIG    1       23.250 -20.568   6.305  0.00  0.00    -0.016 C 
ENDBRANCH   1   6
BRANCH   1   7
ATOM      7  C   LIG    1       25.647 -20.584   7.062  0.00  0.00    +0.034 C 
BRANCH   7   8
ATOM      8  C   LIG    1       27.042 -21.198   6.947  0.00  0.00    +0.122 C 
BRANCH   8   9
ATOM      9  C   LIG    1       28.031 -20.262   6.294  0.00  0.00    +0.305 C 
ATOM     10  O   LIG    1       29.025 -19.831   6.848  0.00  0.00    -0.251 OA
BRANCH   9  11
ATOM     11  O   LIG    1       27.718 -19.973   5.010  0.00  0.00    -0.481 OA
ATOM     12  H   LIG    1       27.734 -19.011   4.822  0.00  0.00    +0.295 HD
ENDBRANCH   9  11
ENDBRANCH   8   9
ENDBRANCH   7   8
ENDBRANCH   1   7
TORSDOF 6
ENDMDL
MODEL 3
REMARK VINA RESULT:      -4.4      6.989      7.674
REMARK  Name = *****
REMARK                            x       y       z     vdW  Elec       q    Type
REMARK                         _______ _______ _______ _____ _____    ______ ____
ROOT
ATOM      1  C   LIG    1       22.801 -20.788   5.540  0.00  0.00    +0.074 C 
ENDROOT
BRANCH   1   2
ATOM      2  N   LIG    1       23.288 -21.570   4.400  0.00  0.00    -0.324 NA
ATOM      3  H   LIG    1       22.898 -22.512   4.481  0.00  0.00    +0.119 HD
ATOM      4  H   LIG    1       22.853 -21.184   3.557  0.00  0.00    +0.119 HD
ENDBRANCH   1   2
BRANCH   1   6
ATOM      5  C   LIG    1       22.842 -18.685   4.072  0.00  0.00    +0.005 C 
ATOM      6  C   LIG    1       22.501 -19.352   5.185  0.00  0.00    -0.016 C 
ENDBRANCH   1   6
BRANCH   1   7
ATOM      7  C   LIG    1       23.830 -20.871   6.684  0.00  0.00    +0.034 C 
BRANCH   7   8
ATOM      8  C   LIG    1       25.136 -21.572   6.310  0.00  0.00    +0.122 C 
BRANCH   8   9
ATOM      9  C   LIG    1       26.228 -20.597   5.945  0.00  0.00    +0.305 C 
ATOM     10  O   LIG    1       27.026 -20.139   6.743  0.00  0.00    -0.251 OA
BRANCH   9  11
ATOM     11  O   LIG    1       26.255 -20.302   4.624  0.00  0.00    -0.481 OA
ATOM     12  H   LIG    1       25.682 -20.892   4.091  0.00  0.00    +0.295 HD
ENDBRANCH   9  11
ENDBRANCH   8   9
ENDBRANCH   7   8
ENDBRANCH   1   7
TORSDOF 6
ENDMDL
MODEL 4
REMARK VINA RESULT:      -4.4      2.743      4.068
REMARK  Name = *****
REMARK                            x       y       z     vdW  Elec       q    Type
REMARK                         _______ _______ _______ _____ _____    ______ ____
ROOT
ATOM      1  C   LIG    1       26.573 -13.597   3.265  0.00  0.00    +0.074 C 
ENDROOT
BRANCH   1   2
ATOM      2  N   LIG    1       26.631 -14.146   1.907  0.00  0.00    -0.324 NA
ATOM      3  H   LIG    1       26.146 -13.493   1.287  0.00  0.00    +0.119 HD
ATOM      4  H   LIG    1       27.609 -14.110   1.604  0.00  0.00    +0.119 HD
ENDBRANCH   1   2
BRANCH   1   6
ATOM      5  C   LIG    1       28.924 -12.808   3.922  0.00  0.00    +0.005 C 
ATOM      6  C   LIG    1       27.897 -13.668   3.986  0.00  0.00    -0.016 C 
ENDBRANCH   1   6
BRANCH   1   7
ATOM      7  C   LIG    1       25.472 -14.326   4.057  0.00  0.00    +0.034 C 
BRANCH   7   8
ATOM      8  C   LIG    1       24.046 -13.954   3.648  0.00  0.00    +0.122 C 
BRANCH   8   9
ATOM      9  C   LIG    1       23.894 -12.479   3.371  0.00  0.00    +0.305 C 
ATOM     10  O   LIG    1       23.758 -11.635   4.238  0.00  0.00    -0.251 OA
BRANCH   9  11
ATOM     11  O   LIG    1       23.955 -12.178   2.053  0.00  0.00    -0.481 OA
ATOM     12  H   LIG    1       23.327 -11.471   1.794  0.00  0.00    +0.295 HD
ENDBRANCH   9  11
ENDBRANCH   8   9
ENDBRANCH   7   8
ENDBRANCH   1   7
TORSDOF 6
ENDMDL
MODEL 5
REMARK VINA RESULT:      -4.3      2.171      2.775
REMARK  Name = *****
REMARK                            x       y       z     vdW  Elec       q    Type
REMARK                         _______ _______ _______ _____ _____    ______ ____
ROOT
ATOM      1  C   LIG    1       24.192 -13.133   4.404  0.00  0.00    +0.074 C 
ENDROOT
BRANCH   1   2
ATOM      2  N   LIG    1       23.787 -14.487   4.015  0.00  0.00    -0.324 NA
ATOM      3  H   LIG    1       23.641 -14.488   3.003  0.00  0.00    +0.119 HD
ATOM      4  H   LIG    1       24.594 -15.101   4.159  0.00  0.00    +0.119 HD
ENDBRANCH   1   2
BRANCH   1   6
ATOM      5  C   LIG    1       24.439 -11.907   2.165  0.00  0.00    +0.005 C 
ATOM      6  C   LIG    1       23.860 -12.096   3.360  0.00  0.00    -0.016 C 
ENDBRANCH   1   6
BRANCH   1   7
ATOM      7  C   LIG    1       25.699 -13.131   4.726  0.00  0.00    +0.034 C 
BRANCH   7   8
ATOM      8  C   LIG    1       26.461 -14.345   4.196  0.00  0.00    +0.122 C 
BRANCH   8   9
ATOM      9  C   LIG    1       27.219 -14.040   2.928  0.00  0.00    +0.305 C 
ATOM     10  O   LIG    1       26.823 -14.328   1.813  0.00  0.00    -0.251 OA
BRANCH   9  11
ATOM     11  O   LIG    1       28.379 -13.379   3.150  0.00  0.00    -0.481 OA
ATOM     12  H   LIG    1       29.078 -13.954   3.528  0.00  0.00    +0.295 HD
ENDBRANCH   9  11
ENDBRANCH   8   9
ENDBRANCH   7   8
ENDBRANCH   1   7
TORSDOF 6
ENDMDL
MODEL 6
REMARK VINA RESULT:      -4.3      1.705      2.264
REMARK  Name = *****
REMARK                            x       y       z     vdW  Elec       q    Type
REMARK                         _______ _______ _______ _____ _____    ______ ____
ROOT
ATOM      1  C   LIG    1       24.460 -13.173   2.772  0.00  0.00    +0.074 C 
ENDROOT
BRANCH   1   2
ATOM      2  N   LIG    1       23.810 -11.860   2.733  0.00  0.00    -0.324 NA
ATOM      3  H   LIG    1       22.891 -11.982   2.300  0.00  0.00    +0.119 HD
ATOM      4  H   LIG    1       23.604 -11.592   3.700  0.00  0.00    +0.119 HD
ENDBRANCH   1   2
BRANCH   1   6
ATOM      5  C   LIG    1       23.514 -14.898   4.418  0.00  0.00    +0.005 C 
ATOM      6  C   LIG    1       24.311 -13.865   4.105  0.00  0.00    -0.016 C 
ENDBRANCH   1   6
BRANCH   1   7
ATOM      7  C   LIG    1       25.945 -13.011   2.397  0.00  0.00    +0.034 C 
BRANCH   7   8
ATOM      8  C   LIG    1       26.874 -14.049   3.026  0.00  0.00    +0.122 C 
BRANCH   8   9
ATOM      9  C   LIG    1       27.924 -13.422   3.910  0.00  0.00    +0.305 C 
ATOM     10  O   LIG    1       27.742 -13.125   5.076  0.00  0.00    -0.251 OA
BRANCH   9  11
ATOM     11  O   LIG    1       29.111 -13.250   3.282  0.00  0.00    -0.481 OA
ATOM     12  H   LIG    1       29.718 -14.012   3.401  0.00  0.00    +0.295 HD
ENDBRANCH   9  11
ENDBRANCH   8   9
ENDBRANCH   7   8
ENDBRANCH   1   7
TORSDOF 6
ENDMDL
MODEL 7
REMARK VINA RESULT:      -4.2      7.518      8.517
REMARK  Name = *****
REMARK                            x       y       z     vdW  Elec       q    Type
REMARK                         _______ _______ _______ _____ _____    ______ ____
ROOT
ATOM      1  C   LIG    1       25.943 -20.384   5.859  0.00  0.00    +0.074 C 
ENDROOT
BRANCH   1   2
ATOM      2  N   LIG    1       26.100 -20.419   4.403  0.00  0.00    -0.324 NA
ATOM      3  H   LIG    1       25.391 -19.802   3.999  0.00  0.00    +0.119 HD
ATOM      4  H   LIG    1       26.991 -19.966   4.180  0.00  0.00    +0.119 HD
ENDBRANCH   1   2
BRANCH   1   6
ATOM      5  C   LIG    1       28.460 -20.191   6.317  0.00  0.00    +0.005 C 
ATOM      6  C   LIG    1       27.232 -20.653   6.598  0.00  0.00    -0.016 C 
ENDBRANCH   1   6
BRANCH   1   7
ATOM      7  C   LIG    1       24.850 -21.388   6.273  0.00  0.00    +0.034 C 
BRANCH   7   8
ATOM      8  C   LIG    1       23.541 -20.744   6.732  0.00  0.00    +0.122 C 
BRANCH   8   9
ATOM      9  C   LIG    1       22.660 -20.341   5.575  0.00  0.00    +0.305 C 
ATOM     10  O   LIG    1       22.454 -19.187   5.248  0.00  0.00    -0.251 OA
BRANCH   9  11
ATOM     11  O   LIG    1       22.144 -21.400   4.909  0.00  0.00    -0.481 OA
ATOM     12  H   LIG    1       21.179 -21.506   5.052  0.00  0.00    +0.295 HD
ENDBRANCH   9  11
ENDBRANCH   8   9
ENDBRANCH   7   8
ENDBRANCH   1   7
TORSDOF 6
ENDMDL
MODEL 8
REMARK VINA RESULT:      -4.2      6.762      7.153
REMARK  Name = *****
REMARK                            x       y       z     vdW  Elec       q    Type
REMARK                         _______ _______ _______ _____ _____    ______ ____
ROOT
ATOM      1  C   LIG    1       24.423 -20.539   4.429  0.00  0.00    +0.074 C 
ENDROOT
BRANCH   1   2
ATOM      2  N   LIG    1       25.362 -19.701   3.679  0.00  0.00    -0.324 NA
ATOM      3  H   LIG    1       25.877 -19.131   4.354  0.00  0.00    +0.119 HD
ATOM      4  H   LIG    1       26.069 -20.321   3.274  0.00  0.00    +0.119 HD
ENDBRANCH   1   2
BRANCH   1   6
ATOM      5  C   LIG    1       22.387 -18.979   4.476  0.00  0.00    +0.005 C 
ATOM      6  C   LIG    1       23.310 -19.748   5.073  0.00  0.00    -0.016 C 
ENDBRANCH   1   6
BRANCH   1   7
ATOM      7  C   LIG    1       25.202 -21.352   5.480  0.00  0.00    +0.034 C 
BRANCH   7   8
ATOM      8  C   LIG    1       25.997 -20.505   6.474  0.00  0.00    +0.122 C 
BRANCH   8   9
ATOM      9  C   LIG    1       27.488 -20.665   6.304  0.00  0.00    +0.305 C 
ATOM     10  O   LIG    1       28.193 -21.307   7.062  0.00  0.00    -0.251 OA
BRANCH   9  11
ATOM     11  O   LIG    1       27.965 -20.048   5.198  0.00  0.00    -0.481 OA
ATOM     12  H   LIG    1       27.323 -20.046   4.457  0.00  0.00    +0.295 HD
ENDBRANCH   9  11
ENDBRANCH   8   9
ENDBRANCH   7   8
ENDBRANCH   1   7
TORSDOF 6
ENDMDL
MODEL 9
REMARK VINA RESULT:      -4.1      3.077      4.199
REMARK  Name = *****
REMARK                            x       y       z     vdW  Elec       q    Type
REMARK                         _______ _______ _______ _____ _____    ______ ____
ROOT
ATOM      1  C   LIG    1       26.822 -14.187   4.505  0.00  0.00    +0.074 C 
ENDROOT
BRANCH   1   2
ATOM      2  N   LIG    1       26.476 -13.322   5.636  0.00  0.00    -0.324 NA
ATOM      3  H   LIG    1       27.196 -13.444   6.352  0.00  0.00    +0.119 HD
ATOM      4  H   LIG    1       26.585 -12.353   5.324  0.00  0.00    +0.119 HD
ENDBRANCH   1   2
BRANCH   1   6
ATOM      5  C   LIG    1       28.801 -12.641   3.981  0.00  0.00    +0.005 C 
ATOM      6  C   LIG    1       27.973 -13.655   3.686  0.00  0.00    -0.016 C 
ENDBRANCH   1   6
BRANCH   1   7
ATOM      7  C   LIG    1       25.571 -14.396   3.629  0.00  0.00    +0.034 C 
BRANCH   7   8
ATOM      8  C   LIG    1       25.358 -13.321   2.564  0.00  0.00    +0.122 C 
BRANCH   8   9
ATOM      9  C   LIG    1       24.278 -12.339   2.945  0.00  0.00    +0.305 C 
ATOM     10  O   LIG    1       23.850 -12.205   4.077  0.00  0.00    -0.251 OA
BRANCH   9  11
ATOM     11  O   LIG    1       23.848 -11.592   1.901  0.00  0.00    -0.481 OA
ATOM     12  H   LIG    1       23.311 -10.821   2.180  0.00  0.00    +0.295 HD
ENDBRANCH   9  11
ENDBRANCH   8   9
ENDBRANCH   7   8
ENDBRANCH   1   7
TORSDOF 6
ENDMDL
