MODEL 1
REMARK VINA RESULT:      -7.5      0.000      0.000
REMARK  Name = *****
REMARK                            x       y       z     vdW  Elec       q    Type
REMARK                         _______ _______ _______ _____ _____    ______ ____
ROOT
ATOM      1  C   LIG    1       25.474 -33.434  10.079  0.00  0.00    +0.014 C 
ATOM      2  C   LIG    1       24.740 -32.306   9.299  0.00  0.00    -0.003 C 
ATOM      3  C   LIG    1       23.227 -32.667   9.305  0.00  0.00    +0.121 C 
ATOM      4  C   LIG    1       22.922 -33.318   7.949  0.00  0.00    +0.032 C 
ATOM      5  C   LIG    1       24.267 -33.490   7.248  0.00  0.00    +0.007 C 
ATOM      6  C   LIG    1       25.159 -32.370   7.803  0.00  0.00    +0.001 C 
ATOM      7  C   LIG    1       25.132 -31.044   6.983  0.00  0.00    +0.001 C 
ATOM      8  C   LIG    1       25.645 -29.832   7.807  0.00  0.00    +0.023 C 
ATOM      9  C   LIG    1       25.484 -28.492   7.105  0.00  0.00    -0.041 A 
ATOM     10  C   LIG    1       24.610 -28.346   6.015  0.00  0.00    -0.040 A 
ATOM     11  C   LIG    1       23.992 -29.527   5.331  0.00  0.00    +0.036 C 
ATOM     12  C   LIG    1       24.340 -27.073   5.507  0.00  0.00    +0.050 A 
ATOM     13  C   LIG    1       24.965 -25.953   6.044  0.00  0.00    +0.134 A 
ATOM     14  C   LIG    1       25.852 -26.080   7.108  0.00  0.00    +0.046 A 
ATOM     15  C   LIG    1       26.119 -27.348   7.628  0.00  0.00    +0.008 A 
ATOM     16  C   LIG    1       24.913 -29.741   9.158  0.00  0.00    +0.009 C 
ATOM     17  C   LIG    1       23.810 -30.705   6.273  0.00  0.00    +0.009 C 
ATOM     18  C   LIG    1       25.116 -30.991   9.994  0.00  0.00    +0.010 C 
ENDROOT
BRANCH   3  19
ATOM     19  O   LIG    1       22.365 -31.567   9.550  0.00  0.00    -0.391 OA
ATOM     20  H   LIG    1       21.901 -31.704  10.387  0.00  0.00    +0.210 HD
ENDBRANCH   3  19
BRANCH  13  21
ATOM     21  O   LIG    1       24.644 -24.648   5.625  0.00  0.00    -0.411 OA
BRANCH  21  22
ATOM     22  C   LIG    1       23.773 -23.861   6.377  0.00  0.00    +0.408 C 
ATOM     23  N   LIG    1       24.356 -22.668   6.783  0.00  0.00    -0.265 N 
ATOM     24  O   LIG    1       22.623 -24.168   6.674  0.00  0.00    -0.226 OA
BRANCH  23  25
ATOM     25  C   LIG    1       25.594 -22.182   6.172  0.00  0.00    +0.127 C 
BRANCH  25  26
ATOM     26  C   LIG    1       26.725 -22.089   7.195  0.00  0.00    +0.128 C 
ATOM     27 CL   LIG    1       26.916 -20.421   7.775  0.00  0.00    -0.124 Cl
ENDBRANCH  25  26
ENDBRANCH  23  25
BRANCH  23  28
ATOM     28  C   LIG    1       23.570 -21.744   7.603  0.00  0.00    +0.127 C 
BRANCH  28  29
ATOM     29  C   LIG    1       23.268 -20.389   6.948  0.00  0.00    +0.128 C 
ATOM     30 CL   LIG    1       22.444 -20.588   5.379  0.00  0.00    -0.124 Cl
ENDBRANCH  28  29
ENDBRANCH  23  28
ENDBRANCH  21  22
ENDBRANCH  13  21
TORSDOF 7
ENDMDL
MODEL 2
REMARK VINA RESULT:      -7.1      1.567      2.024
REMARK  Name = *****
REMARK                            x       y       z     vdW  Elec       q    Type
REMARK                         _______ _______ _______ _____ _____    ______ ____
ROOT
ATOM      1  C   LIG    1       26.581 -32.360   8.417  0.00  0.00    +0.014 C 
ATOM      2  C   LIG    1       25.611 -31.199   8.051  0.00  0.00    -0.003 C 
ATOM      3  C   LIG    1       24.167 -31.733   8.272  0.00  0.00    +0.121 C 
ATOM      4  C   LIG    1       23.631 -32.145   6.894  0.00  0.00    +0.032 C 
ATOM      5  C   LIG    1       24.804 -32.017   5.926  0.00  0.00    +0.007 C 
ATOM      6  C   LIG    1       25.704 -30.925   6.523  0.00  0.00    +0.001 C 
ATOM      7  C   LIG    1       25.399 -29.479   6.024  0.00  0.00    +0.001 C 
ATOM      8  C   LIG    1       25.980 -28.395   6.971  0.00  0.00    +0.023 C 
ATOM      9  C   LIG    1       25.569 -26.975   6.614  0.00  0.00    -0.041 A 
ATOM     10  C   LIG    1       24.474 -26.728   5.770  0.00  0.00    -0.040 A 
ATOM     11  C   LIG    1       23.817 -27.821   4.983  0.00  0.00    +0.036 C 
ATOM     12  C   LIG    1       24.003 -25.424   5.606  0.00  0.00    +0.050 A 
ATOM     13  C   LIG    1       24.639 -24.360   6.237  0.00  0.00    +0.134 A 
ATOM     14  C   LIG    1       25.740 -24.581   7.057  0.00  0.00    +0.046 A 
ATOM     15  C   LIG    1       26.210 -25.884   7.235  0.00  0.00    +0.008 A 
ATOM     16  C   LIG    1       25.550 -28.653   8.426  0.00  0.00    +0.009 C 
ATOM     17  C   LIG    1       23.933 -29.172   5.672  0.00  0.00    +0.009 C 
ATOM     18  C   LIG    1       26.023 -30.006   8.923  0.00  0.00    +0.010 C 
ENDROOT
BRANCH   3  19
ATOM     19  O   LIG    1       23.295 -30.812   8.907  0.00  0.00    -0.391 OA
ATOM     20  H   LIG    1       23.744 -30.417   9.667  0.00  0.00    +0.210 HD
ENDBRANCH   3  19
BRANCH  13  21
ATOM     21  O   LIG    1       24.135 -23.047   6.174  0.00  0.00    -0.411 OA
BRANCH  21  22
ATOM     22  C   LIG    1       24.430 -22.232   5.082  0.00  0.00    +0.408 C 
ATOM     23  N   LIG    1       24.821 -20.955   5.466  0.00  0.00    -0.265 N 
ATOM     24  O   LIG    1       24.349 -22.571   3.906  0.00  0.00    -0.226 OA
BRANCH  23  25
ATOM     25  C   LIG    1       25.209 -20.665   6.847  0.00  0.00    +0.127 C 
BRANCH  25  26
ATOM     26  C   LIG    1       26.719 -20.475   6.976  0.00  0.00    +0.128 C 
ATOM     27 CL   LIG    1       27.392 -21.577   8.197  0.00  0.00    -0.124 Cl
ENDBRANCH  25  26
ENDBRANCH  23  25
BRANCH  23  28
ATOM     28  C   LIG    1       25.141 -19.976   4.426  0.00  0.00    +0.127 C 
BRANCH  28  29
ATOM     29  C   LIG    1       23.954 -19.131   3.942  0.00  0.00    +0.128 C 
ATOM     30 CL   LIG    1       22.518 -19.365   4.974  0.00  0.00    -0.124 Cl
ENDBRANCH  28  29
ENDBRANCH  23  28
ENDBRANCH  21  22
ENDBRANCH  13  21
TORSDOF 7
ENDMDL
MODEL 3
REMARK VINA RESULT:      -7.0      1.465      2.420
REMARK  Name = *****
REMARK                            x       y       z     vdW  Elec       q    Type
REMARK                         _______ _______ _______ _____ _____    ______ ____
ROOT
ATOM      1  C   LIG    1       26.507 -32.791   8.561  0.00  0.00    +0.014 C 
ATOM      2  C   LIG    1       25.547 -31.626   8.183  0.00  0.00    -0.003 C 
ATOM      3  C   LIG    1       24.100 -32.140   8.427  0.00  0.00    +0.121 C 
ATOM      4  C   LIG    1       23.546 -32.569   7.062  0.00  0.00    +0.032 C 
ATOM      5  C   LIG    1       24.711 -32.471   6.081  0.00  0.00    +0.007 C 
ATOM      6  C   LIG    1       25.629 -31.380   6.650  0.00  0.00    +0.001 C 
ATOM      7  C   LIG    1       25.336 -29.939   6.128  0.00  0.00    +0.001 C 
ATOM      8  C   LIG    1       25.938 -28.846   7.051  0.00  0.00    +0.023 C 
ATOM      9  C   LIG    1       25.540 -27.427   6.673  0.00  0.00    -0.041 A 
ATOM     10  C   LIG    1       24.440 -27.183   5.835  0.00  0.00    -0.040 A 
ATOM     11  C   LIG    1       23.764 -28.282   5.074  0.00  0.00    +0.036 C 
ATOM     12  C   LIG    1       23.983 -25.876   5.652  0.00  0.00    +0.050 A 
ATOM     13  C   LIG    1       24.637 -24.809   6.258  0.00  0.00    +0.134 A 
ATOM     14  C   LIG    1       25.743 -25.029   7.072  0.00  0.00    +0.046 A 
ATOM     15  C   LIG    1       26.200 -26.334   7.269  0.00  0.00    +0.008 A 
ATOM     16  C   LIG    1       25.519 -29.073   8.514  0.00  0.00    +0.009 C 
ATOM     17  C   LIG    1       23.871 -29.621   5.784  0.00  0.00    +0.009 C 
ATOM     18  C   LIG    1       25.981 -30.423   9.030  0.00  0.00    +0.010 C 
ENDROOT
BRANCH   3  19
ATOM     19  O   LIG    1       23.244 -31.197   9.054  0.00  0.00    -0.391 OA
ATOM     20  H   LIG    1       23.079 -31.472   9.967  0.00  0.00    +0.210 HD
ENDBRANCH   3  19
BRANCH  13  21
ATOM     21  O   LIG    1       24.147 -23.492   6.177  0.00  0.00    -0.411 OA
BRANCH  21  22
ATOM     22  C   LIG    1       24.831 -22.447   6.798  0.00  0.00    +0.408 C 
ATOM     23  N   LIG    1       25.246 -21.477   5.895  0.00  0.00    -0.265 N 
ATOM     24  O   LIG    1       25.066 -22.374   7.999  0.00  0.00    -0.226 OA
BRANCH  23  25
ATOM     25  C   LIG    1       24.699 -21.419   4.539  0.00  0.00    +0.127 C 
BRANCH  25  26
ATOM     26  C   LIG    1       23.980 -20.097   4.280  0.00  0.00    +0.128 C 
ATOM     27 CL   LIG    1       22.619 -19.886   5.403  0.00  0.00    -0.124 Cl
ENDBRANCH  25  26
ENDBRANCH  23  25
BRANCH  23  28
ATOM     28  C   LIG    1       26.000 -20.326   6.396  0.00  0.00    +0.127 C 
BRANCH  28  29
ATOM     29  C   LIG    1       27.516 -20.394   6.169  0.00  0.00    +0.128 C 
ATOM     30 CL   LIG    1       28.373 -20.965   7.625  0.00  0.00    -0.124 Cl
ENDBRANCH  28  29
ENDBRANCH  23  28
ENDBRANCH  21  22
ENDBRANCH  13  21
TORSDOF 7
ENDMDL
MODEL 4
REMARK VINA RESULT:      -6.9      1.677      2.714
REMARK  Name = *****
REMARK                            x       y       z     vdW  Elec       q    Type
REMARK                         _______ _______ _______ _____ _____    ______ ____
ROOT
ATOM      1  C   LIG    1       24.130 -33.825   6.880  0.00  0.00    +0.014 C 
ATOM      2  C   LIG    1       25.005 -32.539   6.927  0.00  0.00    -0.003 C 
ATOM      3  C   LIG    1       26.482 -33.005   7.065  0.00  0.00    +0.121 C 
ATOM      4  C   LIG    1       26.848 -32.883   8.551  0.00  0.00    +0.032 C 
ATOM      5  C   LIG    1       25.555 -32.523   9.278  0.00  0.00    +0.007 C 
ATOM      6  C   LIG    1       24.705 -31.771   8.244  0.00  0.00    +0.001 C 
ATOM      7  C   LIG    1       24.893 -30.222   8.243  0.00  0.00    +0.001 C 
ATOM      8  C   LIG    1       24.405 -29.572   6.921  0.00  0.00    +0.023 C 
ATOM      9  C   LIG    1       24.719 -28.087   6.808  0.00  0.00    -0.041 A 
ATOM     10  C   LIG    1       25.686 -27.487   7.630  0.00  0.00    -0.040 A 
ATOM     11  C   LIG    1       26.270 -28.195   8.814  0.00  0.00    +0.036 C 
ATOM     12  C   LIG    1       26.088 -26.172   7.384  0.00  0.00    +0.050 A 
ATOM     13  C   LIG    1       25.504 -25.438   6.358  0.00  0.00    +0.134 A 
ATOM     14  C   LIG    1       24.528 -26.007   5.548  0.00  0.00    +0.046 A 
ATOM     15  C   LIG    1       24.128 -27.325   5.781  0.00  0.00    +0.008 A 
ATOM     16  C   LIG    1       25.030 -30.274   5.702  0.00  0.00    +0.009 C 
ATOM     17  C   LIG    1       26.290 -29.703   8.627  0.00  0.00    +0.009 C 
ATOM     18  C   LIG    1       24.671 -31.747   5.656  0.00  0.00    +0.010 C 
ENDROOT
BRANCH   3  19
ATOM     19  O   LIG    1       27.399 -32.290   6.252  0.00  0.00    -0.391 OA
ATOM     20  H   LIG    1       26.912 -31.806   5.570  0.00  0.00    +0.210 HD
ENDBRANCH   3  19
BRANCH  13  21
ATOM     21  O   LIG    1       25.952 -24.147   6.018  0.00  0.00    -0.411 OA
BRANCH  21  22
ATOM     22  C   LIG    1       25.034 -23.129   5.759  0.00  0.00    +0.408 C 
ATOM     23  N   LIG    1       24.805 -22.329   6.871  0.00  0.00    -0.265 N 
ATOM     24  O   LIG    1       24.469 -22.945   4.686  0.00  0.00    -0.226 OA
BRANCH  23  25
ATOM     25  C   LIG    1       25.701 -22.364   8.028  0.00  0.00    +0.127 C 
BRANCH  25  26
ATOM     26  C   LIG    1       26.054 -20.956   8.506  0.00  0.00    +0.128 C 
ATOM     27 CL   LIG    1       27.545 -20.380   7.732  0.00  0.00    -0.124 Cl
ENDBRANCH  25  26
ENDBRANCH  23  25
BRANCH  23  28
ATOM     28  C   LIG    1       23.845 -21.230   6.760  0.00  0.00    +0.127 C 
BRANCH  28  29
ATOM     29  C   LIG    1       24.014 -20.343   5.519  0.00  0.00    +0.128 C 
ATOM     30 CL   LIG    1       22.567 -19.340   5.227  0.00  0.00    -0.124 Cl
ENDBRANCH  28  29
ENDBRANCH  23  28
ENDBRANCH  21  22
ENDBRANCH  13  21
TORSDOF 7
ENDMDL
MODEL 5
REMARK VINA RESULT:      -6.9      3.609      8.697
REMARK  Name = *****
REMARK                            x       y       z     vdW  Elec       q    Type
REMARK                         _______ _______ _______ _____ _____    ______ ____
ROOT
ATOM      1  C   LIG    1       22.352 -20.607   4.978  0.00  0.00    +0.014 C 
ATOM      2  C   LIG    1       23.120 -21.600   5.898  0.00  0.00    -0.003 C 
ATOM      3  C   LIG    1       23.489 -20.821   7.192  0.00  0.00    +0.121 C 
ATOM      4  C   LIG    1       24.952 -20.380   7.041  0.00  0.00    +0.032 C 
ATOM      5  C   LIG    1       25.361 -20.745   5.616  0.00  0.00    +0.007 C 
ATOM      6  C   LIG    1       24.484 -21.948   5.239  0.00  0.00    +0.001 C 
ATOM      7  C   LIG    1       25.111 -23.341   5.556  0.00  0.00    +0.001 C 
ATOM      8  C   LIG    1       24.045 -24.468   5.607  0.00  0.00    +0.023 C 
ATOM      9  C   LIG    1       24.585 -25.811   6.074  0.00  0.00    -0.041 A 
ATOM     10  C   LIG    1       25.810 -25.902   6.754  0.00  0.00    -0.040 A 
ATOM     11  C   LIG    1       26.760 -24.747   6.835  0.00  0.00    +0.036 C 
ATOM     12  C   LIG    1       26.195 -27.114   7.333  0.00  0.00    +0.050 A 
ATOM     13  C   LIG    1       25.394 -28.243   7.201  0.00  0.00    +0.134 A 
ATOM     14  C   LIG    1       24.189 -28.179   6.510  0.00  0.00    +0.046 A 
ATOM     15  C   LIG    1       23.792 -26.968   5.938  0.00  0.00    +0.008 A 
ATOM     16  C   LIG    1       22.885 -24.082   6.542  0.00  0.00    +0.009 C 
ATOM     17  C   LIG    1       26.041 -23.409   6.781  0.00  0.00    +0.009 C 
ATOM     18  C   LIG    1       22.195 -22.810   6.088  0.00  0.00    +0.010 C 
ENDROOT
BRANCH   3  19
ATOM     19  O   LIG    1       23.296 -21.554   8.391  0.00  0.00    -0.391 OA
ATOM     20  H   LIG    1       22.369 -21.822   8.457  0.00  0.00    +0.210 HD
ENDBRANCH   3  19
BRANCH  13  21
ATOM     21  O   LIG    1       25.700 -29.454   7.853  0.00  0.00    -0.411 OA
BRANCH  21  22
ATOM     22  C   LIG    1       26.177 -29.447   9.163  0.00  0.00    +0.408 C 
ATOM     23  N   LIG    1       25.169 -29.667  10.093  0.00  0.00    -0.265 N 
ATOM     24  O   LIG    1       27.344 -29.257   9.488  0.00  0.00    -0.226 OA
BRANCH  23  25
ATOM     25  C   LIG    1       23.865 -30.193   9.688  0.00  0.00    +0.127 C 
BRANCH  25  26
ATOM     26  C   LIG    1       23.200 -30.977  10.818  0.00  0.00    +0.128 C 
ATOM     27 CL   LIG    1       21.785 -30.105  11.445  0.00  0.00    -0.124 Cl
ENDBRANCH  25  26
ENDBRANCH  23  25
BRANCH  23  28
ATOM     28  C   LIG    1       25.513 -29.664  11.516  0.00  0.00    +0.127 C 
BRANCH  28  29
ATOM     29  C   LIG    1       25.301 -28.324  12.233  0.00  0.00    +0.128 C 
ATOM     30 CL   LIG    1       26.743 -27.280  12.113  0.00  0.00    -0.124 Cl
ENDBRANCH  28  29
ENDBRANCH  23  28
ENDBRANCH  21  22
ENDBRANCH  13  21
TORSDOF 7
ENDMDL
MODEL 6
REMARK VINA RESULT:      -6.7      3.671      8.806
REMARK  Name = *****
REMARK                            x       y       z     vdW  Elec       q    Type
REMARK                         _______ _______ _______ _____ _____    ______ ____
ROOT
ATOM      1  C   LIG    1       22.549 -20.498   5.120  0.00  0.00    +0.014 C 
ATOM      2  C   LIG    1       23.234 -21.573   6.013  0.00  0.00    -0.003 C 
ATOM      3  C   LIG    1       23.536 -20.896   7.380  0.00  0.00    +0.121 C 
ATOM      4  C   LIG    1       25.014 -20.485   7.353  0.00  0.00    +0.032 C 
ATOM      5  C   LIG    1       25.506 -20.759   5.934  0.00  0.00    +0.007 C 
ATOM      6  C   LIG    1       24.630 -21.910   5.418  0.00  0.00    +0.001 C 
ATOM      7  C   LIG    1       25.205 -23.337   5.674  0.00  0.00    +0.001 C 
ATOM      8  C   LIG    1       24.113 -24.437   5.577  0.00  0.00    +0.023 C 
ATOM      9  C   LIG    1       24.593 -25.824   5.979  0.00  0.00    -0.041 A 
ATOM     10  C   LIG    1       25.769 -25.994   6.727  0.00  0.00    -0.040 A 
ATOM     11  C   LIG    1       26.736 -24.873   6.950  0.00  0.00    +0.036 C 
ATOM     12  C   LIG    1       26.088 -27.253   7.241  0.00  0.00    +0.050 A 
ATOM     13  C   LIG    1       25.273 -28.349   6.979  0.00  0.00    +0.134 A 
ATOM     14  C   LIG    1       24.117 -28.205   6.220  0.00  0.00    +0.046 A 
ATOM     15  C   LIG    1       23.785 -26.947   5.712  0.00  0.00    +0.008 A 
ATOM     16  C   LIG    1       22.904 -24.087   6.462  0.00  0.00    +0.009 C 
ATOM     17  C   LIG    1       26.052 -23.516   6.946  0.00  0.00    +0.009 C 
ATOM     18  C   LIG    1       22.272 -22.768   6.057  0.00  0.00    +0.010 C 
ENDROOT
BRANCH   3  19
ATOM     19  O   LIG    1       23.250 -21.706   8.509  0.00  0.00    -0.391 OA
ATOM     20  H   LIG    1       22.293 -21.741   8.644  0.00  0.00    +0.210 HD
ENDBRANCH   3  19
BRANCH  13  21
ATOM     21  O   LIG    1       25.510 -29.609   7.560  0.00  0.00    -0.411 OA
BRANCH  21  22
ATOM     22  C   LIG    1       24.776 -30.020   8.672  0.00  0.00    +0.408 C 
ATOM     23  N   LIG    1       25.582 -30.553   9.670  0.00  0.00    -0.265 N 
ATOM     24  O   LIG    1       23.557 -29.945   8.779  0.00  0.00    -0.226 OA
BRANCH  23  25
ATOM     25  C   LIG    1       27.032 -30.351   9.661  0.00  0.00    +0.127 C 
BRANCH  25  26
ATOM     26  C   LIG    1       27.506 -29.629  10.920  0.00  0.00    +0.128 C 
ATOM     27 CL   LIG    1       26.865 -27.973  10.978  0.00  0.00    -0.124 Cl
ENDBRANCH  25  26
ENDBRANCH  23  25
BRANCH  23  28
ATOM     28  C   LIG    1       24.951 -31.051  10.893  0.00  0.00    +0.127 C 
BRANCH  28  29
ATOM     29  C   LIG    1       25.035 -32.570  11.095  0.00  0.00    +0.128 C 
ATOM     30 CL   LIG    1       24.885 -33.447   9.549  0.00  0.00    -0.124 Cl
ENDBRANCH  28  29
ENDBRANCH  23  28
ENDBRANCH  21  22
ENDBRANCH  13  21
TORSDOF 7
ENDMDL
MODEL 7
REMARK VINA RESULT:      -6.7      4.194      9.209
REMARK  Name = *****
REMARK                            x       y       z     vdW  Elec       q    Type
REMARK                         _______ _______ _______ _____ _____    ______ ____
ROOT
ATOM      1  C   LIG    1       22.530 -20.442   4.973  0.00  0.00    +0.014 C 
ATOM      2  C   LIG    1       23.204 -21.497   5.897  0.00  0.00    -0.003 C 
ATOM      3  C   LIG    1       23.468 -20.797   7.260  0.00  0.00    +0.121 C 
ATOM      4  C   LIG    1       24.943 -20.372   7.261  0.00  0.00    +0.032 C 
ATOM      5  C   LIG    1       25.470 -20.662   5.858  0.00  0.00    +0.007 C 
ATOM      6  C   LIG    1       24.617 -21.829   5.339  0.00  0.00    +0.001 C 
ATOM      7  C   LIG    1       25.199 -23.246   5.630  0.00  0.00    +0.001 C 
ATOM      8  C   LIG    1       24.120 -24.358   5.524  0.00  0.00    +0.023 C 
ATOM      9  C   LIG    1       24.604 -25.734   5.958  0.00  0.00    -0.041 A 
ATOM     10  C   LIG    1       25.764 -25.882   6.735  0.00  0.00    -0.040 A 
ATOM     11  C   LIG    1       26.716 -24.747   6.963  0.00  0.00    +0.036 C 
ATOM     12  C   LIG    1       26.084 -27.130   7.275  0.00  0.00    +0.050 A 
ATOM     13  C   LIG    1       25.286 -28.237   7.010  0.00  0.00    +0.134 A 
ATOM     14  C   LIG    1       24.146 -28.116   6.223  0.00  0.00    +0.046 A 
ATOM     15  C   LIG    1       23.813 -26.869   5.689  0.00  0.00    +0.008 A 
ATOM     16  C   LIG    1       22.888 -24.007   6.375  0.00  0.00    +0.009 C 
ATOM     17  C   LIG    1       26.018 -23.398   6.923  0.00  0.00    +0.009 C 
ATOM     18  C   LIG    1       22.253 -22.701   5.937  0.00  0.00    +0.010 C 
ENDROOT
BRANCH   3  19
ATOM     19  O   LIG    1       23.164 -21.593   8.394  0.00  0.00    -0.391 OA
ATOM     20  H   LIG    1       22.221 -21.517   8.596  0.00  0.00    +0.210 HD
ENDBRANCH   3  19
BRANCH  13  21
ATOM     21  O   LIG    1       25.521 -29.486   7.616  0.00  0.00    -0.411 OA
BRANCH  21  22
ATOM     22  C   LIG    1       24.479 -30.400   7.772  0.00  0.00    +0.408 C 
ATOM     23  N   LIG    1       24.605 -31.495   6.926  0.00  0.00    -0.265 N 
ATOM     24  O   LIG    1       23.539 -30.272   8.549  0.00  0.00    -0.226 OA
BRANCH  23  25
ATOM     25  C   LIG    1       25.868 -31.785   6.244  0.00  0.00    +0.127 C 
BRANCH  25  26
ATOM     26  C   LIG    1       25.705 -31.753   4.726  0.00  0.00    +0.128 C 
ATOM     27 CL   LIG    1       26.705 -33.002   3.956  0.00  0.00    -0.124 Cl
ENDBRANCH  25  26
ENDBRANCH  23  25
BRANCH  23  28
ATOM     28  C   LIG    1       23.572 -32.531   6.959  0.00  0.00    +0.127 C 
BRANCH  28  29
ATOM     29  C   LIG    1       23.903 -33.752   7.828  0.00  0.00    +0.128 C 
ATOM     30 CL   LIG    1       23.012 -33.718   9.373  0.00  0.00    -0.124 Cl
ENDBRANCH  28  29
ENDBRANCH  23  28
ENDBRANCH  21  22
ENDBRANCH  13  21
TORSDOF 7
ENDMDL
MODEL 8
REMARK VINA RESULT:      -6.4      4.375      9.278
REMARK  Name = *****
REMARK                            x       y       z     vdW  Elec       q    Type
REMARK                         _______ _______ _______ _____ _____    ______ ____
ROOT
ATOM      1  C   LIG    1       26.573 -19.969   8.069  0.00  0.00    +0.014 C 
ATOM      2  C   LIG    1       26.013 -21.098   7.155  0.00  0.00    -0.003 C 
ATOM      3  C   LIG    1       25.502 -20.412   5.856  0.00  0.00    +0.121 C 
ATOM      4  C   LIG    1       23.982 -20.262   6.003  0.00  0.00    +0.032 C 
ATOM      5  C   LIG    1       23.648 -20.689   7.430  0.00  0.00    +0.007 C 
ATOM      6  C   LIG    1       24.740 -21.698   7.816  0.00  0.00    +0.001 C 
ATOM      7  C   LIG    1       24.394 -23.187   7.507  0.00  0.00    +0.001 C 
ATOM      8  C   LIG    1       25.658 -24.088   7.465  0.00  0.00    +0.023 C 
ATOM      9  C   LIG    1       25.388 -25.514   7.007  0.00  0.00    -0.041 A 
ATOM     10  C   LIG    1       24.205 -25.844   6.326  0.00  0.00    -0.040 A 
ATOM     11  C   LIG    1       23.050 -24.894   6.237  0.00  0.00    +0.036 C 
ATOM     12  C   LIG    1       24.062 -27.110   5.756  0.00  0.00    +0.050 A 
ATOM     13  C   LIG    1       25.066 -28.063   5.895  0.00  0.00    +0.134 A 
ATOM     14  C   LIG    1       26.235 -27.763   6.587  0.00  0.00    +0.046 A 
ATOM     15  C   LIG    1       26.389 -26.495   7.151  0.00  0.00    +0.008 A 
ATOM     16  C   LIG    1       26.724 -23.492   6.529  0.00  0.00    +0.009 C 
ATOM     17  C   LIG    1       23.497 -23.442   6.283  0.00  0.00    +0.009 C 
ATOM     18  C   LIG    1       27.154 -22.107   6.975  0.00  0.00    +0.010 C 
ENDROOT
BRANCH   3  19
ATOM     19  O   LIG    1       25.836 -21.103   4.662  0.00  0.00    -0.391 OA
ATOM     20  H   LIG    1       25.033 -21.249   4.143  0.00  0.00    +0.210 HD
ENDBRANCH   3  19
BRANCH  13  21
ATOM     21  O   LIG    1       25.000 -29.314   5.252  0.00  0.00    -0.411 OA
BRANCH  21  22
ATOM     22  C   LIG    1       24.474 -30.421   5.917  0.00  0.00    +0.408 C 
ATOM     23  N   LIG    1       24.847 -31.620   5.324  0.00  0.00    -0.265 N 
ATOM     24  O   LIG    1       23.751 -30.371   6.906  0.00  0.00    -0.226 OA
BRANCH  23  25
ATOM     25  C   LIG    1       25.942 -31.678   4.354  0.00  0.00    +0.127 C 
BRANCH  25  26
ATOM     26  C   LIG    1       25.674 -32.718   3.268  0.00  0.00    +0.128 C 
ATOM     27 CL   LIG    1       26.974 -32.717   2.057  0.00  0.00    -0.124 Cl
ENDBRANCH  25  26
ENDBRANCH  23  25
BRANCH  23  28
ATOM     28  C   LIG    1       24.351 -32.872   5.897  0.00  0.00    +0.127 C 
BRANCH  28  29
ATOM     29  C   LIG    1       25.321 -33.578   6.855  0.00  0.00    +0.128 C 
ATOM     30 CL   LIG    1       25.031 -33.103   8.549  0.00  0.00    -0.124 Cl
ENDBRANCH  28  29
ENDBRANCH  23  28
ENDBRANCH  21  22
ENDBRANCH  13  21
TORSDOF 7
ENDMDL
MODEL 9
REMARK VINA RESULT:      -6.1      6.757      9.780
REMARK  Name = *****
REMARK                            x       y       z     vdW  Elec       q    Type
REMARK                         _______ _______ _______ _____ _____    ______ ____
ROOT
ATOM      1  C   LIG    1       21.983 -21.194   4.625  0.00  0.00    +0.014 C 
ATOM      2  C   LIG    1       23.357 -21.612   5.223  0.00  0.00    -0.003 C 
ATOM      3  C   LIG    1       23.323 -23.157   5.390  0.00  0.00    +0.121 C 
ATOM      4  C   LIG    1       22.995 -23.436   6.863  0.00  0.00    +0.032 C 
ATOM      5  C   LIG    1       22.671 -22.083   7.490  0.00  0.00    +0.007 C 
ATOM      6  C   LIG    1       23.468 -21.057   6.671  0.00  0.00    +0.001 C 
ATOM      7  C   LIG    1       24.892 -20.741   7.223  0.00  0.00    +0.001 C 
ATOM      8  C   LIG    1       25.809 -20.096   6.149  0.00  0.00    +0.023 C 
ATOM      9  C   LIG    1       27.254 -19.922   6.591  0.00  0.00    -0.041 A 
ATOM     10  C   LIG    1       27.766 -20.631   7.690  0.00  0.00    -0.040 A 
ATOM     11  C   LIG    1       26.877 -21.388   8.629  0.00  0.00    +0.036 C 
ATOM     12  C   LIG    1       29.135 -20.596   7.963  0.00  0.00    +0.050 A 
ATOM     13  C   LIG    1       29.990 -19.828   7.180  0.00  0.00    +0.134 A 
ATOM     14  C   LIG    1       29.499 -19.100   6.102  0.00  0.00    +0.046 A 
ATOM     15  C   LIG    1       28.132 -19.138   5.816  0.00  0.00    +0.008 A 
ATOM     16  C   LIG    1       25.814 -20.935   4.859  0.00  0.00    +0.009 C 
ATOM     17  C   LIG    1       25.617 -21.891   7.944  0.00  0.00    +0.009 C 
ATOM     18  C   LIG    1       24.425 -21.066   4.265  0.00  0.00    +0.010 C 
ENDROOT
BRANCH   3  19
ATOM     19  O   LIG    1       24.519 -23.813   4.999  0.00  0.00    -0.391 OA
ATOM     20  H   LIG    1       24.549 -24.692   5.401  0.00  0.00    +0.210 HD
ENDBRANCH   3  19
BRANCH  13  21
ATOM     21  O   LIG    1       31.386 -19.847   7.363  0.00  0.00    -0.411 OA
BRANCH  21  22
ATOM     22  C   LIG    1       31.931 -19.671   8.634  0.00  0.00    +0.408 C 
ATOM     23  N   LIG    1       32.005 -18.332   8.997  0.00  0.00    -0.265 N 
ATOM     24  O   LIG    1       32.322 -20.575   9.365  0.00  0.00    -0.226 OA
BRANCH  23  25
ATOM     25  C   LIG    1       31.262 -17.306   8.263  0.00  0.00    +0.127 C 
BRANCH  25  26
ATOM     26  C   LIG    1       30.083 -16.777   9.078  0.00  0.00    +0.128 C 
ATOM     27 CL   LIG    1       29.679 -17.891  10.401  0.00  0.00    -0.124 Cl
ENDBRANCH  25  26
ENDBRANCH  23  25
BRANCH  23  28
ATOM     28  C   LIG    1       32.579 -17.987  10.298  0.00  0.00    +0.127 C 
BRANCH  28  29
ATOM     29  C   LIG    1       33.025 -16.525  10.444  0.00  0.00    +0.128 C 
ATOM     30 CL   LIG    1       32.373 -15.786  11.931  0.00  0.00    -0.124 Cl
ENDBRANCH  28  29
ENDBRANCH  23  28
ENDBRANCH  21  22
ENDBRANCH  13  21
TORSDOF 7
ENDMDL
