MODEL 1
REMARK VINA RESULT:      -4.4      0.000      0.000
REMARK  Name = *****
REMARK                            x       y       z     vdW  Elec       q    Type
REMARK                         _______ _______ _______ _____ _____    ______ ____
ROOT
ATOM      1  O   LIG    1       21.735 -20.814   4.545  0.00  0.00    -0.273 OA
ATOM      2  C   LIG    1       22.747 -20.179   4.243  0.00  0.00    +0.239 C 
ATOM      3  N   LIG    1       22.816 -18.847   4.558  0.00  0.00    -0.283 N 
ATOM      4  H   LIG    1       21.938 -18.490   4.912  0.00  0.00    +0.155 HD
ATOM      5  C   LIG    1       23.845 -17.952   4.230  0.00  0.00    +0.043 A 
ATOM      6  C   LIG    1       25.191 -18.316   4.049  0.00  0.00    +0.028 A 
ATOM      7  C   LIG    1       26.118 -17.360   3.594  0.00  0.00    +0.096 A 
ATOM      8  C   LIG    1       25.715 -16.033   3.405  0.00  0.00    +0.274 A 
ATOM      9  C   LIG    1       24.396 -15.649   3.662  0.00  0.00    +0.086 A 
ATOM     10  C   LIG    1       25.702 -19.665   4.446  0.00  0.00    +0.075 C 
ATOM     11  N   LIG    1       25.116 -20.779   4.164  0.00  0.00    -0.273 NA
ATOM     12  C   LIG    1       23.468 -16.609   4.076  0.00  0.00    +0.030 A 
ATOM     13  C   LIG    1       23.869 -20.773   3.411  0.00  0.00    +0.238 C 
ENDROOT
BRANCH  10  14
ATOM     14  C   LIG    1       26.973 -19.756   5.245  0.00  0.00    +0.001 A 
ATOM     15  C   LIG    1       28.071 -18.924   4.986  0.00  0.00    +0.010 A 
ATOM     16  C   LIG    1       29.240 -19.048   5.742  0.00  0.00    +0.001 A 
ATOM     17  C   LIG    1       29.308 -19.980   6.775  0.00  0.00    +0.000 A 
ATOM     18  C   LIG    1       28.209 -20.788   7.061  0.00  0.00    +0.001 A 
ATOM     19  C   LIG    1       27.044 -20.676   6.300  0.00  0.00    +0.010 A 
ENDBRANCH  10  14
BRANCH   8  20
ATOM     20  N   LIG    1       26.693 -15.029   2.966  0.00  0.00    +0.080 N 
ATOM     21  O   LIG    1       27.664 -14.811   3.705  0.00  0.00    -0.576 OA
ATOM     22  O   LIG    1       26.491 -14.467   1.882  0.00  0.00    +0.041 OA
ENDBRANCH   8  20
TORSDOF 2
ENDMDL
MODEL 2
REMARK VINA RESULT:      -1.6      0.993      1.484
REMARK  Name = *****
REMARK                            x       y       z     vdW  Elec       q    Type
REMARK                         _______ _______ _______ _____ _____    ______ ____
ROOT
ATOM      1  O   LIG    1       21.610 -19.532   3.599  0.00  0.00    -0.273 OA
ATOM      2  C   LIG    1       22.703 -18.976   3.486  0.00  0.00    +0.239 C 
ATOM      3  N   LIG    1       22.876 -17.728   4.024  0.00  0.00    -0.283 N 
ATOM      4  H   LIG    1       22.009 -17.333   4.367  0.00  0.00    +0.155 HD
ATOM      5  C   LIG    1       24.015 -16.915   3.930  0.00  0.00    +0.043 A 
ATOM      6  C   LIG    1       25.329 -17.396   3.791  0.00  0.00    +0.028 A 
ATOM      7  C   LIG    1       26.385 -16.493   3.575  0.00  0.00    +0.096 A 
ATOM      8  C   LIG    1       26.136 -15.115   3.582  0.00  0.00    +0.274 A 
ATOM      9  C   LIG    1       24.844 -14.629   3.800  0.00  0.00    +0.086 A 
ATOM     10  C   LIG    1       25.663 -18.842   3.993  0.00  0.00    +0.075 C 
ATOM     11  N   LIG    1       24.998 -19.822   3.484  0.00  0.00    -0.273 NA
ATOM     12  C   LIG    1       23.791 -15.531   3.976  0.00  0.00    +0.030 A 
ATOM     13  C   LIG    1       23.833 -19.554   2.651  0.00  0.00    +0.238 C 
ENDROOT
BRANCH  10  14
ATOM     14  C   LIG    1       26.839 -19.203   4.858  0.00  0.00    +0.001 A 
ATOM     15  C   LIG    1       26.780 -20.249   5.790  0.00  0.00    +0.010 A 
ATOM     16  C   LIG    1       27.890 -20.546   6.584  0.00  0.00    +0.001 A 
ATOM     17  C   LIG    1       29.071 -19.821   6.435  0.00  0.00    +0.000 A 
ATOM     18  C   LIG    1       29.148 -18.801   5.488  0.00  0.00    +0.001 A 
ATOM     19  C   LIG    1       28.038 -18.494   4.700  0.00  0.00    +0.010 A 
ENDBRANCH  10  14
BRANCH   8  20
ATOM     20  N   LIG    1       27.247 -14.172   3.393  0.00  0.00    +0.080 N 
ATOM     21  O   LIG    1       28.233 -14.291   4.133  0.00  0.00    -0.576 OA
ATOM     22  O   LIG    1       27.131 -13.321   2.502  0.00  0.00    +0.041 OA
ENDBRANCH   8  20
TORSDOF 2
ENDMDL
