MODEL 1
REMARK VINA RESULT:      68.6      0.000      0.000
REMARK  Name = *****
REMARK                            x       y       z     vdW  Elec       q    Type
REMARK                         _______ _______ _______ _____ _____    ______ ____
ROOT
ATOM      1  C   LIG    1       27.045 -13.878   6.020  0.00  0.00    +0.170 C 
ATOM      2  N   LIG    1       26.823 -14.995   5.088  0.00  0.00    -0.233 N 
ATOM      3  C   LIG    1       27.487 -15.096   3.829  0.00  0.00    +0.269 C 
ATOM      4  O   LIG    1       26.520 -15.493   2.866  0.00  0.00    -0.298 OA
ATOM      5  C   LIG    1       25.332 -15.952   3.535  0.00  0.00    +0.220 C 
ATOM      6  C   LIG    1       28.212 -13.785   3.424  0.00  0.00    +0.156 C 
ATOM      7  N   LIG    1       27.608 -12.582   3.985  0.00  0.00    -0.290 N 
ATOM      8  C   LIG    1       27.706 -11.447   3.091  0.00  0.00    +0.108 C 
ATOM      9  C   LIG    1       28.566 -11.956   1.939  0.00  0.00    +0.021 C 
ATOM     10  C   LIG    1       28.293 -13.462   1.931  0.00  0.00    +0.031 C 
ATOM     11  C   LIG    1       25.560 -15.544   4.995  0.00  0.00    +0.271 C 
ATOM     12  O   LIG    1       24.747 -15.594   5.914  0.00  0.00    -0.270 OA
ATOM     13  C   LIG    1       27.133 -12.517   5.278  0.00  0.00    +0.237 C 
ATOM     14  O   LIG    1       26.873 -11.449   5.827  0.00  0.00    -0.274 OA
ENDROOT
BRANCH   5  15
ATOM     15  N   LIG    1       25.310 -17.385   3.356  0.00  0.00    -0.280 N 
ATOM     16  H   LIG    1       24.547 -17.886   3.803  0.00  0.00    +0.152 HD
ATOM     17  C   LIG    1       26.364 -18.128   2.892  0.00  0.00    +0.220 C 
ATOM     18  O   LIG    1       27.442 -17.641   2.565  0.00  0.00    -0.275 OA
BRANCH  17  19
ATOM     19  C   LIG    1       26.106 -19.628   2.726  0.00  0.00    +0.090 C 
ATOM     20  C   LIG    1       26.790 -20.460   3.812  0.00  0.00    +0.097 C 
ATOM     21  N   LIG    1       26.146 -20.327   5.135  0.00  0.00    -0.301 NA
ATOM     22  C   LIG    1       26.805 -21.212   6.094  0.00  0.00    +0.105 C 
ATOM     23  C   LIG    1       24.649 -20.422   5.085  0.00  0.00    +0.068 C 
ATOM     24  C   LIG    1       24.110 -20.927   3.680  0.00  0.00    +0.038 C 
ATOM     25  C   LIG    1       22.601 -21.106   3.649  0.00  0.00    -0.033 C 
ATOM     26  C   LIG    1       21.937 -21.224   4.874  0.00  0.00    +0.006 C 
ATOM     27  C   LIG    1       20.575 -21.435   4.971  0.00  0.00    +0.047 C 
ATOM     28  N   LIG    1       20.293 -21.483   6.319  0.00  0.00    -0.360 NA
ATOM     29  H   LIG    1       19.372 -21.627   6.707  0.00  0.00    +0.165 HD
ATOM     30  C   LIG    1       21.453 -21.349   7.056  0.00  0.00    +0.087 C 
ATOM     31  C   LIG    1       19.776 -21.571   3.837  0.00  0.00    +0.026 C 
ATOM     32  C   LIG    1       20.428 -21.485   2.596  0.00  0.00    +0.002 C 
ATOM     33  C   LIG    1       22.493 -21.201   6.168  0.00  0.00    -0.021 C 
ATOM     34  C   LIG    1       21.811 -21.260   2.500  0.00  0.00    +0.005 C 
ATOM     35  C   LIG    1       23.968 -21.089   6.338  0.00  0.00    +0.056 C 
ATOM     36  C   LIG    1       24.608 -19.947   2.597  0.00  0.00    +0.023 C 
ENDBRANCH  17  19
ENDBRANCH   5  15
BRANCH   1  38
ATOM     37  C   LIG    1       28.748 -15.503   6.984  0.00  0.00    +0.009 C 
ATOM     38  C   LIG    1       28.167 -14.087   7.061  0.00  0.00    +0.013 C 
ATOM     39  C   LIG    1       29.297 -13.062   7.028  0.00  0.00    +0.009 C 
ENDBRANCH   1  38
BRANCH   5  40
ATOM     40  C   LIG    1       24.108 -15.202   2.932  0.00  0.00    +0.043 C 
ATOM     41  C   LIG    1       22.893 -15.200   3.877  0.00  0.00    +0.012 C 
ATOM     42  C   LIG    1       24.418 -13.741   2.577  0.00  0.00    +0.012 C 
ENDBRANCH   5  40
BRANCH   3  43
ATOM     43  O   LIG    1       28.418 -16.152   3.959  0.00  0.00    -0.348 OA
ATOM     44  H   LIG    1       28.049 -16.895   3.458  0.00  0.00    +0.214 HD
ENDBRANCH   3  43
TORSDOF 5
ENDMDL
