MODEL 1
REMARK VINA RESULT:      -5.4      0.000      0.000
REMARK  Name = *****
REMARK                            x       y       z     vdW  Elec       q    Type
REMARK                         _______ _______ _______ _____ _____    ______ ____
ROOT
ATOM      1  C   LIG    1       25.819 -21.159   6.128  0.00  0.00    +0.064 A 
ATOM      2  C   LIG    1       26.323 -20.154   5.262  0.00  0.00    +0.057 A 
ATOM      3  I   LIG    1       25.179 -19.348   3.573  0.00  0.00    -0.040 I 
ATOM      4  C   LIG    1       27.606 -19.586   5.445  0.00  0.00    +0.053 A 
ATOM      5  C   LIG    1       28.315 -19.906   6.613  0.00  0.00    +0.036 A 
ATOM      6  I   LIG    1       30.149 -18.973   7.060  0.00  0.00    -0.042 I 
ATOM      7  C   LIG    1       27.817 -20.841   7.521  0.00  0.00    +0.032 A 
ATOM      8  C   LIG    1       26.588 -21.478   7.273  0.00  0.00    +0.037 A 
ATOM      9  I   LIG    1       25.935 -22.790   8.789  0.00  0.00    -0.042 I 
ENDROOT
BRANCH   1  12
ATOM     10  C   LIG    1       23.317 -20.142   7.194  0.00  0.00    +0.110 C 
ATOM     11  C   LIG    1       23.350 -21.193   6.102  0.00  0.00    +0.217 C 
ATOM     12  N   LIG    1       24.574 -21.819   5.852  0.00  0.00    -0.269 N 
ATOM     13  O   LIG    1       22.320 -21.492   5.492  0.00  0.00    -0.276 OA
BRANCH  12  14
ATOM     14  C   LIG    1       24.611 -22.986   4.928  0.00  0.00    +0.128 C 
BRANCH  14  15
ATOM     15  C   LIG    1       24.961 -24.349   5.563  0.00  0.00    +0.112 C 
ATOM     16  C   LIG    1       25.365 -25.417   4.545  0.00  0.00    +0.021 C 
BRANCH  15  17
ATOM     17  C   LIG    1       23.768 -24.979   6.258  0.00  0.00    +0.309 C 
ATOM     18  O   LIG    1       22.930 -24.363   6.853  0.00  0.00    -0.251 OA
BRANCH  17  19
ATOM     19  O   LIG    1       23.720 -26.328   6.130  0.00  0.00    -0.480 OA
ATOM     20  H   LIG    1       24.035 -26.638   5.285  0.00  0.00    +0.295 HD
ENDBRANCH  17  19
ENDBRANCH  15  17
ENDBRANCH  14  15
ENDBRANCH  12  14
ENDBRANCH   1  12
BRANCH   4  21
ATOM     21  N   LIG    1       28.053 -18.560   4.583  0.00  0.00    -0.356 N 
ATOM     22  H   LIG    1       27.522 -18.559   3.713  0.00  0.00    +0.142 HD
ATOM     23  H   LIG    1       29.055 -18.594   4.417  0.00  0.00    +0.142 HD
ENDBRANCH   4  21
TORSDOF 6
ENDMDL
MODEL 2
REMARK VINA RESULT:      -5.0      7.432      9.821
REMARK  Name = *****
REMARK                            x       y       z     vdW  Elec       q    Type
REMARK                         _______ _______ _______ _____ _____    ______ ____
ROOT
ATOM      1  C   LIG    1       25.397 -30.343   8.284  0.00  0.00    +0.064 A 
ATOM      2  C   LIG    1       24.834 -30.351   6.982  0.00  0.00    +0.057 A 
ATOM      3  I   LIG    1       23.735 -32.065   6.166  0.00  0.00    -0.040 I 
ATOM      4  C   LIG    1       24.929 -29.233   6.119  0.00  0.00    +0.053 A 
ATOM      5  C   LIG    1       25.440 -28.034   6.640  0.00  0.00    +0.036 A 
ATOM      6  I   LIG    1       25.453 -26.270   5.490  0.00  0.00    -0.042 I 
ATOM      7  C   LIG    1       25.943 -27.972   7.939  0.00  0.00    +0.032 A 
ATOM      8  C   LIG    1       25.940 -29.121   8.750  0.00  0.00    +0.037 A 
ATOM      9  I   LIG    1       26.645 -28.834  10.717  0.00  0.00    -0.042 I 
ENDROOT
BRANCH   1  12
ATOM     10  C   LIG    1       27.352 -32.441   7.832  0.00  0.00    +0.110 C 
ATOM     11  C   LIG    1       26.504 -32.397   9.088  0.00  0.00    +0.217 C 
ATOM     12  N   LIG    1       25.410 -31.529   9.094  0.00  0.00    -0.269 N 
ATOM     13  O   LIG    1       26.767 -33.131  10.044  0.00  0.00    -0.276 OA
BRANCH  12  14
ATOM     14  C   LIG    1       24.443 -31.593  10.224  0.00  0.00    +0.128 C 
BRANCH  14  15
ATOM     15  C   LIG    1       23.141 -30.780  10.056  0.00  0.00    +0.112 C 
ATOM     16  C   LIG    1       22.800 -29.908  11.267  0.00  0.00    +0.021 C 
BRANCH  15  17
ATOM     17  C   LIG    1       21.922 -31.673   9.929  0.00  0.00    +0.309 C 
ATOM     18  O   LIG    1       21.967 -32.850   9.705  0.00  0.00    -0.251 OA
BRANCH  17  19
ATOM     19  O   LIG    1       20.751 -31.016  10.112  0.00  0.00    -0.480 OA
ATOM     20  H   LIG    1       20.441 -31.040  11.014  0.00  0.00    +0.295 HD
ENDBRANCH  17  19
ENDBRANCH  15  17
ENDBRANCH  14  15
ENDBRANCH  12  14
ENDBRANCH   1  12
BRANCH   4  21
ATOM     21  N   LIG    1       24.318 -29.269   4.846  0.00  0.00    -0.356 N 
ATOM     22  H   LIG    1       24.566 -30.123   4.348  0.00  0.00    +0.142 HD
ATOM     23  H   LIG    1       24.510 -28.437   4.294  0.00  0.00    +0.142 HD
ENDBRANCH   4  21
TORSDOF 6
ENDMDL
MODEL 3
REMARK VINA RESULT:      -5.0      8.180     10.249
REMARK  Name = *****
REMARK                            x       y       z     vdW  Elec       q    Type
REMARK                         _______ _______ _______ _____ _____    ______ ____
ROOT
ATOM      1  C   LIG    1       24.019 -29.855  10.875  0.00  0.00    +0.064 A 
ATOM      2  C   LIG    1       22.744 -29.749  11.488  0.00  0.00    +0.057 A 
ATOM      3  I   LIG    1       21.037 -31.006  10.923  0.00  0.00    -0.040 I 
ATOM      4  C   LIG    1       22.491 -28.826  12.531  0.00  0.00    +0.053 A 
ATOM      5  C   LIG    1       23.579 -28.129  13.080  0.00  0.00    +0.036 A 
ATOM      6  I   LIG    1       23.331 -26.873  14.750  0.00  0.00    -0.042 I 
ATOM      7  C   LIG    1       24.860 -28.260  12.543  0.00  0.00    +0.032 A 
ATOM      8  C   LIG    1       25.077 -29.101  11.437  0.00  0.00    +0.037 A 
ATOM      9  I   LIG    1       27.084 -29.261  10.811  0.00  0.00    -0.042 I 
ENDROOT
BRANCH   1  12
ATOM     10  C   LIG    1       25.056 -32.551  11.170  0.00  0.00    +0.110 C 
ATOM     11  C   LIG    1       24.435 -32.073   9.872  0.00  0.00    +0.217 C 
ATOM     12  N   LIG    1       24.223 -30.699   9.730  0.00  0.00    -0.269 N 
ATOM     13  O   LIG    1       24.165 -32.877   8.976  0.00  0.00    -0.276 OA
BRANCH  12  14
ATOM     14  C   LIG    1       23.797 -30.167   8.406  0.00  0.00    +0.128 C 
BRANCH  14  15
ATOM     15  C   LIG    1       24.929 -29.816   7.416  0.00  0.00    +0.112 C 
ATOM     16  C   LIG    1       25.231 -28.318   7.334  0.00  0.00    +0.021 C 
BRANCH  15  17
ATOM     17  C   LIG    1       24.566 -30.166   5.985  0.00  0.00    +0.309 C 
ATOM     18  O   LIG    1       25.278 -30.776   5.238  0.00  0.00    -0.251 OA
BRANCH  17  19
ATOM     19  O   LIG    1       23.333 -29.738   5.621  0.00  0.00    -0.480 OA
ATOM     20  H   LIG    1       22.753 -30.444   5.348  0.00  0.00    +0.295 HD
ENDBRANCH  17  19
ENDBRANCH  15  17
ENDBRANCH  14  15
ENDBRANCH  12  14
ENDBRANCH   1  12
BRANCH   4  21
ATOM     21  N   LIG    1       21.218 -28.781  13.141  0.00  0.00    -0.356 N 
ATOM     22  H   LIG    1       20.527 -28.377  12.510  0.00  0.00    +0.142 HD
ATOM     23  H   LIG    1       21.231 -28.312  14.043  0.00  0.00    +0.142 HD
ENDBRANCH   4  21
TORSDOF 6
ENDMDL
MODEL 4
REMARK VINA RESULT:      -4.8      8.132     10.150
REMARK  Name = *****
REMARK                            x       y       z     vdW  Elec       q    Type
REMARK                         _______ _______ _______ _____ _____    ______ ____
ROOT
ATOM      1  C   LIG    1       23.895 -29.785  11.112  0.00  0.00    +0.064 A 
ATOM      2  C   LIG    1       24.925 -28.950  11.616  0.00  0.00    +0.057 A 
ATOM      3  I   LIG    1       26.883 -28.750  10.648  0.00  0.00    -0.040 I 
ATOM      4  C   LIG    1       24.748 -28.168  12.783  0.00  0.00    +0.053 A 
ATOM      5  C   LIG    1       23.463 -28.090  13.343  0.00  0.00    +0.036 A 
ATOM      6  I   LIG    1       23.063 -26.812  14.967  0.00  0.00    -0.042 I 
ATOM      7  C   LIG    1       22.410 -28.848  12.830  0.00  0.00    +0.032 A 
ATOM      8  C   LIG    1       22.627 -29.704  11.736  0.00  0.00    +0.037 A 
ATOM      9  I   LIG    1       20.911 -30.703  11.025  0.00  0.00    -0.042 I 
ENDROOT
BRANCH   1  12
ATOM     10  C   LIG    1       25.142 -32.375  11.519  0.00  0.00    +0.110 C 
ATOM     11  C   LIG    1       24.453 -32.017  10.217  0.00  0.00    +0.217 C 
ATOM     12  N   LIG    1       24.134 -30.673  10.009  0.00  0.00    -0.269 N 
ATOM     13  O   LIG    1       24.223 -32.887   9.373  0.00  0.00    -0.276 OA
BRANCH  12  14
ATOM     14  C   LIG    1       23.635 -30.249   8.671  0.00  0.00    +0.128 C 
BRANCH  14  15
ATOM     15  C   LIG    1       24.701 -30.091   7.564  0.00  0.00    +0.112 C 
ATOM     16  C   LIG    1       25.032 -28.634   7.232  0.00  0.00    +0.021 C 
BRANCH  15  17
ATOM     17  C   LIG    1       24.227 -30.641   6.232  0.00  0.00    +0.309 C 
ATOM     18  O   LIG    1       24.629 -31.658   5.740  0.00  0.00    -0.251 OA
BRANCH  17  19
ATOM     19  O   LIG    1       23.276 -29.878   5.640  0.00  0.00    -0.480 OA
ATOM     20  H   LIG    1       23.053 -29.098   6.142  0.00  0.00    +0.295 HD
ENDBRANCH  17  19
ENDBRANCH  15  17
ENDBRANCH  14  15
ENDBRANCH  12  14
ENDBRANCH   1  12
BRANCH   4  21
ATOM     21  N   LIG    1       25.786 -27.319  13.228  0.00  0.00    -0.356 N 
ATOM     22  H   LIG    1       26.353 -27.781  13.938  0.00  0.00    +0.142 HD
ATOM     23  H   LIG    1       25.447 -26.414  13.541  0.00  0.00    +0.142 HD
ENDBRANCH   4  21
TORSDOF 6
ENDMDL
MODEL 5
REMARK VINA RESULT:      -4.6      8.783      9.998
REMARK  Name = *****
REMARK                            x       y       z     vdW  Elec       q    Type
REMARK                         _______ _______ _______ _____ _____    ______ ____
ROOT
ATOM      1  C   LIG    1       24.337 -28.979  12.212  0.00  0.00    +0.064 A 
ATOM      2  C   LIG    1       25.653 -28.451  12.156  0.00  0.00    +0.057 A 
ATOM      3  I   LIG    1       27.252 -29.356  10.959  0.00  0.00    -0.040 I 
ATOM      4  C   LIG    1       26.019 -27.281  12.863  0.00  0.00    +0.053 A 
ATOM      5  C   LIG    1       25.006 -26.538  13.489  0.00  0.00    +0.036 A 
ATOM      6  I   LIG    1       25.426 -24.692  14.409  0.00  0.00    -0.042 I 
ATOM      7  C   LIG    1       23.688 -26.994  13.507  0.00  0.00    +0.032 A 
ATOM      8  C   LIG    1       23.358 -28.214  12.891  0.00  0.00    +0.037 A 
ATOM      9  I   LIG    1       21.308 -28.710  12.925  0.00  0.00    -0.042 I 
ENDROOT
BRANCH   1  12
ATOM     10  C   LIG    1       24.834 -31.484  13.593  0.00  0.00    +0.110 C 
ATOM     11  C   LIG    1       23.971 -31.416  12.348  0.00  0.00    +0.217 C 
ATOM     12  N   LIG    1       24.016 -30.237  11.600  0.00  0.00    -0.269 N 
ATOM     13  O   LIG    1       23.289 -32.387  12.009  0.00  0.00    -0.276 OA
BRANCH  12  14
ATOM     14  C   LIG    1       23.338 -30.198  10.274  0.00  0.00    +0.128 C 
BRANCH  14  15
ATOM     15  C   LIG    1       24.167 -30.693   9.069  0.00  0.00    +0.112 C 
ATOM     16  C   LIG    1       24.338 -29.645   7.968  0.00  0.00    +0.021 C 
BRANCH  15  17
ATOM     17  C   LIG    1       23.489 -31.840   8.342  0.00  0.00    +0.309 C 
ATOM     18  O   LIG    1       23.394 -31.921   7.150  0.00  0.00    -0.251 OA
BRANCH  17  19
ATOM     19  O   LIG    1       23.006 -32.795   9.173  0.00  0.00    -0.480 OA
ATOM     20  H   LIG    1       23.167 -32.611  10.095  0.00  0.00    +0.295 HD
ENDBRANCH  17  19
ENDBRANCH  15  17
ENDBRANCH  14  15
ENDBRANCH  12  14
ENDBRANCH   1  12
BRANCH   4  21
ATOM     21  N   LIG    1       27.330 -26.767  12.747  0.00  0.00    -0.356 N 
ATOM     22  H   LIG    1       27.597 -26.673  11.768  0.00  0.00    +0.142 HD
ATOM     23  H   LIG    1       28.011 -27.303  13.277  0.00  0.00    +0.142 HD
ENDBRANCH   4  21
TORSDOF 6
ENDMDL
MODEL 6
REMARK VINA RESULT:      -4.5      7.853     10.431
REMARK  Name = *****
REMARK                            x       y       z     vdW  Elec       q    Type
REMARK                         _______ _______ _______ _____ _____    ______ ____
ROOT
ATOM      1  C   LIG    1       25.008 -31.122   8.322  0.00  0.00    +0.064 A 
ATOM      2  C   LIG    1       25.695 -29.933   8.678  0.00  0.00    +0.057 A 
ATOM      3  I   LIG    1       26.889 -29.745  10.508  0.00  0.00    -0.040 I 
ATOM      4  C   LIG    1       25.670 -28.781   7.856  0.00  0.00    +0.053 A 
ATOM      5  C   LIG    1       25.095 -28.887   6.580  0.00  0.00    +0.036 A 
ATOM      6  I   LIG    1       25.172 -27.283   5.219  0.00  0.00    -0.042 I 
ATOM      7  C   LIG    1       24.468 -30.064   6.171  0.00  0.00    +0.032 A 
ATOM      8  C   LIG    1       24.407 -31.167   7.041  0.00  0.00    +0.037 A 
ATOM      9  I   LIG    1       23.511 -32.897   6.234  0.00  0.00    -0.042 I 
ENDROOT
BRANCH   1  12
ATOM     10  C   LIG    1       27.001 -33.232   8.271  0.00  0.00    +0.110 C 
ATOM     11  C   LIG    1       26.020 -33.089   9.418  0.00  0.00    +0.217 C 
ATOM     12  N   LIG    1       24.931 -32.233   9.227  0.00  0.00    -0.269 N 
ATOM     13  O   LIG    1       26.175 -33.735  10.457  0.00  0.00    -0.276 OA
BRANCH  12  14
ATOM     14  C   LIG    1       23.845 -32.210  10.246  0.00  0.00    +0.128 C 
BRANCH  14  15
ATOM     15  C   LIG    1       22.757 -31.131  10.059  0.00  0.00    +0.112 C 
ATOM     16  C   LIG    1       22.793 -30.030  11.122  0.00  0.00    +0.021 C 
BRANCH  15  17
ATOM     17  C   LIG    1       21.358 -31.698  10.207  0.00  0.00    +0.309 C 
ATOM     18  O   LIG    1       21.112 -32.863  10.349  0.00  0.00    -0.251 OA
BRANCH  17  19
ATOM     19  O   LIG    1       20.387 -30.752  10.184  0.00  0.00    -0.480 OA
ATOM     20  H   LIG    1       20.493 -30.120   9.477  0.00  0.00    +0.295 HD
ENDBRANCH  17  19
ENDBRANCH  15  17
ENDBRANCH  14  15
ENDBRANCH  12  14
ENDBRANCH   1  12
BRANCH   4  21
ATOM     21  N   LIG    1       26.402 -27.631   8.229  0.00  0.00    -0.356 N 
ATOM     22  H   LIG    1       27.369 -27.699   7.914  0.00  0.00    +0.142 HD
ATOM     23  H   LIG    1       26.339 -27.430   9.223  0.00  0.00    +0.142 HD
ENDBRANCH   4  21
TORSDOF 6
ENDMDL
MODEL 7
REMARK VINA RESULT:      -4.5      8.637     10.760
REMARK  Name = *****
REMARK                            x       y       z     vdW  Elec       q    Type
REMARK                         _______ _______ _______ _____ _____    ______ ____
ROOT
ATOM      1  C   LIG    1       23.869 -29.878  12.027  0.00  0.00    +0.064 A 
ATOM      2  C   LIG    1       24.180 -28.652  12.669  0.00  0.00    +0.057 A 
ATOM      3  I   LIG    1       26.235 -27.934  12.944  0.00  0.00    -0.040 I 
ATOM      4  C   LIG    1       23.172 -27.790  13.163  0.00  0.00    +0.053 A 
ATOM      5  C   LIG    1       21.835 -28.083  12.850  0.00  0.00    +0.036 A 
ATOM      6  I   LIG    1       20.282 -26.767  13.385  0.00  0.00    -0.042 I 
ATOM      7  C   LIG    1       21.498 -29.249  12.162  0.00  0.00    +0.032 A 
ATOM      8  C   LIG    1       22.504 -30.150  11.770  0.00  0.00    +0.037 A 
ATOM      9  I   LIG    1       21.836 -31.812  10.657  0.00  0.00    -0.042 I 
ENDROOT
BRANCH   1  12
ATOM     10  C   LIG    1       25.026 -31.697  13.972  0.00  0.00    +0.110 C 
ATOM     11  C   LIG    1       25.257 -31.868  12.483  0.00  0.00    +0.217 C 
ATOM     12  N   LIG    1       24.903 -30.802  11.653  0.00  0.00    -0.269 N 
ATOM     13  O   LIG    1       25.769 -32.902  12.046  0.00  0.00    -0.276 OA
BRANCH  12  14
ATOM     14  C   LIG    1       25.288 -30.849  10.215  0.00  0.00    +0.128 C 
BRANCH  14  15
ATOM     15  C   LIG    1       25.117 -29.537   9.419  0.00  0.00    +0.112 C 
ATOM     16  C   LIG    1       24.484 -29.732   8.040  0.00  0.00    +0.021 C 
BRANCH  15  17
ATOM     17  C   LIG    1       26.450 -28.889   9.091  0.00  0.00    +0.309 C 
ATOM     18  O   LIG    1       27.481 -29.149   9.645  0.00  0.00    -0.251 OA
BRANCH  17  19
ATOM     19  O   LIG    1       26.376 -27.986   8.083  0.00  0.00    -0.480 OA
ATOM     20  H   LIG    1       27.138 -27.998   7.510  0.00  0.00    +0.295 HD
ENDBRANCH  17  19
ENDBRANCH  15  17
ENDBRANCH  14  15
ENDBRANCH  12  14
ENDBRANCH   1  12
BRANCH   4  21
ATOM     21  N   LIG    1       23.524 -26.559  13.759  0.00  0.00    -0.356 N 
ATOM     22  H   LIG    1       22.875 -26.319  14.507  0.00  0.00    +0.142 HD
ATOM     23  H   LIG    1       23.620 -25.807  13.082  0.00  0.00    +0.142 HD
ENDBRANCH   4  21
TORSDOF 6
ENDMDL
MODEL 8
REMARK VINA RESULT:      -4.4      8.703     10.723
REMARK  Name = *****
REMARK                            x       y       z     vdW  Elec       q    Type
REMARK                         _______ _______ _______ _____ _____    ______ ____
ROOT
ATOM      1  C   LIG    1       24.373 -30.002  11.332  0.00  0.00    +0.064 A 
ATOM      2  C   LIG    1       25.519 -29.426  10.724  0.00  0.00    +0.057 A 
ATOM      3  I   LIG    1       27.323 -28.885  11.847  0.00  0.00    -0.040 I 
ATOM      4  C   LIG    1       25.580 -29.178   9.332  0.00  0.00    +0.053 A 
ATOM      5  C   LIG    1       24.549 -29.677   8.521  0.00  0.00    +0.036 A 
ATOM      6  I   LIG    1       24.643 -29.515   6.424  0.00  0.00    -0.042 I 
ATOM      7  C   LIG    1       23.437 -30.308   9.081  0.00  0.00    +0.032 A 
ATOM      8  C   LIG    1       23.340 -30.453  10.476  0.00  0.00    +0.037 A 
ATOM      9  I   LIG    1       21.646 -31.513  11.151  0.00  0.00    -0.042 I 
ENDROOT
BRANCH   1  12
ATOM     10  C   LIG    1       25.068 -32.480  12.674  0.00  0.00    +0.110 C 
ATOM     11  C   LIG    1       24.874 -31.186  13.439  0.00  0.00    +0.217 C 
ATOM     12  N   LIG    1       24.274 -30.123  12.759  0.00  0.00    -0.269 N 
ATOM     13  O   LIG    1       25.208 -31.105  14.624  0.00  0.00    -0.276 OA
BRANCH  12  14
ATOM     14  C   LIG    1       23.889 -28.904  13.522  0.00  0.00    +0.128 C 
BRANCH  14  15
ATOM     15  C   LIG    1       22.788 -28.023  12.892  0.00  0.00    +0.112 C 
ATOM     16  C   LIG    1       22.861 -26.553  13.311  0.00  0.00    +0.021 C 
BRANCH  15  17
ATOM     17  C   LIG    1       21.399 -28.435  13.343  0.00  0.00    +0.309 C 
ATOM     18  O   LIG    1       21.176 -29.139  14.287  0.00  0.00    -0.251 OA
BRANCH  17  19
ATOM     19  O   LIG    1       20.408 -27.911  12.580  0.00  0.00    -0.480 OA
ATOM     20  H   LIG    1       20.097 -27.066  12.893  0.00  0.00    +0.295 HD
ENDBRANCH  17  19
ENDBRANCH  15  17
ENDBRANCH  14  15
ENDBRANCH  12  14
ENDBRANCH   1  12
BRANCH   4  21
ATOM     21  N   LIG    1       26.756 -28.641   8.761  0.00  0.00    -0.356 N 
ATOM     22  H   LIG    1       26.938 -29.055   7.848  0.00  0.00    +0.142 HD
ATOM     23  H   LIG    1       27.560 -28.712   9.378  0.00  0.00    +0.142 HD
ENDBRANCH   4  21
TORSDOF 6
ENDMDL
MODEL 9
REMARK VINA RESULT:      -4.4      7.747     10.862
REMARK  Name = *****
REMARK                            x       y       z     vdW  Elec       q    Type
REMARK                         _______ _______ _______ _____ _____    ______ ____
ROOT
ATOM      1  C   LIG    1       25.032 -31.300   9.920  0.00  0.00    +0.064 A 
ATOM      2  C   LIG    1       25.652 -30.681  11.036  0.00  0.00    +0.057 A 
ATOM      3  I   LIG    1       26.965 -28.934  10.856  0.00  0.00    -0.040 I 
ATOM      4  C   LIG    1       25.446 -31.146  12.357  0.00  0.00    +0.053 A 
ATOM      5  C   LIG    1       24.469 -32.129  12.572  0.00  0.00    +0.036 A 
ATOM      6  I   LIG    1       23.965 -32.752  14.519  0.00  0.00    -0.042 I 
ATOM      7  C   LIG    1       23.792 -32.714  11.501  0.00  0.00    +0.032 A 
ATOM      8  C   LIG    1       24.084 -32.318  10.184  0.00  0.00    +0.037 A 
ATOM      9  I   LIG    1       22.904 -33.228   8.691  0.00  0.00    -0.042 I 
ENDROOT
BRANCH   1  12
ATOM     10  C   LIG    1       27.148 -32.625   8.438  0.00  0.00    +0.110 C 
ATOM     11  C   LIG    1       26.151 -31.708   7.758  0.00  0.00    +0.217 C 
ATOM     12  N   LIG    1       25.355 -30.904   8.578  0.00  0.00    -0.269 N 
ATOM     13  O   LIG    1       26.084 -31.663   6.527  0.00  0.00    -0.276 OA
BRANCH  12  14
ATOM     14  C   LIG    1       24.504 -29.855   7.953  0.00  0.00    +0.128 C 
BRANCH  14  15
ATOM     15  C   LIG    1       25.177 -28.988   6.866  0.00  0.00    +0.112 C 
ATOM     16  C   LIG    1       25.775 -27.685   7.402  0.00  0.00    +0.021 C 
BRANCH  15  17
ATOM     17  C   LIG    1       24.184 -28.502   5.827  0.00  0.00    +0.309 C 
ATOM     18  O   LIG    1       24.191 -27.402   5.350  0.00  0.00    -0.251 OA
BRANCH  17  19
ATOM     19  O   LIG    1       23.281 -29.444   5.462  0.00  0.00    -0.480 OA
ATOM     20  H   LIG    1       22.706 -29.712   6.174  0.00  0.00    +0.295 HD
ENDBRANCH  17  19
ENDBRANCH  15  17
ENDBRANCH  14  15
ENDBRANCH  12  14
ENDBRANCH   1  12
BRANCH   4  21
ATOM     21  N   LIG    1       26.051 -30.475  13.444  0.00  0.00    -0.356 N 
ATOM     22  H   LIG    1       25.346 -30.094  14.074  0.00  0.00    +0.142 HD
ATOM     23  H   LIG    1       26.718 -29.767  13.147  0.00  0.00    +0.142 HD
ENDBRANCH   4  21
TORSDOF 6
ENDMDL
