MODEL 1
REMARK VINA RESULT:      -4.5      0.000      0.000
REMARK  Name = *****
REMARK                            x       y       z     vdW  Elec       q    Type
REMARK                         _______ _______ _______ _____ _____    ______ ____
ROOT
ATOM      1  C   LIG    1       25.570 -19.364   4.150  0.00  0.00    +0.256 C 
ATOM      2  N   LIG    1       26.526 -19.611   5.208  0.00  0.00    -0.180 N 
ATOM      3  C   LIG    1       26.072 -20.551   6.086  0.00  0.00    +0.318 C 
ATOM      4  N   LIG    1       26.925 -21.167   6.848  0.00  0.00    -0.079 NA
ATOM      5  C   LIG    1       28.223 -20.522   6.419  0.00  0.00    +0.334 C 
ATOM      6  C   LIG    1       24.657 -20.771   5.887  0.00  0.00    +0.075 A 
ATOM      7  C   LIG    1       23.752 -21.539   6.588  0.00  0.00    +0.016 A 
ATOM      8  C   LIG    1       22.446 -21.572   6.099  0.00  0.00    +0.001 A 
ATOM      9  C   LIG    1       22.091 -20.859   4.935  0.00  0.00    +0.001 A 
ATOM     10  C   LIG    1       23.036 -20.100   4.232  0.00  0.00    +0.012 A 
ATOM     11  C   LIG    1       27.944 -19.765   5.092  0.00  0.00    +0.279 C 
ATOM     12  C   LIG    1       24.332 -20.055   4.721  0.00  0.00    +0.045 A 
ENDROOT
BRANCH   1  13
ATOM     13  C   LIG    1       25.385 -17.876   3.892  0.00  0.00    +0.031 A 
ATOM     14  C   LIG    1       24.138 -17.255   4.094  0.00  0.00    +0.012 A 
ATOM     15  C   LIG    1       23.972 -15.883   3.883  0.00  0.00    +0.020 A 
ATOM     16  C   LIG    1       25.054 -15.110   3.470  0.00  0.00    +0.041 A 
ATOM     17 CL   LIG    1       24.849 -13.422   3.212  0.00  0.00    -0.084 Cl
ATOM     18  C   LIG    1       26.300 -15.696   3.270  0.00  0.00    +0.020 A 
ATOM     19  C   LIG    1       26.465 -17.068   3.482  0.00  0.00    +0.012 A 
ENDBRANCH   1  13
BRANCH   1  20
ATOM     20  O   LIG    1       25.982 -20.053   2.982  0.00  0.00    -0.346 OA
ATOM     21  H   LIG    1       26.532 -20.784   3.306  0.00  0.00    +0.215 HD
ENDBRANCH   1  20
TORSDOF 2
ENDMDL
MODEL 2
REMARK VINA RESULT:      -2.0      2.893      5.597
REMARK  Name = *****
REMARK                            x       y       z     vdW  Elec       q    Type
REMARK                         _______ _______ _______ _____ _____    ______ ____
ROOT
ATOM      1  C   LIG    1       25.388 -18.215   3.616  0.00  0.00    +0.256 C 
ATOM      2  N   LIG    1       24.034 -18.447   4.071  0.00  0.00    -0.180 N 
ATOM      3  C   LIG    1       23.304 -17.294   4.087  0.00  0.00    +0.318 C 
ATOM      4  N   LIG    1       22.007 -17.367   4.088  0.00  0.00    -0.079 NA
ATOM      5  C   LIG    1       21.796 -18.865   4.079  0.00  0.00    +0.334 C 
ATOM      6  C   LIG    1       24.182 -16.151   3.967  0.00  0.00    +0.075 A 
ATOM      7  C   LIG    1       23.924 -14.800   4.033  0.00  0.00    +0.016 A 
ATOM      8  C   LIG    1       25.006 -13.943   3.825  0.00  0.00    +0.001 A 
ATOM      9  C   LIG    1       26.290 -14.456   3.548  0.00  0.00    +0.001 A 
ATOM     10  C   LIG    1       26.521 -15.835   3.469  0.00  0.00    +0.012 A 
ATOM     11  C   LIG    1       23.156 -19.518   3.709  0.00  0.00    +0.279 C 
ATOM     12  C   LIG    1       25.451 -16.689   3.686  0.00  0.00    +0.045 A 
ENDROOT
BRANCH   1  13
ATOM     13  C   LIG    1       26.408 -18.918   4.498  0.00  0.00    +0.031 A 
ATOM     14  C   LIG    1       26.075 -20.093   5.198  0.00  0.00    +0.012 A 
ATOM     15  C   LIG    1       27.019 -20.755   5.988  0.00  0.00    +0.020 A 
ATOM     16  C   LIG    1       28.314 -20.254   6.087  0.00  0.00    +0.041 A 
ATOM     17 CL   LIG    1       29.474 -21.070   7.058  0.00  0.00    -0.084 Cl
ATOM     18  C   LIG    1       28.674 -19.098   5.400  0.00  0.00    +0.020 A 
ATOM     19  C   LIG    1       27.729 -18.438   4.609  0.00  0.00    +0.012 A 
ENDBRANCH   1  13
BRANCH   1  20
ATOM     20  O   LIG    1       25.497 -18.617   2.261  0.00  0.00    -0.346 OA
ATOM     21  H   LIG    1       24.778 -19.255   2.133  0.00  0.00    +0.215 HD
ENDBRANCH   1  20
TORSDOF 2
ENDMDL
