MODEL 1
REMARK VINA RESULT:      -6.8      0.000      0.000
REMARK  Name = *****
REMARK                            x       y       z     vdW  Elec       q    Type
REMARK                         _______ _______ _______ _____ _____    ______ ____
ROOT
ATOM      1  C   LIG    1       26.857 -20.431   7.754  0.00  0.00    +0.010 C 
ENDROOT
BRANCH   1   2
ATOM      2  C   LIG    1       28.169 -21.215   7.560  0.00  0.00    +0.051 C 
BRANCH   2   3
ATOM      3  C   LIG    1       29.275 -20.330   6.971  0.00  0.00    +0.133 C 
BRANCH   3   5
ATOM      4  C   LIG    1       30.881 -21.158   8.750  0.00  0.00    +0.192 C 
ATOM      5  N   LIG    1       30.352 -19.939   7.994  0.00  0.00    +0.241 N 
ATOM      6  C   LIG    1       29.741 -18.940   9.029  0.00  0.00    +0.133 C 
ATOM      7  C   LIG    1       30.529 -17.653   8.865  0.00  0.00    +0.056 C 
ATOM      8  C   LIG    1       31.884 -18.108   8.373  0.00  0.00    +0.056 C 
ATOM      9  C   LIG    1       31.523 -19.166   7.352  0.00  0.00    +0.133 C 
ENDBRANCH   3   5
ENDBRANCH   2   3
ENDBRANCH   1   2
BRANCH   1  10
ATOM     10  C   LIG    1       25.779 -21.304   8.418  0.00  0.00    +0.051 C 
BRANCH  10  11
ATOM     11  C   LIG    1       25.446 -22.551   7.583  0.00  0.00    +0.133 C 
BRANCH  11  12
ATOM     12  N   LIG    1       24.175 -22.384   6.730  0.00  0.00    +0.241 N 
ATOM     13  C   LIG    1       23.335 -21.163   7.174  0.00  0.00    +0.133 C 
ATOM     14  C   LIG    1       23.033 -20.400   5.901  0.00  0.00    +0.056 C 
ATOM     15  C   LIG    1       24.288 -20.593   5.082  0.00  0.00    +0.056 C 
ATOM     16  C   LIG    1       24.577 -22.070   5.254  0.00  0.00    +0.133 C 
ATOM     17  C   LIG    1       23.327 -23.653   6.730  0.00  0.00    +0.192 C 
ENDBRANCH  11  12
ENDBRANCH  10  11
ENDBRANCH   1  10
TORSDOF 6
ENDMDL
MODEL 2
REMARK VINA RESULT:      -6.8      1.223      1.921
REMARK  Name = *****
REMARK                            x       y       z     vdW  Elec       q    Type
REMARK                         _______ _______ _______ _____ _____    ______ ____
ROOT
ATOM      1  C   LIG    1       27.338 -21.446   7.891  0.00  0.00    +0.010 C 
ENDROOT
BRANCH   1   2
ATOM      2  C   LIG    1       28.605 -21.261   7.035  0.00  0.00    +0.051 C 
BRANCH   2   3
ATOM      3  C   LIG    1       29.787 -20.760   7.874  0.00  0.00    +0.133 C 
BRANCH   3   5
ATOM      4  C   LIG    1       29.521 -18.750   6.350  0.00  0.00    +0.192 C 
ATOM      5  N   LIG    1       30.086 -19.267   7.674  0.00  0.00    +0.241 N 
ATOM      6  C   LIG    1       31.634 -19.047   7.672  0.00  0.00    +0.133 C 
ATOM      7  C   LIG    1       31.918 -18.150   8.865  0.00  0.00    +0.056 C 
ATOM      8  C   LIG    1       30.646 -17.352   9.039  0.00  0.00    +0.056 C 
ATOM      9  C   LIG    1       29.571 -18.399   8.842  0.00  0.00    +0.133 C 
ENDBRANCH   3   5
ENDBRANCH   2   3
ENDBRANCH   1   2
BRANCH   1  10
ATOM     10  C   LIG    1       26.213 -20.501   7.435  0.00  0.00    +0.051 C 
BRANCH  10  11
ATOM     11  C   LIG    1       26.094 -20.436   5.903  0.00  0.00    +0.133 C 
BRANCH  11  12
ATOM     12  N   LIG    1       24.756 -20.987   5.379  0.00  0.00    +0.241 N 
ATOM     13  C   LIG    1       23.555 -20.484   6.213  0.00  0.00    +0.133 C 
ATOM     14  C   LIG    1       22.548 -19.976   5.202  0.00  0.00    +0.056 C 
ATOM     15  C   LIG    1       23.421 -19.383   4.120  0.00  0.00    +0.056 C 
ATOM     16  C   LIG    1       24.494 -20.437   3.941  0.00  0.00    +0.133 C 
ATOM     17  C   LIG    1       24.766 -22.511   5.308  0.00  0.00    +0.192 C 
ENDBRANCH  11  12
ENDBRANCH  10  11
ENDBRANCH   1  10
TORSDOF 6
ENDMDL
MODEL 3
REMARK VINA RESULT:      -6.7      1.226      6.929
REMARK  Name = *****
REMARK                            x       y       z     vdW  Elec       q    Type
REMARK                         _______ _______ _______ _____ _____    ______ ____
ROOT
ATOM      1  C   LIG    1       27.443 -21.416   7.992  0.00  0.00    +0.010 C 
ENDROOT
BRANCH   1   2
ATOM      2  C   LIG    1       26.283 -20.528   7.506  0.00  0.00    +0.051 C 
BRANCH   2   3
ATOM      3  C   LIG    1       26.193 -20.503   5.974  0.00  0.00    +0.133 C 
BRANCH   3   5
ATOM      4  C   LIG    1       24.769 -22.489   5.296  0.00  0.00    +0.192 C 
ATOM      5  N   LIG    1       24.832 -20.967   5.436  0.00  0.00    +0.241 N 
ATOM      6  C   LIG    1       24.589 -20.329   4.030  0.00  0.00    +0.133 C 
ATOM      7  C   LIG    1       23.357 -19.454   4.188  0.00  0.00    +0.056 C 
ATOM      8  C   LIG    1       22.574 -20.116   5.298  0.00  0.00    +0.056 C 
ATOM      9  C   LIG    1       23.654 -20.468   6.299  0.00  0.00    +0.133 C 
ENDBRANCH   3   5
ENDBRANCH   2   3
ENDBRANCH   1   2
BRANCH   1  10
ATOM     10  C   LIG    1       28.688 -21.243   7.105  0.00  0.00    +0.051 C 
BRANCH  10  11
ATOM     11  C   LIG    1       29.893 -20.703   7.893  0.00  0.00    +0.133 C 
BRANCH  11  12
ATOM     12  N   LIG    1       30.131 -19.198   7.674  0.00  0.00    +0.241 N 
ATOM     13  C   LIG    1       29.529 -18.343   8.814  0.00  0.00    +0.133 C 
ATOM     14  C   LIG    1       30.634 -17.396   9.232  0.00  0.00    +0.056 C 
ATOM     15  C   LIG    1       31.881 -18.234   9.069  0.00  0.00    +0.056 C 
ATOM     16  C   LIG    1       31.664 -18.901   7.727  0.00  0.00    +0.133 C 
ATOM     17  C   LIG    1       29.606 -18.738   6.317  0.00  0.00    +0.192 C 
ENDBRANCH  11  12
ENDBRANCH  10  11
ENDBRANCH   1  10
TORSDOF 6
ENDMDL
MODEL 4
REMARK VINA RESULT:      -6.7      0.845      7.103
REMARK  Name = *****
REMARK                            x       y       z     vdW  Elec       q    Type
REMARK                         _______ _______ _______ _____ _____    ______ ____
ROOT
ATOM      1  C   LIG    1       27.536 -20.057   6.186  0.00  0.00    +0.010 C 
ENDROOT
BRANCH   1   2
ATOM      2  C   LIG    1       26.641 -20.669   7.280  0.00  0.00    +0.051 C 
BRANCH   2   3
ATOM      3  C   LIG    1       26.074 -22.029   6.851  0.00  0.00    +0.133 C 
BRANCH   3   5
ATOM      4  C   LIG    1       23.864 -23.268   6.731  0.00  0.00    +0.192 C 
ATOM      5  N   LIG    1       24.601 -21.965   6.419  0.00  0.00    +0.241 N 
ATOM      6  C   LIG    1       24.526 -21.709   4.879  0.00  0.00    +0.133 C 
ATOM      7  C   LIG    1       23.826 -20.371   4.724  0.00  0.00    +0.056 C 
ATOM      8  C   LIG    1       22.944 -20.270   5.947  0.00  0.00    +0.056 C 
ATOM      9  C   LIG    1       23.853 -20.772   7.049  0.00  0.00    +0.133 C 
ENDBRANCH   3   5
ENDBRANCH   2   3
ENDBRANCH   1   2
BRANCH   1  10
ATOM     10  C   LIG    1       29.017 -20.400   6.419  0.00  0.00    +0.051 C 
BRANCH  10  11
ATOM     11  C   LIG    1       29.864 -19.151   6.714  0.00  0.00    +0.133 C 
BRANCH  11  12
ATOM     12  N   LIG    1       30.572 -19.212   8.080  0.00  0.00    +0.241 N 
ATOM     13  C   LIG    1       31.883 -18.392   8.090  0.00  0.00    +0.133 C 
ATOM     14  C   LIG    1       31.810 -17.533   9.336  0.00  0.00    +0.056 C 
ATOM     15  C   LIG    1       30.340 -17.198   9.433  0.00  0.00    +0.056 C 
ATOM     16  C   LIG    1       29.674 -18.531   9.162  0.00  0.00    +0.133 C 
ATOM     17  C   LIG    1       30.830 -20.651   8.516  0.00  0.00    +0.192 C 
ENDBRANCH  11  12
ENDBRANCH  10  11
ENDBRANCH   1  10
TORSDOF 6
ENDMDL
MODEL 5
REMARK VINA RESULT:      -6.3      0.921      1.813
REMARK  Name = *****
REMARK                            x       y       z     vdW  Elec       q    Type
REMARK                         _______ _______ _______ _____ _____    ______ ____
ROOT
ATOM      1  C   LIG    1       27.337 -21.225   7.965  0.00  0.00    +0.010 C 
ENDROOT
BRANCH   1   2
ATOM      2  C   LIG    1       28.580 -21.240   7.056  0.00  0.00    +0.051 C 
BRANCH   2   3
ATOM      3  C   LIG    1       29.244 -19.859   6.981  0.00  0.00    +0.133 C 
BRANCH   3   5
ATOM      4  C   LIG    1       30.790 -20.958   8.665  0.00  0.00    +0.192 C 
ATOM      5  N   LIG    1       30.310 -19.636   8.063  0.00  0.00    +0.241 N 
ATOM      6  C   LIG    1       29.707 -18.760   9.209  0.00  0.00    +0.133 C 
ATOM      7  C   LIG    1       30.535 -17.487   9.225  0.00  0.00    +0.056 C 
ATOM      8  C   LIG    1       31.885 -17.917   8.701  0.00  0.00    +0.056 C 
ATOM      9  C   LIG    1       31.516 -18.823   7.546  0.00  0.00    +0.133 C 
ENDBRANCH   3   5
ENDBRANCH   2   3
ENDBRANCH   1   2
BRANCH   1  10
ATOM     10  C   LIG    1       26.202 -20.393   7.345  0.00  0.00    +0.051 C 
BRANCH  10  11
ATOM     11  C   LIG    1       26.010 -20.695   5.849  0.00  0.00    +0.133 C 
BRANCH  11  12
ATOM     12  N   LIG    1       24.675 -21.398   5.543  0.00  0.00    +0.241 N 
ATOM     13  C   LIG    1       24.732 -22.912   5.851  0.00  0.00    +0.133 C 
ATOM     14  C   LIG    1       23.497 -23.201   6.680  0.00  0.00    +0.056 C 
ATOM     15  C   LIG    1       23.343 -21.947   7.509  0.00  0.00    +0.056 C 
ATOM     16  C   LIG    1       23.566 -20.844   6.494  0.00  0.00    +0.133 C 
ATOM     17  C   LIG    1       24.229 -21.154   4.104  0.00  0.00    +0.192 C 
ENDBRANCH  11  12
ENDBRANCH  10  11
ENDBRANCH   1  10
TORSDOF 6
ENDMDL
MODEL 6
REMARK VINA RESULT:      -6.3      3.453      7.454
REMARK  Name = *****
REMARK                            x       y       z     vdW  Elec       q    Type
REMARK                         _______ _______ _______ _____ _____    ______ ____
ROOT
ATOM      1  C   LIG    1       23.225 -24.052   6.745  0.00  0.00    +0.010 C 
ENDROOT
BRANCH   1   2
ATOM      2  C   LIG    1       24.496 -24.848   6.397  0.00  0.00    +0.051 C 
BRANCH   2   3
ATOM      3  C   LIG    1       24.186 -26.037   5.479  0.00  0.00    +0.133 C 
BRANCH   3   5
ATOM      4  C   LIG    1       26.414 -27.123   4.940  0.00  0.00    +0.192 C 
ATOM      5  N   LIG    1       25.103 -27.246   5.718  0.00  0.00    +0.241 N 
ATOM      6  C   LIG    1       24.372 -28.548   5.254  0.00  0.00    +0.133 C 
ATOM      7  C   LIG    1       24.220 -29.396   6.505  0.00  0.00    +0.056 C 
ATOM      8  C   LIG    1       25.385 -28.983   7.375  0.00  0.00    +0.056 C 
ATOM      9  C   LIG    1       25.397 -27.477   7.215  0.00  0.00    +0.133 C 
ENDBRANCH   3   5
ENDBRANCH   2   3
ENDBRANCH   1   2
BRANCH   1  10
ATOM     10  C   LIG    1       23.372 -22.570   6.360  0.00  0.00    +0.051 C 
BRANCH  10  11
ATOM     11  C   LIG    1       24.676 -22.294   5.595  0.00  0.00    +0.133 C 
BRANCH  11  12
ATOM     12  N   LIG    1       25.593 -21.284   6.309  0.00  0.00    +0.241 N 
ATOM     13  C   LIG    1       24.880 -20.590   7.493  0.00  0.00    +0.133 C 
ATOM     14  C   LIG    1       25.838 -20.703   8.661  0.00  0.00    +0.056 C 
ATOM     15  C   LIG    1       26.482 -22.053   8.443  0.00  0.00    +0.056 C 
ATOM     16  C   LIG    1       26.793 -22.041   6.961  0.00  0.00    +0.133 C 
ATOM     17  C   LIG    1       26.156 -20.252   5.336  0.00  0.00    +0.192 C 
ENDBRANCH  11  12
ENDBRANCH  10  11
ENDBRANCH   1  10
TORSDOF 6
ENDMDL
MODEL 7
REMARK VINA RESULT:      -6.3      4.030      7.297
REMARK  Name = *****
REMARK                            x       y       z     vdW  Elec       q    Type
REMARK                         _______ _______ _______ _____ _____    ______ ____
ROOT
ATOM      1  C   LIG    1       23.170 -24.242   6.746  0.00  0.00    +0.010 C 
ENDROOT
BRANCH   1   2
ATOM      2  C   LIG    1       24.524 -24.879   6.382  0.00  0.00    +0.051 C 
BRANCH   2   3
ATOM      3  C   LIG    1       24.357 -26.036   5.388  0.00  0.00    +0.133 C 
BRANCH   3   5
ATOM      4  C   LIG    1       26.419 -27.385   4.786  0.00  0.00    +0.192 C 
ATOM      5  N   LIG    1       25.220 -27.260   5.728  0.00  0.00    +0.241 N 
ATOM      6  C   LIG    1       24.353 -28.554   5.602  0.00  0.00    +0.133 C 
ATOM      7  C   LIG    1       24.320 -29.158   6.995  0.00  0.00    +0.056 C 
ATOM      8  C   LIG    1       25.615 -28.703   7.627  0.00  0.00    +0.056 C 
ATOM      9  C   LIG    1       25.700 -27.254   7.195  0.00  0.00    +0.133 C 
ENDBRANCH   3   5
ENDBRANCH   2   3
ENDBRANCH   1   2
BRANCH   1  10
ATOM     10  C   LIG    1       23.169 -22.730   6.460  0.00  0.00    +0.051 C 
BRANCH  10  11
ATOM     11  C   LIG    1       24.204 -22.341   5.391  0.00  0.00    +0.133 C 
BRANCH  11  12
ATOM     12  N   LIG    1       24.461 -20.824   5.326  0.00  0.00    +0.241 N 
ATOM     13  C   LIG    1       24.521 -20.308   3.869  0.00  0.00    +0.133 C 
ATOM     14  C   LIG    1       23.607 -19.101   3.833  0.00  0.00    +0.056 C 
ATOM     15  C   LIG    1       22.498 -19.484   4.786  0.00  0.00    +0.056 C 
ATOM     16  C   LIG    1       23.255 -20.064   5.963  0.00  0.00    +0.133 C 
ATOM     17  C   LIG    1       25.723 -20.435   6.091  0.00  0.00    +0.192 C 
ENDBRANCH  11  12
ENDBRANCH  10  11
ENDBRANCH   1  10
TORSDOF 6
ENDMDL
MODEL 8
REMARK VINA RESULT:      -6.2      1.056      7.136
REMARK  Name = *****
REMARK                            x       y       z     vdW  Elec       q    Type
REMARK                         _______ _______ _______ _____ _____    ______ ____
ROOT
ATOM      1  C   LIG    1       27.441 -21.615   7.379  0.00  0.00    +0.010 C 
ENDROOT
BRANCH   1   2
ATOM      2  C   LIG    1       26.498 -20.452   7.021  0.00  0.00    +0.051 C 
BRANCH   2   3
ATOM      3  C   LIG    1       25.961 -20.578   5.590  0.00  0.00    +0.133 C 
BRANCH   3   5
ATOM      4  C   LIG    1       23.851 -20.851   4.208  0.00  0.00    +0.192 C 
ATOM      5  N   LIG    1       24.560 -21.202   5.517  0.00  0.00    +0.241 N 
ATOM      6  C   LIG    1       23.696 -20.670   6.707  0.00  0.00    +0.133 C 
ATOM      7  C   LIG    1       23.353 -21.893   7.539  0.00  0.00    +0.056 C 
ATOM      8  C   LIG    1       23.357 -23.031   6.544  0.00  0.00    +0.056 C 
ATOM      9  C   LIG    1       24.585 -22.733   5.710  0.00  0.00    +0.133 C 
ENDBRANCH   3   5
ENDBRANCH   2   3
ENDBRANCH   1   2
BRANCH   1  10
ATOM     10  C   LIG    1       28.916 -21.193   7.263  0.00  0.00    +0.051 C 
BRANCH  10  11
ATOM     11  C   LIG    1       29.135 -19.728   7.673  0.00  0.00    +0.133 C 
BRANCH  11  12
ATOM     12  N   LIG    1       30.429 -19.514   8.479  0.00  0.00    +0.241 N 
ATOM     13  C   LIG    1       31.478 -18.700   7.685  0.00  0.00    +0.133 C 
ATOM     14  C   LIG    1       31.944 -17.613   8.632  0.00  0.00    +0.056 C 
ATOM     15  C   LIG    1       30.689 -17.275   9.405  0.00  0.00    +0.056 C 
ATOM     16  C   LIG    1       30.121 -18.640   9.736  0.00  0.00    +0.133 C 
ATOM     17  C   LIG    1       31.019 -20.838   8.956  0.00  0.00    +0.192 C 
ENDBRANCH  11  12
ENDBRANCH  10  11
ENDBRANCH   1  10
TORSDOF 6
ENDMDL
MODEL 9
REMARK VINA RESULT:      -6.2      1.376      6.957
REMARK  Name = *****
REMARK                            x       y       z     vdW  Elec       q    Type
REMARK                         _______ _______ _______ _____ _____    ______ ____
ROOT
ATOM      1  C   LIG    1       26.805 -20.593   8.102  0.00  0.00    +0.010 C 
ENDROOT
BRANCH   1   2
ATOM      2  C   LIG    1       25.404 -20.875   7.527  0.00  0.00    +0.051 C 
BRANCH   2   3
ATOM      3  C   LIG    1       25.478 -21.669   6.217  0.00  0.00    +0.133 C 
BRANCH   3   5
ATOM      4  C   LIG    1       23.363 -22.912   6.860  0.00  0.00    +0.192 C 
ATOM      5  N   LIG    1       24.777 -23.033   6.291  0.00  0.00    +0.241 N 
ATOM      6  C   LIG    1       25.603 -23.988   7.214  0.00  0.00    +0.133 C 
ATOM      7  C   LIG    1       26.047 -25.132   6.320  0.00  0.00    +0.056 C 
ATOM      8  C   LIG    1       24.976 -25.209   5.257  0.00  0.00    +0.056 C 
ATOM      9  C   LIG    1       24.737 -23.751   4.925  0.00  0.00    +0.133 C 
ENDBRANCH   3   5
ENDBRANCH   2   3
ENDBRANCH   1   2
BRANCH   1  10
ATOM     10  C   LIG    1       27.907 -21.003   7.110  0.00  0.00    +0.051 C 
BRANCH  10  11
ATOM     11  C   LIG    1       29.316 -20.767   7.678  0.00  0.00    +0.133 C 
BRANCH  11  12
ATOM     12  N   LIG    1       29.845 -19.346   7.407  0.00  0.00    +0.241 N 
ATOM     13  C   LIG    1       29.474 -18.363   8.541  0.00  0.00    +0.133 C 
ATOM     14  C   LIG    1       30.764 -17.651   8.893  0.00  0.00    +0.056 C 
ATOM     15  C   LIG    1       31.809 -18.728   8.711  0.00  0.00    +0.056 C 
ATOM     16  C   LIG    1       31.407 -19.365   7.397  0.00  0.00    +0.133 C 
ATOM     17  C   LIG    1       29.369 -18.818   6.056  0.00  0.00    +0.192 C 
ENDBRANCH  11  12
ENDBRANCH  10  11
ENDBRANCH   1  10
TORSDOF 6
ENDMDL
