MODEL 1
REMARK VINA RESULT:      -8.1      0.000      0.000
REMARK  Name = *****
REMARK                            x       y       z     vdW  Elec       q    Type
REMARK                         _______ _______ _______ _____ _____    ______ ____
ROOT
ATOM      1  C   LIG    1       25.629 -22.774   7.269  0.00  0.00    +0.099 A 
ATOM      2  C   LIG    1       24.376 -22.516   6.660  0.00  0.00    +0.047 A 
ATOM      3  C   LIG    1       23.684 -23.605   6.105  0.00  0.00    +0.014 A 
ATOM      4  C   LIG    1       24.165 -24.914   6.209  0.00  0.00    +0.013 A 
ATOM      5  C   LIG    1       25.386 -25.179   6.833  0.00  0.00    +0.057 A 
ATOM      6  C   LIG    1       26.113 -24.100   7.350  0.00  0.00    +0.040 A 
ENDROOT
BRANCH   1   8
ATOM      7  C   LIG    1       27.140 -20.299   7.145  0.00  0.00    +0.200 C 
ATOM      8  S   LIG    1       26.551 -21.569   8.220  0.00  0.00    -0.005 S 
ATOM      9  O   LIG    1       25.616 -21.013   9.173  0.00  0.00    -0.170 OA
ATOM     10  O   LIG    1       27.736 -22.249   8.707  0.00  0.00    -0.170 OA
ENDBRANCH   1   8
BRANCH   5  11
ATOM     11  C   LIG    1       25.883 -26.601   6.964  0.00  0.00    +0.417 C 
ATOM     12  F   LIG    1       26.979 -26.837   6.193  0.00  0.00    -0.166 F 
ATOM     13  F   LIG    1       24.945 -27.507   6.574  0.00  0.00    -0.166 F 
ATOM     14  F   LIG    1       26.234 -26.943   8.232  0.00  0.00    -0.166 F 
ENDBRANCH   5  11
BRANCH   2  15
ATOM     15  C   LIG    1       23.822 -21.145   6.416  0.00  0.00    +0.200 C 
ATOM     16  O   LIG    1       23.198 -20.666   7.350  0.00  0.00    -0.286 OA
BRANCH  15  17
ATOM     17  C   LIG    1       24.139 -20.379   5.205  0.00  0.00    +0.084 A 
ATOM     18  C   LIG    1       23.454 -19.322   4.597  0.00  0.00    +0.151 A 
ATOM     19  O   LIG    1       24.155 -18.923   3.489  0.00  0.00    -0.359 OA
ATOM     20  N   LIG    1       25.286 -19.683   3.335  0.00  0.00    -0.086 NA
ATOM     21  C   LIG    1       25.251 -20.558   4.334  0.00  0.00    +0.168 A 
BRANCH  18  22
ATOM     22  C   LIG    1       22.179 -18.547   4.927  0.00  0.00    +0.059 C 
ATOM     23  C   LIG    1       21.987 -17.093   4.595  0.00  0.00    +0.012 C 
ATOM     24  C   LIG    1       21.235 -18.132   3.827  0.00  0.00    +0.012 C 
ENDBRANCH  18  22
ENDBRANCH  15  17
ENDBRANCH   2  15
TORSDOF 5
ENDMDL
MODEL 2
REMARK VINA RESULT:      -7.9      2.284      4.276
REMARK  Name = *****
REMARK                            x       y       z     vdW  Elec       q    Type
REMARK                         _______ _______ _______ _____ _____    ______ ____
ROOT
ATOM      1  C   LIG    1       24.289 -23.744   6.802  0.00  0.00    +0.099 A 
ATOM      2  C   LIG    1       25.647 -23.355   6.910  0.00  0.00    +0.047 A 
ATOM      3  C   LIG    1       26.626 -24.341   6.711  0.00  0.00    +0.014 A 
ATOM      4  C   LIG    1       26.291 -25.649   6.343  0.00  0.00    +0.013 A 
ATOM      5  C   LIG    1       24.955 -26.031   6.207  0.00  0.00    +0.057 A 
ATOM      6  C   LIG    1       23.964 -25.074   6.449  0.00  0.00    +0.040 A 
ENDROOT
BRANCH   1   8
ATOM      7  C   LIG    1       23.024 -21.547   5.388  0.00  0.00    +0.200 C 
ATOM      8  S   LIG    1       22.912 -22.599   6.801  0.00  0.00    -0.005 S 
ATOM      9  O   LIG    1       21.719 -23.412   6.717  0.00  0.00    -0.170 OA
ATOM     10  O   LIG    1       23.097 -21.732   7.948  0.00  0.00    -0.170 OA
ENDBRANCH   1   8
BRANCH   5  11
ATOM     11  C   LIG    1       24.606 -27.441   5.782  0.00  0.00    +0.417 C 
ATOM     12  F   LIG    1       25.696 -28.134   5.354  0.00  0.00    -0.166 F 
ATOM     13  F   LIG    1       23.719 -27.458   4.751  0.00  0.00    -0.166 F 
ATOM     14  F   LIG    1       24.050 -28.187   6.773  0.00  0.00    -0.166 F 
ENDBRANCH   5  11
BRANCH   2  15
ATOM     15  C   LIG    1       26.104 -22.010   7.390  0.00  0.00    +0.200 C 
ATOM     16  O   LIG    1       26.140 -21.878   8.603  0.00  0.00    -0.286 OA
BRANCH  15  17
ATOM     17  C   LIG    1       26.615 -20.986   6.470  0.00  0.00    +0.084 A 
ATOM     18  C   LIG    1       27.857 -20.345   6.428  0.00  0.00    +0.151 A 
ATOM     19  O   LIG    1       27.867 -19.473   5.371  0.00  0.00    -0.359 OA
ATOM     20  N   LIG    1       26.669 -19.509   4.705  0.00  0.00    -0.086 NA
ATOM     21  C   LIG    1       25.927 -20.381   5.380  0.00  0.00    +0.168 A 
BRANCH  18  22
ATOM     22  C   LIG    1       29.139 -20.448   7.254  0.00  0.00    +0.059 C 
ATOM     23  C   LIG    1       30.382 -19.658   6.951  0.00  0.00    +0.012 C 
ATOM     24  C   LIG    1       29.559 -19.310   8.150  0.00  0.00    +0.012 C 
ENDBRANCH  18  22
ENDBRANCH  15  17
ENDBRANCH   2  15
TORSDOF 5
ENDMDL
MODEL 3
REMARK VINA RESULT:      -7.8      4.108      5.950
REMARK  Name = *****
REMARK                            x       y       z     vdW  Elec       q    Type
REMARK                         _______ _______ _______ _____ _____    ______ ____
ROOT
ATOM      1  C   LIG    1       26.568 -20.746   6.138  0.00  0.00    +0.099 A 
ATOM      2  C   LIG    1       26.628 -21.487   7.345  0.00  0.00    +0.047 A 
ATOM      3  C   LIG    1       27.800 -21.389   8.112  0.00  0.00    +0.014 A 
ATOM      4  C   LIG    1       28.849 -20.537   7.751  0.00  0.00    +0.013 A 
ATOM      5  C   LIG    1       28.784 -19.783   6.577  0.00  0.00    +0.057 A 
ATOM      6  C   LIG    1       27.645 -19.904   5.775  0.00  0.00    +0.040 A 
ENDROOT
BRANCH   1   8
ATOM      7  C   LIG    1       25.336 -19.279   3.958  0.00  0.00    +0.200 C 
ATOM      8  S   LIG    1       25.091 -20.564   5.142  0.00  0.00    -0.005 S 
ATOM      9  O   LIG    1       24.908 -21.830   4.466  0.00  0.00    -0.170 OA
ATOM     10  O   LIG    1       24.053 -20.083   6.032  0.00  0.00    -0.170 OA
ENDBRANCH   1   8
BRANCH   5  11
ATOM     11  C   LIG    1       29.913 -18.846   6.212  0.00  0.00    +0.417 C 
ATOM     12  F   LIG    1       31.119 -19.474   6.192  0.00  0.00    -0.166 F 
ATOM     13  F   LIG    1       30.035 -17.822   7.100  0.00  0.00    -0.166 F 
ATOM     14  F   LIG    1       29.769 -18.269   4.988  0.00  0.00    -0.166 F 
ENDBRANCH   5  11
BRANCH   2  15
ATOM     15  C   LIG    1       25.602 -22.494   7.769  0.00  0.00    +0.200 C 
ATOM     16  O   LIG    1       24.945 -22.181   8.748  0.00  0.00    -0.286 OA
BRANCH  15  17
ATOM     17  C   LIG    1       25.310 -23.693   6.973  0.00  0.00    +0.084 A 
ATOM     18  C   LIG    1       24.086 -24.235   6.569  0.00  0.00    +0.151 A 
ATOM     19  O   LIG    1       24.328 -25.359   5.823  0.00  0.00    -0.359 OA
ATOM     20  N   LIG    1       25.675 -25.588   5.718  0.00  0.00    -0.086 NA
ATOM     21  C   LIG    1       26.245 -24.617   6.426  0.00  0.00    +0.168 A 
BRANCH  18  22
ATOM     22  C   LIG    1       22.625 -23.823   6.750  0.00  0.00    +0.059 C 
ATOM     23  C   LIG    1       22.206 -22.508   7.347  0.00  0.00    +0.012 C 
ATOM     24  C   LIG    1       22.026 -22.746   5.882  0.00  0.00    +0.012 C 
ENDBRANCH  18  22
ENDBRANCH  15  17
ENDBRANCH   2  15
TORSDOF 5
ENDMDL
MODEL 4
REMARK VINA RESULT:      -7.8      3.640      6.072
REMARK  Name = *****
REMARK                            x       y       z     vdW  Elec       q    Type
REMARK                         _______ _______ _______ _____ _____    ______ ____
ROOT
ATOM      1  C   LIG    1       25.835 -20.445   5.887  0.00  0.00    +0.099 A 
ATOM      2  C   LIG    1       25.360 -20.642   7.207  0.00  0.00    +0.047 A 
ATOM      3  C   LIG    1       26.286 -20.532   8.257  0.00  0.00    +0.014 A 
ATOM      4  C   LIG    1       27.617 -20.167   8.030  0.00  0.00    +0.013 A 
ATOM      5  C   LIG    1       28.085 -19.944   6.734  0.00  0.00    +0.057 A 
ATOM      6  C   LIG    1       27.188 -20.096   5.671  0.00  0.00    +0.040 A 
ENDROOT
BRANCH   1   8
ATOM      7  C   LIG    1       23.257 -19.552   4.896  0.00  0.00    +0.200 C 
ATOM      8  S   LIG    1       24.779 -20.324   4.446  0.00  0.00    -0.005 S 
ATOM      9  O   LIG    1       25.491 -19.495   3.499  0.00  0.00    -0.170 OA
ATOM     10  O   LIG    1       24.433 -21.682   4.074  0.00  0.00    -0.170 OA
ENDBRANCH   1   8
BRANCH   5  11
ATOM     11  C   LIG    1       29.519 -19.523   6.504  0.00  0.00    +0.417 C 
ATOM     12  F   LIG    1       29.850 -18.412   7.216  0.00  0.00    -0.166 F 
ATOM     13  F   LIG    1       29.760 -19.222   5.199  0.00  0.00    -0.166 F 
ATOM     14  F   LIG    1       30.429 -20.474   6.847  0.00  0.00    -0.166 F 
ENDBRANCH   5  11
BRANCH   2  15
ATOM     15  C   LIG    1       23.981 -21.126   7.544  0.00  0.00    +0.200 C 
ATOM     16  O   LIG    1       23.269 -20.309   8.105  0.00  0.00    -0.286 OA
BRANCH  15  17
ATOM     17  C   LIG    1       23.481 -22.431   7.096  0.00  0.00    +0.084 A 
ATOM     18  C   LIG    1       24.154 -23.642   6.903  0.00  0.00    +0.151 A 
ATOM     19  O   LIG    1       23.251 -24.587   6.491  0.00  0.00    -0.359 OA
ATOM     20  N   LIG    1       21.995 -24.045   6.397  0.00  0.00    -0.086 NA
ATOM     21  C   LIG    1       22.147 -22.767   6.727  0.00  0.00    +0.168 A 
BRANCH  18  22
ATOM     22  C   LIG    1       25.600 -24.099   7.090  0.00  0.00    +0.059 C 
ATOM     23  C   LIG    1       25.991 -25.536   7.301  0.00  0.00    +0.012 C 
ATOM     24  C   LIG    1       26.301 -24.869   5.999  0.00  0.00    +0.012 C 
ENDBRANCH  18  22
ENDBRANCH  15  17
ENDBRANCH   2  15
TORSDOF 5
ENDMDL
MODEL 5
REMARK VINA RESULT:      -7.8      3.612      5.005
REMARK  Name = *****
REMARK                            x       y       z     vdW  Elec       q    Type
REMARK                         _______ _______ _______ _____ _____    ______ ____
ROOT
ATOM      1  C   LIG    1       26.351 -20.667   7.153  0.00  0.00    +0.099 A 
ATOM      2  C   LIG    1       26.327 -20.493   5.747  0.00  0.00    +0.047 A 
ATOM      3  C   LIG    1       27.464 -19.936   5.139  0.00  0.00    +0.014 A 
ATOM      4  C   LIG    1       28.616 -19.629   5.871  0.00  0.00    +0.013 A 
ATOM      5  C   LIG    1       28.656 -19.824   7.253  0.00  0.00    +0.057 A 
ATOM      6  C   LIG    1       27.516 -20.334   7.884  0.00  0.00    +0.040 A 
ENDROOT
BRANCH   1   8
ATOM      7  C   LIG    1       24.906 -23.173   7.395  0.00  0.00    +0.200 C 
ATOM      8  S   LIG    1       25.103 -21.557   8.078  0.00  0.00    -0.005 S 
ATOM      9  O   LIG    1       25.602 -21.652   9.432  0.00  0.00    -0.170 OA
ATOM     10  O   LIG    1       23.847 -20.875   7.835  0.00  0.00    -0.170 OA
ENDBRANCH   1   8
BRANCH   5  11
ATOM     11  C   LIG    1       29.917 -19.514   8.030  0.00  0.00    +0.417 C 
ATOM     12  F   LIG    1       29.733 -18.511   8.930  0.00  0.00    -0.166 F 
ATOM     13  F   LIG    1       30.931 -19.111   7.217  0.00  0.00    -0.166 F 
ATOM     14  F   LIG    1       30.396 -20.572   8.737  0.00  0.00    -0.166 F 
ENDBRANCH   5  11
BRANCH   2  15
ATOM     15  C   LIG    1       25.114 -20.702   4.892  0.00  0.00    +0.200 C 
ATOM     16  O   LIG    1       24.918 -21.856   4.547  0.00  0.00    -0.286 OA
BRANCH  15  17
ATOM     17  C   LIG    1       24.155 -19.624   4.620  0.00  0.00    +0.084 A 
ATOM     18  C   LIG    1       24.307 -18.438   3.896  0.00  0.00    +0.151 A 
ATOM     19  O   LIG    1       23.118 -17.758   3.910  0.00  0.00    -0.359 OA
ATOM     20  N   LIG    1       22.175 -18.450   4.625  0.00  0.00    -0.086 NA
ATOM     21  C   LIG    1       22.806 -19.534   5.065  0.00  0.00    +0.168 A 
BRANCH  18  22
ATOM     22  C   LIG    1       25.456 -17.811   3.106  0.00  0.00    +0.059 C 
ATOM     23  C   LIG    1       25.764 -16.339   3.125  0.00  0.00    +0.012 C 
ATOM     24  C   LIG    1       26.678 -17.294   3.823  0.00  0.00    +0.012 C 
ENDBRANCH  18  22
ENDBRANCH  15  17
ENDBRANCH   2  15
TORSDOF 5
ENDMDL
MODEL 6
REMARK VINA RESULT:      -7.6      4.375      6.890
REMARK  Name = *****
REMARK                            x       y       z     vdW  Elec       q    Type
REMARK                         _______ _______ _______ _____ _____    ______ ____
ROOT
ATOM      1  C   LIG    1       26.376 -20.738   6.897  0.00  0.00    +0.099 A 
ATOM      2  C   LIG    1       27.673 -20.182   6.777  0.00  0.00    +0.047 A 
ATOM      3  C   LIG    1       27.996 -19.532   5.574  0.00  0.00    +0.014 A 
ATOM      4  C   LIG    1       27.057 -19.366   4.551  0.00  0.00    +0.013 A 
ATOM      5  C   LIG    1       25.768 -19.887   4.675  0.00  0.00    +0.057 A 
ATOM      6  C   LIG    1       25.442 -20.579   5.847  0.00  0.00    +0.040 A 
ENDROOT
BRANCH   1   8
ATOM      7  C   LIG    1       23.952 -21.558   8.266  0.00  0.00    +0.200 C 
ATOM      8  S   LIG    1       25.703 -21.402   8.417  0.00  0.00    -0.005 S 
ATOM      9  O   LIG    1       26.302 -22.709   8.580  0.00  0.00    -0.170 OA
ATOM     10  O   LIG    1       25.919 -20.395   9.438  0.00  0.00    -0.170 OA
ENDBRANCH   1   8
BRANCH   5  11
ATOM     11  C   LIG    1       24.753 -19.677   3.573  0.00  0.00    +0.417 C 
ATOM     12  F   LIG    1       24.400 -18.370   3.440  0.00  0.00    -0.166 F 
ATOM     13  F   LIG    1       23.598 -20.358   3.806  0.00  0.00    -0.166 F 
ATOM     14  F   LIG    1       25.187 -20.075   2.348  0.00  0.00    -0.166 F 
ENDBRANCH   5  11
BRANCH   2  15
ATOM     15  C   LIG    1       28.775 -20.387   7.773  0.00  0.00    +0.200 C 
ATOM     16  O   LIG    1       28.622 -21.337   8.524  0.00  0.00    -0.286 OA
BRANCH  15  17
ATOM     17  C   LIG    1       30.013 -19.599   7.741  0.00  0.00    +0.084 A 
ATOM     18  C   LIG    1       30.464 -18.586   8.593  0.00  0.00    +0.151 A 
ATOM     19  O   LIG    1       31.694 -18.163   8.162  0.00  0.00    -0.359 OA
ATOM     20  N   LIG    1       32.079 -18.859   7.046  0.00  0.00    -0.086 NA
ATOM     21  C   LIG    1       31.068 -19.682   6.788  0.00  0.00    +0.168 A 
BRANCH  18  22
ATOM     22  C   LIG    1       29.906 -17.927   9.855  0.00  0.00    +0.059 C 
ATOM     23  C   LIG    1       30.686 -17.802  11.134  0.00  0.00    +0.012 C 
ATOM     24  C   LIG    1       30.426 -16.585  10.305  0.00  0.00    +0.012 C 
ENDBRANCH  18  22
ENDBRANCH  15  17
ENDBRANCH   2  15
TORSDOF 5
ENDMDL
MODEL 7
REMARK VINA RESULT:      -7.4      2.302      4.969
REMARK  Name = *****
REMARK                            x       y       z     vdW  Elec       q    Type
REMARK                         _______ _______ _______ _____ _____    ______ ____
ROOT
ATOM      1  C   LIG    1       24.710 -22.345   6.682  0.00  0.00    +0.099 A 
ATOM      2  C   LIG    1       26.049 -22.250   7.136  0.00  0.00    +0.047 A 
ATOM      3  C   LIG    1       26.804 -23.432   7.193  0.00  0.00    +0.014 A 
ATOM      4  C   LIG    1       26.292 -24.656   6.750  0.00  0.00    +0.013 A 
ATOM      5  C   LIG    1       24.983 -24.752   6.275  0.00  0.00    +0.057 A 
ATOM      6  C   LIG    1       24.199 -23.593   6.256  0.00  0.00    +0.040 A 
ENDROOT
BRANCH   1   8
ATOM      7  C   LIG    1       22.250 -21.466   5.418  0.00  0.00    +0.200 C 
ATOM      8  S   LIG    1       23.665 -20.935   6.329  0.00  0.00    -0.005 S 
ATOM      9  O   LIG    1       23.256 -20.411   7.614  0.00  0.00    -0.170 OA
ATOM     10  O   LIG    1       24.414 -20.084   5.426  0.00  0.00    -0.170 OA
ENDBRANCH   1   8
BRANCH   5  11
ATOM     11  C   LIG    1       24.449 -26.075   5.773  0.00  0.00    +0.417 C 
ATOM     12  F   LIG    1       24.116 -26.915   6.790  0.00  0.00    -0.166 F 
ATOM     13  F   LIG    1       25.364 -26.741   5.017  0.00  0.00    -0.166 F 
ATOM     14  F   LIG    1       23.335 -25.958   5.002  0.00  0.00    -0.166 F 
ENDBRANCH   5  11
BRANCH   2  15
ATOM     15  C   LIG    1       26.656 -21.009   7.718  0.00  0.00    +0.200 C 
ATOM     16  O   LIG    1       26.316 -20.755   8.863  0.00  0.00    -0.286 OA
BRANCH  15  17
ATOM     17  C   LIG    1       27.698 -20.247   7.018  0.00  0.00    +0.084 A 
ATOM     18  C   LIG    1       28.991 -19.900   7.420  0.00  0.00    +0.151 A 
ATOM     19  O   LIG    1       29.592 -19.196   6.410  0.00  0.00    -0.359 OA
ATOM     20  N   LIG    1       28.740 -19.058   5.345  0.00  0.00    -0.086 NA
ATOM     21  C   LIG    1       27.615 -19.655   5.725  0.00  0.00    +0.168 A 
BRANCH  18  22
ATOM     22  C   LIG    1       29.827 -20.169   8.671  0.00  0.00    +0.059 C 
ATOM     23  C   LIG    1       30.833 -21.282   8.768  0.00  0.00    +0.012 C 
ATOM     24  C   LIG    1       31.304 -19.866   8.678  0.00  0.00    +0.012 C 
ENDBRANCH  18  22
ENDBRANCH  15  17
ENDBRANCH   2  15
TORSDOF 5
ENDMDL
MODEL 8
REMARK VINA RESULT:      -7.2      3.676      5.136
REMARK  Name = *****
REMARK                            x       y       z     vdW  Elec       q    Type
REMARK                         _______ _______ _______ _____ _____    ______ ____
ROOT
ATOM      1  C   LIG    1       26.866 -20.383   7.427  0.00  0.00    +0.099 A 
ATOM      2  C   LIG    1       26.944 -20.355   6.013  0.00  0.00    +0.047 A 
ATOM      3  C   LIG    1       28.113 -19.833   5.434  0.00  0.00    +0.014 A 
ATOM      4  C   LIG    1       29.200 -19.423   6.212  0.00  0.00    +0.013 A 
ATOM      5  C   LIG    1       29.140 -19.474   7.606  0.00  0.00    +0.057 A 
ATOM      6  C   LIG    1       27.965 -19.946   8.202  0.00  0.00    +0.040 A 
ENDROOT
BRANCH   1   8
ATOM      7  C   LIG    1       25.583 -22.929   7.969  0.00  0.00    +0.200 C 
ATOM      8  S   LIG    1       25.568 -21.205   8.346  0.00  0.00    -0.005 S 
ATOM      9  O   LIG    1       25.880 -21.004   9.744  0.00  0.00    -0.170 OA
ATOM     10  O   LIG    1       24.312 -20.703   7.823  0.00  0.00    -0.170 OA
ENDBRANCH   1   8
BRANCH   5  11
ATOM     11  C   LIG    1       30.333 -19.052   8.436  0.00  0.00    +0.417 C 
ATOM     12  F   LIG    1       30.871 -20.092   9.130  0.00  0.00    -0.166 F 
ATOM     13  F   LIG    1       30.003 -18.111   9.362  0.00  0.00    -0.166 F 
ATOM     14  F   LIG    1       31.348 -18.523   7.703  0.00  0.00    -0.166 F 
ENDBRANCH   5  11
BRANCH   2  15
ATOM     15  C   LIG    1       25.803 -20.682   5.097  0.00  0.00    +0.200 C 
ATOM     16  O   LIG    1       25.531 -21.869   5.015  0.00  0.00    -0.286 OA
BRANCH  15  17
ATOM     17  C   LIG    1       24.982 -19.640   4.470  0.00  0.00    +0.084 A 
ATOM     18  C   LIG    1       23.604 -19.412   4.533  0.00  0.00    +0.151 A 
ATOM     19  O   LIG    1       23.306 -18.301   3.790  0.00  0.00    -0.359 OA
ATOM     20  N   LIG    1       24.443 -17.778   3.228  0.00  0.00    -0.086 NA
ATOM     21  C   LIG    1       25.421 -18.593   3.610  0.00  0.00    +0.168 A 
BRANCH  18  22
ATOM     22  C   LIG    1       22.442 -20.094   5.256  0.00  0.00    +0.059 C 
ATOM     23  C   LIG    1       21.315 -20.784   4.540  0.00  0.00    +0.012 C 
ATOM     24  C   LIG    1       22.334 -21.598   5.270  0.00  0.00    +0.012 C 
ENDBRANCH  18  22
ENDBRANCH  15  17
ENDBRANCH   2  15
TORSDOF 5
ENDMDL
MODEL 9
REMARK VINA RESULT:      -7.1      2.329      3.407
REMARK  Name = *****
REMARK                            x       y       z     vdW  Elec       q    Type
REMARK                         _______ _______ _______ _____ _____    ______ ____
ROOT
ATOM      1  C   LIG    1       24.161 -23.701   6.829  0.00  0.00    +0.099 A 
ATOM      2  C   LIG    1       25.498 -23.244   6.936  0.00  0.00    +0.047 A 
ATOM      3  C   LIG    1       26.526 -24.178   6.726  0.00  0.00    +0.014 A 
ATOM      4  C   LIG    1       26.257 -25.498   6.350  0.00  0.00    +0.013 A 
ATOM      5  C   LIG    1       24.942 -25.947   6.216  0.00  0.00    +0.057 A 
ATOM      6  C   LIG    1       23.903 -25.044   6.468  0.00  0.00    +0.040 A 
ENDROOT
BRANCH   1   8
ATOM      7  C   LIG    1       22.807 -21.527   5.464  0.00  0.00    +0.200 C 
ATOM      8  S   LIG    1       22.728 -22.628   6.841  0.00  0.00    -0.005 S 
ATOM      9  O   LIG    1       21.579 -23.497   6.712  0.00  0.00    -0.170 OA
ATOM     10  O   LIG    1       22.851 -21.790   8.018  0.00  0.00    -0.170 OA
ENDBRANCH   1   8
BRANCH   5  11
ATOM     11  C   LIG    1       24.664 -27.369   5.783  0.00  0.00    +0.417 C 
ATOM     12  F   LIG    1       23.780 -27.430   4.750  0.00  0.00    -0.166 F 
ATOM     13  F   LIG    1       24.123 -28.113   6.786  0.00  0.00    -0.166 F 
ATOM     14  F   LIG    1       25.772 -28.041   5.370  0.00  0.00    -0.166 F 
ENDBRANCH   5  11
BRANCH   2  15
ATOM     15  C   LIG    1       25.888 -21.880   7.423  0.00  0.00    +0.200 C 
ATOM     16  O   LIG    1       25.497 -21.601   8.545  0.00  0.00    -0.286 OA
BRANCH  15  17
ATOM     17  C   LIG    1       26.799 -21.012   6.667  0.00  0.00    +0.084 A 
ATOM     18  C   LIG    1       26.554 -20.177   5.573  0.00  0.00    +0.151 A 
ATOM     19  O   LIG    1       27.723 -19.553   5.225  0.00  0.00    -0.359 OA
ATOM     20  N   LIG    1       28.744 -19.947   6.051  0.00  0.00    -0.086 NA
ATOM     21  C   LIG    1       28.195 -20.831   6.878  0.00  0.00    +0.168 A 
BRANCH  18  22
ATOM     22  C   LIG    1       25.308 -19.815   4.766  0.00  0.00    +0.059 C 
ATOM     23  C   LIG    1       25.306 -18.790   3.665  0.00  0.00    +0.012 C 
ATOM     24  C   LIG    1       25.186 -20.241   3.324  0.00  0.00    +0.012 C 
ENDBRANCH  18  22
ENDBRANCH  15  17
ENDBRANCH   2  15
TORSDOF 5
ENDMDL
