MODEL 1
REMARK VINA RESULT:      -7.1      0.000      0.000
REMARK  Name = *****
REMARK                            x       y       z     vdW  Elec       q    Type
REMARK                         _______ _______ _______ _____ _____    ______ ____
ROOT
ATOM      1  C   LIG    1       24.771 -21.038   6.605  0.00  0.00    +0.006 C 
ATOM      2  C   LIG    1       25.096 -21.545   7.999  0.00  0.00    +0.107 C 
ATOM      3  S   LIG    1       26.531 -20.708   8.712  0.00  0.00    -0.131 S 
ATOM      4  C   LIG    1       27.599 -21.168   7.321  0.00  0.00    +0.169 C 
ATOM      5  N   LIG    1       27.053 -20.659   6.071  0.00  0.00    -0.249 N 
ATOM      6  C   LIG    1       28.041 -19.759   5.844  0.00  0.00    +0.244 C 
ATOM      7  O   LIG    1       28.121 -18.904   4.992  0.00  0.00    -0.273 OA
ATOM      8  CA  LIG    1       28.827 -20.233   7.094  0.00  0.00    +0.191 C 
ATOM      9  CA  LIG    1       25.722 -20.639   5.715  0.00  0.00    +0.125 C 
ENDROOT
BRANCH   8  10
ATOM     10  N   LIG    1       29.078 -19.185   8.129  0.00  0.00    -0.301 N 
ATOM     11  H   LIG    1       28.424 -19.106   8.904  0.00  0.00    +0.150 HD
ATOM     12  C   LIG    1       30.208 -18.396   8.107  0.00  0.00    +0.228 C 
ATOM     13  O   LIG    1       31.069 -18.518   7.240  0.00  0.00    -0.275 OA
BRANCH  12  14
ATOM     14  C   LIG    1       30.321 -17.410   9.244  0.00  0.00    +0.214 C 
BRANCH  14  15
ATOM     15  C   LIG    1       31.595 -17.560   9.935  0.00  0.00    +0.072 C 
ATOM     16  N   LIG    1       32.615 -17.621  10.503  0.00  0.00    -0.196 NA
ENDBRANCH  14  15
ENDBRANCH  12  14
ENDBRANCH   8  10
BRANCH   9  17
ATOM     17  C   LIG    1       25.335 -20.247   4.293  0.00  0.00    +0.351 C 
ATOM     18  O   LIG    1       24.882 -21.020   3.463  0.00  0.00    -0.244 OA
BRANCH  17  19
ATOM     19  OXT LIG    1       25.657 -18.992   3.924  0.00  0.00    -0.476 OA
ATOM     20  HXT LIG    1       25.946 -18.400   4.648  0.00  0.00    +0.295 HD
ENDBRANCH  17  19
ENDBRANCH   9  17
BRANCH   1  21
ATOM     21  C   LIG    1       23.272 -20.994   6.350  0.00  0.00    +0.266 C 
BRANCH  21  22
ATOM     22  O   LIG    1       22.864 -19.658   6.039  0.00  0.00    -0.460 OA
BRANCH  22  24
ATOM     23  C   LIG    1       22.201 -18.090   4.440  0.00  0.00    +0.136 C 
ATOM     24  C   LIG    1       22.112 -19.501   4.921  0.00  0.00    +0.304 C 
ATOM     25  O   LIG    1       21.510 -20.391   4.337  0.00  0.00    -0.251 OA
ENDBRANCH  22  24
ENDBRANCH  21  22
ENDBRANCH   1  21
TORSDOF 8
ENDMDL
MODEL 2
REMARK VINA RESULT:      -7.0      1.798      2.399
REMARK  Name = *****
REMARK                            x       y       z     vdW  Elec       q    Type
REMARK                         _______ _______ _______ _____ _____    ______ ____
ROOT
ATOM      1  C   LIG    1       25.710 -21.031   6.745  0.00  0.00    +0.006 C 
ATOM      2  C   LIG    1       26.545 -21.575   7.890  0.00  0.00    +0.107 C 
ATOM      3  S   LIG    1       27.956 -20.512   8.272  0.00  0.00    -0.131 S 
ATOM      4  C   LIG    1       28.594 -20.604   6.578  0.00  0.00    +0.169 C 
ATOM      5  N   LIG    1       27.598 -20.118   5.632  0.00  0.00    -0.249 N 
ATOM      6  C   LIG    1       28.285 -19.008   5.266  0.00  0.00    +0.244 C 
ATOM      7  O   LIG    1       27.936 -18.085   4.566  0.00  0.00    -0.273 OA
ATOM      8  CA  LIG    1       29.497 -19.408   6.147  0.00  0.00    +0.191 C 
ATOM      9  CA  LIG    1       26.243 -20.358   5.687  0.00  0.00    +0.125 C 
ENDROOT
BRANCH   8  10
ATOM     10  N   LIG    1       29.870 -18.425   7.209  0.00  0.00    -0.301 N 
ATOM     11  H   LIG    1       29.170 -17.749   7.507  0.00  0.00    +0.150 HD
ATOM     12  C   LIG    1       31.089 -18.472   7.849  0.00  0.00    +0.228 C 
ATOM     13  O   LIG    1       31.930 -19.327   7.585  0.00  0.00    -0.275 OA
BRANCH  12  14
ATOM     14  C   LIG    1       31.290 -17.425   8.919  0.00  0.00    +0.214 C 
BRANCH  14  15
ATOM     15  C   LIG    1       30.932 -17.949  10.230  0.00  0.00    +0.072 C 
ATOM     16  N   LIG    1       30.621 -18.418  11.254  0.00  0.00    -0.196 NA
ENDBRANCH  14  15
ENDBRANCH  12  14
ENDBRANCH   8  10
BRANCH   9  17
ATOM     17  C   LIG    1       25.362 -19.936   4.516  0.00  0.00    +0.351 C 
ATOM     18  O   LIG    1       24.220 -19.516   4.627  0.00  0.00    -0.244 OA
BRANCH  17  19
ATOM     19  OXT LIG    1       25.861 -20.186   3.289  0.00  0.00    -0.476 OA
ATOM     20  HXT LIG    1       26.767 -19.852   3.126  0.00  0.00    +0.295 HD
ENDBRANCH  17  19
ENDBRANCH   9  17
BRANCH   1  21
ATOM     21  C   LIG    1       24.225 -21.292   6.947  0.00  0.00    +0.266 C 
BRANCH  21  22
ATOM     22  O   LIG    1       24.031 -22.544   7.614  0.00  0.00    -0.460 OA
BRANCH  22  24
ATOM     23  C   LIG    1       24.572 -24.455   6.385  0.00  0.00    +0.136 C 
ATOM     24  C   LIG    1       23.493 -23.544   6.873  0.00  0.00    +0.304 C 
ATOM     25  O   LIG    1       22.298 -23.732   6.689  0.00  0.00    -0.251 OA
ENDBRANCH  22  24
ENDBRANCH  21  22
ENDBRANCH   1  21
TORSDOF 8
ENDMDL
MODEL 3
REMARK VINA RESULT:      -7.0      2.734      7.606
REMARK  Name = *****
REMARK                            x       y       z     vdW  Elec       q    Type
REMARK                         _______ _______ _______ _____ _____    ______ ____
ROOT
ATOM      1  C   LIG    1       30.692 -19.364   7.162  0.00  0.00    +0.006 C 
ATOM      2  C   LIG    1       30.081 -18.746   5.917  0.00  0.00    +0.107 C 
ATOM      3  S   LIG    1       28.288 -18.970   5.853  0.00  0.00    -0.131 S 
ATOM      4  C   LIG    1       28.422 -20.773   5.983  0.00  0.00    +0.169 C 
ATOM      5  N   LIG    1       29.121 -21.145   7.205  0.00  0.00    -0.249 N 
ATOM      6  C   LIG    1       28.049 -21.711   7.812  0.00  0.00    +0.244 C 
ATOM      7  O   LIG    1       27.937 -22.125   8.942  0.00  0.00    -0.273 OA
ATOM      8  CA  LIG    1       27.162 -21.489   6.559  0.00  0.00    +0.191 C 
ATOM      9  CA  LIG    1       30.220 -20.506   7.736  0.00  0.00    +0.125 C 
ENDROOT
BRANCH   8  10
ATOM     10  N   LIG    1       25.947 -20.647   6.777  0.00  0.00    -0.301 N 
ATOM     11  H   LIG    1       26.065 -19.639   6.848  0.00  0.00    +0.150 HD
ATOM     12  C   LIG    1       24.679 -21.187   6.790  0.00  0.00    +0.228 C 
ATOM     13  O   LIG    1       24.482 -22.387   6.619  0.00  0.00    -0.275 OA
BRANCH  12  14
ATOM     14  C   LIG    1       23.562 -20.192   6.990  0.00  0.00    +0.214 C 
BRANCH  14  15
ATOM     15  C   LIG    1       22.808 -20.007   5.758  0.00  0.00    +0.072 C 
ATOM     16  N   LIG    1       22.221 -19.801   4.768  0.00  0.00    -0.196 NA
ENDBRANCH  14  15
ENDBRANCH  12  14
ENDBRANCH   8  10
BRANCH   9  17
ATOM     17  C   LIG    1       30.949 -21.135   8.920  0.00  0.00    +0.351 C 
ATOM     18  O   LIG    1       30.765 -20.825  10.087  0.00  0.00    -0.244 OA
BRANCH  17  19
ATOM     19  OXT LIG    1       31.949 -21.983   8.608  0.00  0.00    -0.476 OA
ATOM     20  HXT LIG    1       32.519 -22.256   9.356  0.00  0.00    +0.295 HD
ENDBRANCH  17  19
ENDBRANCH   9  17
BRANCH   1  21
ATOM     21  C   LIG    1       31.850 -18.538   7.700  0.00  0.00    +0.266 C 
BRANCH  21  22
ATOM     22  O   LIG    1       31.355 -17.441   8.475  0.00  0.00    -0.460 OA
BRANCH  22  24
ATOM     23  C   LIG    1       30.241 -17.340  10.526  0.00  0.00    +0.136 C 
ATOM     24  C   LIG    1       31.544 -17.518   9.816  0.00  0.00    +0.304 C 
ATOM     25  O   LIG    1       32.602 -17.773  10.374  0.00  0.00    -0.251 OA
ENDBRANCH  22  24
ENDBRANCH  21  22
ENDBRANCH   1  21
TORSDOF 8
ENDMDL
MODEL 4
REMARK VINA RESULT:      -6.7      2.769      7.067
REMARK  Name = *****
REMARK                            x       y       z     vdW  Elec       q    Type
REMARK                         _______ _______ _______ _____ _____    ______ ____
ROOT
ATOM      1  C   LIG    1       28.026 -20.398   7.100  0.00  0.00    +0.006 C 
ATOM      2  C   LIG    1       27.616 -21.332   8.224  0.00  0.00    +0.107 C 
ATOM      3  S   LIG    1       26.515 -22.646   7.651  0.00  0.00    -0.131 S 
ATOM      4  C   LIG    1       25.312 -21.466   6.984  0.00  0.00    +0.169 C 
ATOM      5  N   LIG    1       25.939 -20.608   5.988  0.00  0.00    -0.249 N 
ATOM      6  C   LIG    1       25.251 -21.098   4.928  0.00  0.00    +0.244 C 
ATOM      7  O   LIG    1       25.396 -20.874   3.749  0.00  0.00    -0.273 OA
ATOM      8  CA  LIG    1       24.404 -22.022   5.842  0.00  0.00    +0.191 C 
ATOM      9  CA  LIG    1       27.204 -20.067   6.066  0.00  0.00    +0.125 C 
ENDROOT
BRANCH   8  10
ATOM     10  N   LIG    1       24.507 -23.483   5.548  0.00  0.00    -0.301 N 
ATOM     11  H   LIG    1       25.270 -23.803   4.955  0.00  0.00    +0.150 HD
ATOM     12  C   LIG    1       23.662 -24.404   6.127  0.00  0.00    +0.228 C 
ATOM     13  O   LIG    1       22.784 -24.073   6.920  0.00  0.00    -0.275 OA
BRANCH  12  14
ATOM     14  C   LIG    1       23.924 -25.841   5.746  0.00  0.00    +0.214 C 
BRANCH  14  15
ATOM     15  C   LIG    1       25.351 -26.080   5.577  0.00  0.00    +0.072 C 
ATOM     16  N   LIG    1       26.483 -26.305   5.392  0.00  0.00    -0.196 NA
ENDBRANCH  14  15
ENDBRANCH  12  14
ENDBRANCH   8  10
BRANCH   9  17
ATOM     17  C   LIG    1       27.639 -19.036   5.030  0.00  0.00    +0.351 C 
ATOM     18  O   LIG    1       28.728 -18.483   5.022  0.00  0.00    -0.244 OA
BRANCH  17  19
ATOM     19  OXT LIG    1       26.685 -18.635   4.167  0.00  0.00    -0.476 OA
ATOM     20  HXT LIG    1       26.417 -17.696   4.241  0.00  0.00    +0.295 HD
ENDBRANCH  17  19
ENDBRANCH   9  17
BRANCH   1  21
ATOM     21  C   LIG    1       29.463 -19.920   7.252  0.00  0.00    +0.266 C 
BRANCH  21  22
ATOM     22  O   LIG    1       29.848 -19.946   8.630  0.00  0.00    -0.460 OA
BRANCH  22  24
ATOM     23  C   LIG    1       30.395 -17.755   9.228  0.00  0.00    +0.136 C 
ATOM     24  C   LIG    1       30.885 -19.145   8.981  0.00  0.00    +0.304 C 
ATOM     25  O   LIG    1       32.040 -19.508   9.152  0.00  0.00    -0.251 OA
ENDBRANCH  22  24
ENDBRANCH  21  22
ENDBRANCH   1  21
TORSDOF 8
ENDMDL
MODEL 5
REMARK VINA RESULT:      -6.0      3.107      7.337
REMARK  Name = *****
REMARK                            x       y       z     vdW  Elec       q    Type
REMARK                         _______ _______ _______ _____ _____    ______ ____
ROOT
ATOM      1  C   LIG    1       27.547 -20.244   6.853  0.00  0.00    +0.006 C 
ATOM      2  C   LIG    1       27.757 -19.882   5.394  0.00  0.00    +0.107 C 
ATOM      3  S   LIG    1       26.200 -19.530   4.547  0.00  0.00    -0.131 S 
ATOM      4  C   LIG    1       25.501 -21.147   4.976  0.00  0.00    +0.169 C 
ATOM      5  N   LIG    1       25.476 -21.323   6.421  0.00  0.00    -0.249 N 
ATOM      6  C   LIG    1       24.126 -21.299   6.541  0.00  0.00    +0.244 C 
ATOM      7  O   LIG    1       23.445 -21.283   7.540  0.00  0.00    -0.273 OA
ATOM      8  CA  LIG    1       23.942 -21.206   5.004  0.00  0.00    +0.191 C 
ATOM      9  CA  LIG    1       26.463 -20.937   7.302  0.00  0.00    +0.125 C 
ENDROOT
BRANCH   8  10
ATOM     10  N   LIG    1       23.211 -19.997   4.519  0.00  0.00    -0.301 N 
ATOM     11  H   LIG    1       23.756 -19.189   4.226  0.00  0.00    +0.150 HD
ATOM     12  C   LIG    1       21.841 -19.984   4.373  0.00  0.00    +0.228 C 
ATOM     13  O   LIG    1       21.151 -20.967   4.629  0.00  0.00    -0.275 OA
BRANCH  12  14
ATOM     14  C   LIG    1       21.267 -18.693   3.841  0.00  0.00    +0.214 C 
BRANCH  14  15
ATOM     15  C   LIG    1       22.020 -17.549   4.336  0.00  0.00    +0.072 C 
ATOM     16  N   LIG    1       22.673 -16.652   4.704  0.00  0.00    -0.196 NA
ENDBRANCH  14  15
ENDBRANCH  12  14
ENDBRANCH   8  10
BRANCH   9  17
ATOM     17  C   LIG    1       26.369 -21.365   8.762  0.00  0.00    +0.351 C 
ATOM     18  O   LIG    1       26.597 -22.495   9.167  0.00  0.00    -0.244 OA
BRANCH  17  19
ATOM     19  OXT LIG    1       25.866 -20.446   9.610  0.00  0.00    -0.476 OA
ATOM     20  HXT LIG    1       25.255 -20.792  10.293  0.00  0.00    +0.295 HD
ENDBRANCH  17  19
ENDBRANCH   9  17
BRANCH   1  21
ATOM     21  C   LIG    1       28.660 -19.707   7.740  0.00  0.00    +0.266 C 
BRANCH  21  22
ATOM     22  O   LIG    1       29.562 -20.761   8.093  0.00  0.00    -0.460 OA
BRANCH  22  24
ATOM     23  C   LIG    1       31.220 -19.361   7.229  0.00  0.00    +0.136 C 
ATOM     24  C   LIG    1       30.868 -20.419   8.223  0.00  0.00    +0.304 C 
ATOM     25  O   LIG    1       31.635 -20.845   9.075  0.00  0.00    -0.251 OA
ENDBRANCH  22  24
ENDBRANCH  21  22
ENDBRANCH   1  21
TORSDOF 8
ENDMDL
MODEL 6
REMARK VINA RESULT:      -5.8      2.456      3.191
REMARK  Name = *****
REMARK                            x       y       z     vdW  Elec       q    Type
REMARK                         _______ _______ _______ _____ _____    ______ ____
ROOT
ATOM      1  C   LIG    1       25.022 -21.154   5.160  0.00  0.00    +0.006 C 
ATOM      2  C   LIG    1       25.905 -19.982   4.771  0.00  0.00    +0.107 C 
ATOM      3  S   LIG    1       27.453 -19.956   5.704  0.00  0.00    -0.131 S 
ATOM      4  C   LIG    1       26.593 -19.936   7.299  0.00  0.00    +0.169 C 
ATOM      5  N   LIG    1       25.730 -21.103   7.426  0.00  0.00    -0.249 N 
ATOM      6  C   LIG    1       26.442 -21.695   8.416  0.00  0.00    +0.244 C 
ATOM      7  O   LIG    1       26.308 -22.792   8.907  0.00  0.00    -0.273 OA
ATOM      8  CA  LIG    1       27.418 -20.493   8.501  0.00  0.00    +0.191 C 
ATOM      9  CA  LIG    1       24.954 -21.649   6.427  0.00  0.00    +0.125 C 
ENDROOT
BRANCH   8  10
ATOM     10  N   LIG    1       28.854 -20.814   8.244  0.00  0.00    -0.301 N 
ATOM     11  H   LIG    1       29.082 -21.726   7.855  0.00  0.00    +0.150 HD
ATOM     12  C   LIG    1       29.853 -19.884   8.431  0.00  0.00    +0.228 C 
ATOM     13  O   LIG    1       29.615 -18.742   8.813  0.00  0.00    -0.275 OA
BRANCH  12  14
ATOM     14  C   LIG    1       31.245 -20.363   8.094  0.00  0.00    +0.214 C 
BRANCH  14  15
ATOM     15  C   LIG    1       31.502 -21.666   8.692  0.00  0.00    +0.072 C 
ATOM     16  N   LIG    1       31.663 -22.701   9.211  0.00  0.00    -0.196 NA
ENDBRANCH  14  15
ENDBRANCH  12  14
ENDBRANCH   8  10
BRANCH   9  17
ATOM     17  C   LIG    1       23.963 -22.755   6.774  0.00  0.00    +0.351 C 
ATOM     18  O   LIG    1       24.126 -23.936   6.507  0.00  0.00    -0.244 OA
BRANCH  17  19
ATOM     19  OXT LIG    1       22.784 -22.347   7.283  0.00  0.00    -0.476 OA
ATOM     20  HXT LIG    1       22.037 -22.323   6.650  0.00  0.00    +0.295 HD
ENDBRANCH  17  19
ENDBRANCH   9  17
BRANCH   1  21
ATOM     21  C   LIG    1       24.267 -21.720   3.967  0.00  0.00    +0.266 C 
BRANCH  21  22
ATOM     22  O   LIG    1       23.304 -20.771   3.497  0.00  0.00    -0.460 OA
BRANCH  22  24
ATOM     23  C   LIG    1       22.292 -18.953   4.558  0.00  0.00    +0.136 C 
ATOM     24  C   LIG    1       22.317 -20.434   4.364  0.00  0.00    +0.304 C 
ATOM     25  O   LIG    1       21.509 -21.207   4.860  0.00  0.00    -0.251 OA
ENDBRANCH  22  24
ENDBRANCH  21  22
ENDBRANCH   1  21
TORSDOF 8
ENDMDL
MODEL 7
REMARK VINA RESULT:      -5.7      3.323      7.202
REMARK  Name = *****
REMARK                            x       y       z     vdW  Elec       q    Type
REMARK                         _______ _______ _______ _____ _____    ______ ____
ROOT
ATOM      1  C   LIG    1       27.226 -19.946   6.051  0.00  0.00    +0.006 C 
ATOM      2  C   LIG    1       27.623 -20.491   7.411  0.00  0.00    +0.107 C 
ATOM      3  S   LIG    1       27.138 -22.220   7.621  0.00  0.00    -0.131 S 
ATOM      4  C   LIG    1       25.395 -21.863   7.275  0.00  0.00    +0.169 C 
ATOM      5  N   LIG    1       25.252 -21.261   5.957  0.00  0.00    -0.249 N 
ATOM      6  C   LIG    1       24.600 -22.309   5.395  0.00  0.00    +0.244 C 
ATOM      7  O   LIG    1       24.289 -22.491   4.241  0.00  0.00    -0.273 OA
ATOM      8  CA  LIG    1       24.567 -23.074   6.744  0.00  0.00    +0.191 C 
ATOM      9  CA  LIG    1       26.091 -20.323   5.398  0.00  0.00    +0.125 C 
ENDROOT
BRANCH   8  10
ATOM     10  N   LIG    1       25.242 -24.406   6.742  0.00  0.00    -0.301 N 
ATOM     11  H   LIG    1       26.207 -24.459   7.060  0.00  0.00    +0.150 HD
ATOM     12  C   LIG    1       24.570 -25.563   6.413  0.00  0.00    +0.228 C 
ATOM     13  O   LIG    1       23.380 -25.560   6.109  0.00  0.00    -0.275 OA
BRANCH  12  14
ATOM     14  C   LIG    1       25.394 -26.826   6.493  0.00  0.00    +0.214 C 
BRANCH  14  15
ATOM     15  C   LIG    1       24.557 -28.003   6.297  0.00  0.00    +0.072 C 
ATOM     16  N   LIG    1       23.918 -28.974   6.184  0.00  0.00    -0.196 NA
ENDBRANCH  14  15
ENDBRANCH  12  14
ENDBRANCH   8  10
BRANCH   9  17
ATOM     17  C   LIG    1       25.695 -19.653   4.086  0.00  0.00    +0.351 C 
ATOM     18  O   LIG    1       25.187 -18.545   4.003  0.00  0.00    -0.244 OA
BRANCH  17  19
ATOM     19  OXT LIG    1       25.800 -20.420   2.983  0.00  0.00    -0.476 OA
ATOM     20  HXT LIG    1       26.680 -20.823   2.831  0.00  0.00    +0.295 HD
ENDBRANCH  17  19
ENDBRANCH   9  17
BRANCH   1  21
ATOM     21  C   LIG    1       28.260 -18.975   5.502  0.00  0.00    +0.266 C 
BRANCH  21  22
ATOM     22  O   LIG    1       29.580 -19.433   5.811  0.00  0.00    -0.460 OA
BRANCH  22  24
ATOM     23  C   LIG    1       31.255 -19.709   7.416  0.00  0.00    +0.136 C 
ATOM     24  C   LIG    1       30.209 -18.811   6.839  0.00  0.00    +0.304 C 
ATOM     25  O   LIG    1       30.016 -17.658   7.200  0.00  0.00    -0.251 OA
ENDBRANCH  22  24
ENDBRANCH  21  22
ENDBRANCH   1  21
TORSDOF 8
ENDMDL
MODEL 8
REMARK VINA RESULT:      -5.7      2.544      3.252
REMARK  Name = *****
REMARK                            x       y       z     vdW  Elec       q    Type
REMARK                         _______ _______ _______ _____ _____    ______ ____
ROOT
ATOM      1  C   LIG    1       23.371 -21.957   6.575  0.00  0.00    +0.006 C 
ATOM      2  C   LIG    1       23.561 -20.672   7.361  0.00  0.00    +0.107 C 
ATOM      3  S   LIG    1       25.306 -20.250   7.567  0.00  0.00    -0.131 S 
ATOM      4  C   LIG    1       25.687 -21.841   8.348  0.00  0.00    +0.169 C 
ATOM      5  N   LIG    1       25.343 -22.941   7.457  0.00  0.00    -0.249 N 
ATOM      6  C   LIG    1       26.618 -23.345   7.236  0.00  0.00    +0.244 C 
ATOM      7  O   LIG    1       27.037 -24.176   6.463  0.00  0.00    -0.273 OA
ATOM      8  CA  LIG    1       27.176 -22.294   8.231  0.00  0.00    +0.191 C 
ATOM      9  CA  LIG    1       24.226 -23.014   6.654  0.00  0.00    +0.125 C 
ENDROOT
BRANCH   8  10
ATOM     10  N   LIG    1       28.138 -21.310   7.651  0.00  0.00    -0.301 N 
ATOM     11  H   LIG    1       27.807 -20.683   6.921  0.00  0.00    +0.150 HD
ATOM     12  C   LIG    1       29.420 -21.170   8.138  0.00  0.00    +0.228 C 
ATOM     13  O   LIG    1       29.835 -21.843   9.078  0.00  0.00    -0.275 OA
BRANCH  12  14
ATOM     14  C   LIG    1       30.250 -20.108   7.459  0.00  0.00    +0.214 C 
BRANCH  14  15
ATOM     15  C   LIG    1       31.236 -19.556   8.378  0.00  0.00    +0.072 C 
ATOM     16  N   LIG    1       32.000 -19.143   9.161  0.00  0.00    -0.196 NA
ENDBRANCH  14  15
ENDBRANCH  12  14
ENDBRANCH   8  10
BRANCH   9  17
ATOM     17  C   LIG    1       23.916 -24.317   5.924  0.00  0.00    +0.351 C 
ATOM     18  O   LIG    1       23.294 -25.249   6.410  0.00  0.00    -0.244 OA
BRANCH  17  19
ATOM     19  OXT LIG    1       24.499 -24.466   4.719  0.00  0.00    -0.476 OA
ATOM     20  HXT LIG    1       23.885 -24.553   3.961  0.00  0.00    +0.295 HD
ENDBRANCH  17  19
ENDBRANCH   9  17
BRANCH   1  21
ATOM     21  C   LIG    1       22.147 -21.897   5.672  0.00  0.00    +0.266 C 
BRANCH  21  22
ATOM     22  O   LIG    1       22.196 -20.724   4.853  0.00  0.00    -0.460 OA
BRANCH  22  24
ATOM     23  C   LIG    1       23.638 -19.154   3.899  0.00  0.00    +0.136 C 
ATOM     24  C   LIG    1       23.279 -20.596   4.047  0.00  0.00    +0.304 C 
ATOM     25  O   LIG    1       23.926 -21.519   3.569  0.00  0.00    -0.251 OA
ENDBRANCH  22  24
ENDBRANCH  21  22
ENDBRANCH   1  21
TORSDOF 8
ENDMDL
MODEL 9
REMARK VINA RESULT:      -5.6      9.361     11.621
REMARK  Name = *****
REMARK                            x       y       z     vdW  Elec       q    Type
REMARK                         _______ _______ _______ _____ _____    ______ ____
ROOT
ATOM      1  C   LIG    1       25.584 -28.821  12.042  0.00  0.00    +0.006 C 
ATOM      2  C   LIG    1       26.841 -28.517  11.247  0.00  0.00    +0.107 C 
ATOM      3  S   LIG    1       26.520 -28.436   9.469  0.00  0.00    -0.131 S 
ATOM      4  C   LIG    1       25.820 -30.108   9.432  0.00  0.00    +0.169 C 
ATOM      5  N   LIG    1       24.681 -30.203  10.335  0.00  0.00    -0.249 N 
ATOM      6  C   LIG    1       23.747 -30.361   9.366  0.00  0.00    +0.244 C 
ATOM      7  O   LIG    1       22.541 -30.383   9.458  0.00  0.00    -0.273 OA
ATOM      8  CA  LIG    1       24.831 -30.383   8.257  0.00  0.00    +0.191 C 
ATOM      9  CA  LIG    1       24.589 -29.632  11.586  0.00  0.00    +0.125 C 
ENDROOT
BRANCH   8  10
ATOM     10  N   LIG    1       24.705 -29.318   7.216  0.00  0.00    -0.301 N 
ATOM     11  H   LIG    1       24.418 -28.388   7.511  0.00  0.00    +0.150 HD
ATOM     12  C   LIG    1       25.051 -29.540   5.901  0.00  0.00    +0.228 C 
ATOM     13  O   LIG    1       25.486 -30.622   5.517  0.00  0.00    -0.275 OA
BRANCH  12  14
ATOM     14  C   LIG    1       24.892 -28.348   4.988  0.00  0.00    +0.214 C 
BRANCH  14  15
ATOM     15  C   LIG    1       24.425 -27.186   5.731  0.00  0.00    +0.072 C 
ATOM     16  N   LIG    1       24.046 -26.223   6.275  0.00  0.00    -0.196 NA
ENDBRANCH  14  15
ENDBRANCH  12  14
ENDBRANCH   8  10
BRANCH   9  17
ATOM     17  C   LIG    1       23.406 -29.985  12.481  0.00  0.00    +0.351 C 
ATOM     18  O   LIG    1       23.361 -30.963  13.212  0.00  0.00    -0.244 OA
BRANCH  17  19
ATOM     19  OXT LIG    1       22.307 -29.221  12.327  0.00  0.00    -0.476 OA
ATOM     20  HXT LIG    1       21.474 -29.709  12.158  0.00  0.00    +0.295 HD
ENDBRANCH  17  19
ENDBRANCH   9  17
BRANCH   1  21
ATOM     21  C   LIG    1       25.559 -28.083  13.373  0.00  0.00    +0.266 C 
BRANCH  21  22
ATOM     22  O   LIG    1       25.194 -26.714  13.170  0.00  0.00    -0.460 OA
BRANCH  22  24
ATOM     23  C   LIG    1       24.239 -25.544  14.952  0.00  0.00    +0.136 C 
ATOM     24  C   LIG    1       24.008 -26.321  13.697  0.00  0.00    +0.304 C 
ATOM     25  O   LIG    1       22.908 -26.501  13.192  0.00  0.00    -0.251 OA
ENDBRANCH  22  24
ENDBRANCH  21  22
ENDBRANCH   1  21
TORSDOF 8
ENDMDL
