MODEL 1
REMARK VINA RESULT:       1.0      0.000      0.000
REMARK  Name = *****
REMARK                            x       y       z     vdW  Elec       q    Type
REMARK                         _______ _______ _______ _____ _____    ______ ____
ROOT
ATOM      1  N   LIG    1       27.133 -16.783   4.122  0.00  0.00    -0.268 N 
ATOM      2  C   LIG    1       26.453 -16.886   2.893  0.00  0.00    +0.241 C 
ATOM      3  O   LIG    1       26.089 -15.905   2.251  0.00  0.00    -0.273 OA
ATOM      4  C   LIG    1       26.236 -18.292   2.328  0.00  0.00    +0.238 C 
ATOM      5  N   LIG    1       25.229 -18.983   3.137  0.00  0.00    -0.273 NA
ATOM      6  C   LIG    1       25.601 -19.351   4.319  0.00  0.00    +0.078 C 
ATOM      7  C   LIG    1       26.989 -19.179   4.826  0.00  0.00    +0.023 A 
ATOM      8  C   LIG    1       27.593 -20.319   5.382  0.00  0.00    +0.032 A 
ATOM      9  C   LIG    1       28.770 -20.188   6.101  0.00  0.00    +0.042 A 
ATOM     10 CL   LIG    1       29.475 -21.569   6.842  0.00  0.00    -0.084 Cl
ATOM     11  C   LIG    1       29.358 -18.938   6.249  0.00  0.00    +0.022 A 
ATOM     12  C   LIG    1       28.798 -17.818   5.615  0.00  0.00    +0.025 A 
ATOM     13  C   LIG    1       27.621 -17.919   4.853  0.00  0.00    +0.046 A 
ENDROOT
BRANCH   6  14
ATOM     14  C   LIG    1       24.584 -19.995   5.223  0.00  0.00    +0.036 A 
ATOM     15  C   LIG    1       23.217 -19.709   5.112  0.00  0.00    +0.133 A 
ATOM     16  F   LIG    1       22.753 -18.887   4.160  0.00  0.00    -0.205 F 
ATOM     17  C   LIG    1       22.287 -20.279   5.981  0.00  0.00    +0.039 A 
ATOM     18  C   LIG    1       22.711 -21.174   6.959  0.00  0.00    +0.003 A 
ATOM     19  C   LIG    1       24.065 -21.497   7.062  0.00  0.00    +0.001 A 
ATOM     20  C   LIG    1       25.000 -20.911   6.199  0.00  0.00    +0.013 A 
ENDBRANCH   6  14
BRANCH   1  21
ATOM     21  C   LIG    1       27.379 -15.416   4.634  0.00  0.00    +0.129 C 
BRANCH  21  22
ATOM     22  C   LIG    1       26.119 -14.516   4.541  0.00  0.00    +0.104 C 
BRANCH  22  23
ATOM     23  N   LIG    1       26.248 -13.211   3.841  0.00  0.00    -0.301 NA
BRANCH  23  25
ATOM     24  C   LIG    1       28.767 -13.040   3.730  0.00  0.00    +0.020 C 
ATOM     25  C   LIG    1       27.435 -13.114   2.979  0.00  0.00    +0.081 C 
ENDBRANCH  23  25
BRANCH  23  26
ATOM     26  C   LIG    1       24.991 -12.910   3.123  0.00  0.00    +0.081 C 
ATOM     27  C   LIG    1       23.764 -12.626   3.987  0.00  0.00    +0.020 C 
ENDBRANCH  23  26
ENDBRANCH  22  23
ENDBRANCH  21  22
ENDBRANCH   1  21
TORSDOF 6
ENDMDL
MODEL 2
REMARK VINA RESULT:       1.8      2.807      5.883
REMARK  Name = *****
REMARK                            x       y       z     vdW  Elec       q    Type
REMARK                         _______ _______ _______ _____ _____    ______ ____
ROOT
ATOM      1  N   LIG    1       23.676 -18.062   3.693  0.00  0.00    -0.268 N 
ATOM      2  C   LIG    1       23.790 -19.257   2.959  0.00  0.00    +0.241 C 
ATOM      3  O   LIG    1       22.866 -20.057   2.846  0.00  0.00    -0.273 OA
ATOM      4  C   LIG    1       25.110 -19.508   2.227  0.00  0.00    +0.238 C 
ATOM      5  N   LIG    1       26.152 -19.812   3.211  0.00  0.00    -0.273 NA
ATOM      6  C   LIG    1       26.565 -18.821   3.931  0.00  0.00    +0.078 C 
ATOM      7  C   LIG    1       26.094 -17.424   3.737  0.00  0.00    +0.023 A 
ATOM      8  C   LIG    1       27.092 -16.442   3.623  0.00  0.00    +0.032 A 
ATOM      9  C   LIG    1       26.748 -15.102   3.699  0.00  0.00    +0.042 A 
ATOM     10 CL   LIG    1       27.974 -13.901   3.629  0.00  0.00    -0.084 Cl
ATOM     11  C   LIG    1       25.418 -14.737   3.862  0.00  0.00    +0.022 A 
ATOM     12  C   LIG    1       24.416 -15.718   3.886  0.00  0.00    +0.025 A 
ATOM     13  C   LIG    1       24.726 -17.085   3.782  0.00  0.00    +0.046 A 
ENDROOT
BRANCH   6  14
ATOM     14  C   LIG    1       27.578 -19.093   5.011  0.00  0.00    +0.036 A 
ATOM     15  C   LIG    1       27.591 -20.301   5.720  0.00  0.00    +0.133 A 
ATOM     16  F   LIG    1       26.731 -21.287   5.429  0.00  0.00    -0.205 F 
ATOM     17  C   LIG    1       28.507 -20.526   6.746  0.00  0.00    +0.039 A 
ATOM     18  C   LIG    1       29.450 -19.551   7.059  0.00  0.00    +0.003 A 
ATOM     19  C   LIG    1       29.475 -18.356   6.340  0.00  0.00    +0.001 A 
ATOM     20  C   LIG    1       28.543 -18.124   5.320  0.00  0.00    +0.013 A 
ENDBRANCH   6  14
BRANCH   1  21
ATOM     21  C   LIG    1       22.377 -17.809   4.356  0.00  0.00    +0.129 C 
BRANCH  21  22
ATOM     22  C   LIG    1       21.801 -19.082   5.030  0.00  0.00    +0.104 C 
BRANCH  22  23
ATOM     23  N   LIG    1       22.761 -20.121   5.487  0.00  0.00    -0.301 NA
BRANCH  23  25
ATOM     24  C   LIG    1       24.716 -20.419   7.062  0.00  0.00    +0.020 C 
ATOM     25  C   LIG    1       23.302 -19.878   6.833  0.00  0.00    +0.081 C 
ENDBRANCH  23  25
BRANCH  23  26
ATOM     26  C   LIG    1       22.145 -21.457   5.349  0.00  0.00    +0.081 C 
ATOM     27  C   LIG    1       20.871 -21.537   4.510  0.00  0.00    +0.020 C 
ENDBRANCH  23  26
ENDBRANCH  22  23
ENDBRANCH  21  22
ENDBRANCH   1  21
TORSDOF 6
ENDMDL
MODEL 3
REMARK VINA RESULT:       3.0      3.098      6.477
REMARK  Name = *****
REMARK                            x       y       z     vdW  Elec       q    Type
REMARK                         _______ _______ _______ _____ _____    ______ ____
ROOT
ATOM      1  N   LIG    1       25.195 -20.313   4.590  0.00  0.00    -0.268 N 
ATOM      2  C   LIG    1       26.208 -20.192   3.620  0.00  0.00    +0.241 C 
ATOM      3  O   LIG    1       27.312 -20.713   3.744  0.00  0.00    -0.273 OA
ATOM      4  C   LIG    1       25.864 -19.430   2.337  0.00  0.00    +0.238 C 
ATOM      5  N   LIG    1       25.752 -18.002   2.644  0.00  0.00    -0.273 NA
ATOM      6  C   LIG    1       24.708 -17.643   3.317  0.00  0.00    +0.078 C 
ATOM      7  C   LIG    1       23.621 -18.585   3.696  0.00  0.00    +0.023 A 
ATOM      8  C   LIG    1       22.312 -18.181   3.386  0.00  0.00    +0.032 A 
ATOM      9  C   LIG    1       21.237 -18.867   3.927  0.00  0.00    +0.042 A 
ATOM     10 CL   LIG    1       19.636 -18.333   3.605  0.00  0.00    -0.084 Cl
ATOM     11  C   LIG    1       21.457 -19.963   4.751  0.00  0.00    +0.022 A 
ATOM     12  C   LIG    1       22.765 -20.416   4.985  0.00  0.00    +0.025 A 
ATOM     13  C   LIG    1       23.878 -19.763   4.429  0.00  0.00    +0.046 A 
ENDROOT
BRANCH   6  14
ATOM     14  C   LIG    1       24.581 -16.200   3.729  0.00  0.00    +0.036 A 
ATOM     15  C   LIG    1       25.681 -15.333   3.718  0.00  0.00    +0.133 A 
ATOM     16  F   LIG    1       26.885 -15.742   3.290  0.00  0.00    -0.205 F 
ATOM     17  C   LIG    1       25.562 -14.010   4.139  0.00  0.00    +0.039 A 
ATOM     18  C   LIG    1       24.325 -13.523   4.551  0.00  0.00    +0.003 A 
ATOM     19  C   LIG    1       23.210 -14.363   4.535  0.00  0.00    +0.001 A 
ATOM     20  C   LIG    1       23.335 -15.697   4.127  0.00  0.00    +0.013 A 
ENDBRANCH   6  14
BRANCH   1  21
ATOM     21  C   LIG    1       25.525 -21.092   5.803  0.00  0.00    +0.129 C 
BRANCH  21  22
ATOM     22  C   LIG    1       26.111 -20.205   6.933  0.00  0.00    +0.104 C 
BRANCH  22  23
ATOM     23  N   LIG    1       27.590 -20.121   7.054  0.00  0.00    -0.301 NA
BRANCH  23  25
ATOM     24  C   LIG    1       29.401 -21.548   6.016  0.00  0.00    +0.020 C 
ATOM     25  C   LIG    1       28.263 -21.428   7.033  0.00  0.00    +0.081 C 
ENDBRANCH  23  25
BRANCH  23  26
ATOM     26  C   LIG    1       28.117 -19.189   6.035  0.00  0.00    +0.081 C 
ATOM     27  C   LIG    1       29.421 -18.472   6.376  0.00  0.00    +0.020 C 
ENDBRANCH  23  26
ENDBRANCH  22  23
ENDBRANCH  21  22
ENDBRANCH   1  21
TORSDOF 6
ENDMDL
