MODEL 1
REMARK VINA RESULT:      -9.5      0.000      0.000
REMARK  Name = *****
REMARK                            x       y       z     vdW  Elec       q    Type
REMARK                         _______ _______ _______ _____ _____    ______ ____
ROOT
ATOM      1  C   LIG    1       29.439 -20.658   7.587  0.00  0.00    -0.032 C 
ATOM      2  C   LIG    1       29.149 -19.967   6.396  0.00  0.00    +0.030 C 
ATOM      3  C   LIG    1       27.838 -20.028   5.897  0.00  0.00    +0.048 C 
ATOM      4  N   LIG    1       27.297 -19.492   4.749  0.00  0.00    -0.354 NA
ATOM      5  H   LIG    1       27.813 -18.949   4.072  0.00  0.00    +0.166 HD
ATOM      6  C   LIG    1       25.965 -19.821   4.628  0.00  0.00    +0.048 C 
ATOM      7  C   LIG    1       25.628 -20.573   5.752  0.00  0.00    +0.009 C 
ATOM      8  C   LIG    1       24.301 -21.037   5.882  0.00  0.00    +0.030 C 
ATOM      9  C   LIG    1       23.372 -20.730   4.882  0.00  0.00    +0.042 C 
ATOM     10 CL   LIG    1       21.751 -21.292   5.033  0.00  0.00    -0.084 Cl
ATOM     11  C   LIG    1       23.738 -19.981   3.766  0.00  0.00    +0.022 C 
ATOM     12  C   LIG    1       25.046 -19.510   3.617  0.00  0.00    +0.027 C 
ATOM     13  C   LIG    1       26.810 -20.707   6.549  0.00  0.00    +0.007 C 
ATOM     14  C   LIG    1       27.102 -21.352   7.765  0.00  0.00    +0.011 C 
ATOM     15  C   LIG    1       28.409 -21.327   8.266  0.00  0.00    +0.005 C 
ENDROOT
BRANCH   1  17
ATOM     16  C   LIG    1       30.999 -21.835   9.181  0.00  0.00    +0.024 C 
ATOM     17  C   LIG    1       30.862 -20.726   8.136  0.00  0.00    +0.124 C 
BRANCH  17  18
ATOM     18  C   LIG    1       31.387 -19.401   8.693  0.00  0.00    +0.312 C 
ATOM     19  O   LIG    1       32.019 -18.584   8.031  0.00  0.00    -0.250 OA
BRANCH  18  20
ATOM     20  O   LIG    1       31.038 -19.134   9.972  0.00  0.00    -0.480 OA
ATOM     21  H   LIG    1       30.093 -18.912  10.094  0.00  0.00    +0.295 HD
ENDBRANCH  18  20
ENDBRANCH  17  18
ENDBRANCH   1  17
TORSDOF 3
ENDMDL
MODEL 2
REMARK VINA RESULT:      -9.2      1.352      2.212
REMARK  Name = *****
REMARK                            x       y       z     vdW  Elec       q    Type
REMARK                         _______ _______ _______ _____ _____    ______ ____
ROOT
ATOM      1  C   LIG    1       29.602 -20.574   7.538  0.00  0.00    -0.032 C 
ATOM      2  C   LIG    1       28.663 -21.444   8.124  0.00  0.00    +0.030 C 
ATOM      3  C   LIG    1       27.343 -21.412   7.648  0.00  0.00    +0.048 C 
ATOM      4  N   LIG    1       26.231 -22.111   8.062  0.00  0.00    -0.354 NA
ATOM      5  H   LIG    1       26.225 -22.782   8.816  0.00  0.00    +0.166 HD
ATOM      6  C   LIG    1       25.119 -21.751   7.334  0.00  0.00    +0.048 C 
ATOM      7  C   LIG    1       25.535 -20.805   6.397  0.00  0.00    +0.009 C 
ATOM      8  C   LIG    1       24.578 -20.269   5.507  0.00  0.00    +0.030 C 
ATOM      9  C   LIG    1       23.251 -20.702   5.595  0.00  0.00    +0.042 C 
ATOM     10 CL   LIG    1       22.079 -20.052   4.512  0.00  0.00    -0.084 Cl
ATOM     11  C   LIG    1       22.862 -21.643   6.543  0.00  0.00    +0.022 C 
ATOM     12  C   LIG    1       23.792 -22.189   7.434  0.00  0.00    +0.027 C 
ATOM     13  C   LIG    1       26.936 -20.589   6.599  0.00  0.00    +0.007 C 
ATOM     14  C   LIG    1       27.896 -19.760   5.988  0.00  0.00    +0.011 C 
ATOM     15  C   LIG    1       29.212 -19.756   6.467  0.00  0.00    +0.005 C 
ENDROOT
BRANCH   1  17
ATOM     16  C   LIG    1       31.342 -21.623   9.031  0.00  0.00    +0.024 C 
ATOM     17  C   LIG    1       31.029 -20.475   8.070  0.00  0.00    +0.124 C 
BRANCH  17  18
ATOM     18  C   LIG    1       31.370 -19.130   8.716  0.00  0.00    +0.312 C 
ATOM     19  O   LIG    1       31.877 -18.190   8.112  0.00  0.00    -0.250 OA
BRANCH  18  20
ATOM     20  O   LIG    1       30.997 -19.001  10.010  0.00  0.00    -0.480 OA
ATOM     21  H   LIG    1       30.246 -19.571  10.271  0.00  0.00    +0.295 HD
ENDBRANCH  18  20
ENDBRANCH  17  18
ENDBRANCH   1  17
TORSDOF 3
ENDMDL
MODEL 3
REMARK VINA RESULT:      -9.0      4.439      6.693
REMARK  Name = *****
REMARK                            x       y       z     vdW  Elec       q    Type
REMARK                         _______ _______ _______ _____ _____    ______ ____
ROOT
ATOM      1  C   LIG    1       24.522 -21.131   7.023  0.00  0.00    -0.032 C 
ATOM      2  C   LIG    1       25.408 -20.877   5.959  0.00  0.00    +0.030 C 
ATOM      3  C   LIG    1       26.704 -20.434   6.267  0.00  0.00    +0.048 C 
ATOM      4  N   LIG    1       27.742 -20.075   5.436  0.00  0.00    -0.354 NA
ATOM      5  H   LIG    1       27.698 -20.085   4.428  0.00  0.00    +0.166 HD
ATOM      6  C   LIG    1       28.840 -19.668   6.161  0.00  0.00    +0.048 C 
ATOM      7  C   LIG    1       28.507 -19.796   7.509  0.00  0.00    +0.009 C 
ATOM      8  C   LIG    1       29.471 -19.447   8.480  0.00  0.00    +0.030 C 
ATOM      9  C   LIG    1       30.723 -18.986   8.059  0.00  0.00    +0.042 C 
ATOM     10 CL   LIG    1       31.905 -18.558   9.237  0.00  0.00    -0.084 Cl
ATOM     11  C   LIG    1       31.027 -18.863   6.706  0.00  0.00    +0.022 C 
ATOM     12  C   LIG    1       30.088 -19.203   5.727  0.00  0.00    +0.027 C 
ATOM     13  C   LIG    1       27.159 -20.274   7.574  0.00  0.00    +0.007 C 
ATOM     14  C   LIG    1       26.280 -20.580   8.630  0.00  0.00    +0.011 C 
ATOM     15  C   LIG    1       24.973 -20.996   8.345  0.00  0.00    +0.005 C 
ENDROOT
BRANCH   1  17
ATOM     16  C   LIG    1       22.911 -23.030   6.626  0.00  0.00    +0.024 C 
ATOM     17  C   LIG    1       23.067 -21.515   6.768  0.00  0.00    +0.124 C 
BRANCH  17  18
ATOM     18  C   LIG    1       22.425 -20.798   5.578  0.00  0.00    +0.312 C 
ATOM     19  O   LIG    1       22.529 -19.594   5.368  0.00  0.00    -0.250 OA
BRANCH  18  20
ATOM     20  O   LIG    1       21.783 -21.602   4.699  0.00  0.00    -0.480 OA
ATOM     21  H   LIG    1       21.897 -21.345   3.762  0.00  0.00    +0.295 HD
ENDBRANCH  18  20
ENDBRANCH  17  18
ENDBRANCH   1  17
TORSDOF 3
ENDMDL
MODEL 4
REMARK VINA RESULT:      -8.7      2.696      3.124
REMARK  Name = *****
REMARK                            x       y       z     vdW  Elec       q    Type
REMARK                         _______ _______ _______ _____ _____    ______ ____
ROOT
ATOM      1  C   LIG    1       28.863 -19.952   8.005  0.00  0.00    -0.032 C 
ATOM      2  C   LIG    1       27.491 -19.717   8.212  0.00  0.00    +0.030 C 
ATOM      3  C   LIG    1       26.585 -20.732   7.866  0.00  0.00    +0.048 C 
ATOM      4  N   LIG    1       25.209 -20.754   7.920  0.00  0.00    -0.354 NA
ATOM      5  H   LIG    1       24.637 -19.985   8.240  0.00  0.00    +0.166 HD
ATOM      6  C   LIG    1       24.712 -21.950   7.453  0.00  0.00    +0.048 C 
ATOM      7  C   LIG    1       25.809 -22.739   7.110  0.00  0.00    +0.009 C 
ATOM      8  C   LIG    1       25.576 -24.036   6.602  0.00  0.00    +0.030 C 
ATOM      9  C   LIG    1       24.259 -24.484   6.460  0.00  0.00    +0.042 C 
ATOM     10 CL   LIG    1       23.967 -26.066   5.843  0.00  0.00    -0.084 Cl
ATOM     11  C   LIG    1       23.182 -23.673   6.806  0.00  0.00    +0.022 C 
ATOM     12  C   LIG    1       23.388 -22.386   7.311  0.00  0.00    +0.027 C 
ATOM     13  C   LIG    1       26.988 -21.968   7.366  0.00  0.00    +0.007 C 
ATOM     14  C   LIG    1       28.367 -22.209   7.210  0.00  0.00    +0.011 C 
ATOM     15  C   LIG    1       29.286 -21.200   7.523  0.00  0.00    +0.005 C 
ENDROOT
BRANCH   1  17
ATOM     16  C   LIG    1       30.621 -18.472   6.967  0.00  0.00    +0.024 C 
ATOM     17  C   LIG    1       29.900 -18.861   8.259  0.00  0.00    +0.124 C 
BRANCH  17  18
ATOM     18  C   LIG    1       30.913 -19.195   9.356  0.00  0.00    +0.312 C 
ATOM     19  O   LIG    1       32.007 -19.708   9.143  0.00  0.00    -0.250 OA
BRANCH  18  20
ATOM     20  O   LIG    1       30.560 -18.810  10.603  0.00  0.00    -0.480 OA
ATOM     21  H   LIG    1       30.009 -18.002  10.635  0.00  0.00    +0.295 HD
ENDBRANCH  18  20
ENDBRANCH  17  18
ENDBRANCH   1  17
TORSDOF 3
ENDMDL
MODEL 5
REMARK VINA RESULT:      -8.5      4.352      6.750
REMARK  Name = *****
REMARK                            x       y       z     vdW  Elec       q    Type
REMARK                         _______ _______ _______ _____ _____    ______ ____
ROOT
ATOM      1  C   LIG    1       25.141 -21.416   6.588  0.00  0.00    -0.032 C 
ATOM      2  C   LIG    1       26.288 -21.261   5.786  0.00  0.00    +0.030 C 
ATOM      3  C   LIG    1       27.419 -20.657   6.358  0.00  0.00    +0.048 C 
ATOM      4  N   LIG    1       28.639 -20.346   5.800  0.00  0.00    -0.354 NA
ATOM      5  H   LIG    1       28.892 -20.527   4.840  0.00  0.00    +0.166 HD
ATOM      6  C   LIG    1       29.460 -19.727   6.716  0.00  0.00    +0.048 C 
ATOM      7  C   LIG    1       28.753 -19.661   7.916  0.00  0.00    +0.009 C 
ATOM      8  C   LIG    1       29.378 -19.070   9.037  0.00  0.00    +0.030 C 
ATOM      9  C   LIG    1       30.678 -18.572   8.906  0.00  0.00    +0.042 C 
ATOM     10 CL   LIG    1       31.446 -17.850  10.269  0.00  0.00    -0.084 Cl
ATOM     11  C   LIG    1       31.359 -18.646   7.694  0.00  0.00    +0.022 C 
ATOM     12  C   LIG    1       30.761 -19.228   6.572  0.00  0.00    +0.027 C 
ATOM     13  C   LIG    1       27.465 -20.243   7.688  0.00  0.00    +0.007 C 
ATOM     14  C   LIG    1       26.329 -20.449   8.492  0.00  0.00    +0.011 C 
ATOM     15  C   LIG    1       25.180 -21.025   7.934  0.00  0.00    +0.005 C 
ENDROOT
BRANCH   1  17
ATOM     16  C   LIG    1       22.689 -20.977   6.193  0.00  0.00    +0.024 C 
ATOM     17  C   LIG    1       23.840 -21.968   6.010  0.00  0.00    +0.124 C 
BRANCH  17  18
ATOM     18  C   LIG    1       23.447 -23.347   6.544  0.00  0.00    +0.312 C 
ATOM     19  O   LIG    1       24.253 -24.179   6.948  0.00  0.00    -0.250 OA
BRANCH  18  20
ATOM     20  O   LIG    1       22.117 -23.577   6.624  0.00  0.00    -0.480 OA
ATOM     21  H   LIG    1       21.608 -22.857   7.048  0.00  0.00    +0.295 HD
ENDBRANCH  18  20
ENDBRANCH  17  18
ENDBRANCH   1  17
TORSDOF 3
ENDMDL
MODEL 6
REMARK VINA RESULT:      -8.1      4.498      6.634
REMARK  Name = *****
REMARK                            x       y       z     vdW  Elec       q    Type
REMARK                         _______ _______ _______ _____ _____    ______ ____
ROOT
ATOM      1  C   LIG    1       25.757 -22.238   7.465  0.00  0.00    -0.032 C 
ATOM      2  C   LIG    1       27.021 -22.347   6.855  0.00  0.00    +0.030 C 
ATOM      3  C   LIG    1       28.000 -21.396   7.185  0.00  0.00    +0.048 C 
ATOM      4  N   LIG    1       29.285 -21.241   6.713  0.00  0.00    -0.354 NA
ATOM      5  H   LIG    1       29.715 -21.836   6.020  0.00  0.00    +0.166 HD
ATOM      6  C   LIG    1       29.896 -20.149   7.288  0.00  0.00    +0.048 C 
ATOM      7  C   LIG    1       28.982 -19.595   8.183  0.00  0.00    +0.009 C 
ATOM      8  C   LIG    1       29.364 -18.453   8.920  0.00  0.00    +0.030 C 
ATOM      9  C   LIG    1       30.642 -17.917   8.727  0.00  0.00    +0.042 C 
ATOM     10 CL   LIG    1       31.116 -16.524   9.623  0.00  0.00    -0.084 Cl
ATOM     11  C   LIG    1       31.533 -18.487   7.823  0.00  0.00    +0.022 C 
ATOM     12  C   LIG    1       31.177 -19.619   7.083  0.00  0.00    +0.027 C 
ATOM     13  C   LIG    1       27.786 -20.379   8.113  0.00  0.00    +0.007 C 
ATOM     14  C   LIG    1       26.534 -20.311   8.753  0.00  0.00    +0.011 C 
ATOM     15  C   LIG    1       25.534 -21.233   8.418  0.00  0.00    +0.005 C 
ENDROOT
BRANCH   1  17
ATOM     16  C   LIG    1       25.130 -24.432   6.391  0.00  0.00    +0.024 C 
ATOM     17  C   LIG    1       24.610 -23.169   7.081  0.00  0.00    +0.124 C 
BRANCH  17  18
ATOM     18  C   LIG    1       23.518 -22.510   6.235  0.00  0.00    +0.312 C 
ATOM     19  O   LIG    1       23.711 -21.546   5.501  0.00  0.00    -0.250 OA
BRANCH  18  20
ATOM     20  O   LIG    1       22.309 -23.115   6.281  0.00  0.00    -0.480 OA
ATOM     21  H   LIG    1       22.281 -23.993   5.850  0.00  0.00    +0.295 HD
ENDBRANCH  18  20
ENDBRANCH  17  18
ENDBRANCH   1  17
TORSDOF 3
ENDMDL
MODEL 7
REMARK VINA RESULT:      -8.1      4.258      6.832
REMARK  Name = *****
REMARK                            x       y       z     vdW  Elec       q    Type
REMARK                         _______ _______ _______ _____ _____    ______ ____
ROOT
ATOM      1  C   LIG    1       25.113 -20.561   4.884  0.00  0.00    -0.032 C 
ATOM      2  C   LIG    1       26.220 -19.732   4.624  0.00  0.00    +0.030 C 
ATOM      3  C   LIG    1       27.362 -19.881   5.426  0.00  0.00    +0.048 C 
ATOM      4  N   LIG    1       28.550 -19.185   5.420  0.00  0.00    -0.354 NA
ATOM      5  H   LIG    1       28.764 -18.423   4.793  0.00  0.00    +0.166 HD
ATOM      6  C   LIG    1       29.399 -19.642   6.404  0.00  0.00    +0.048 C 
ATOM      7  C   LIG    1       28.744 -20.690   7.050  0.00  0.00    +0.009 C 
ATOM      8  C   LIG    1       29.405 -21.348   8.110  0.00  0.00    +0.030 C 
ATOM      9  C   LIG    1       30.688 -20.929   8.476  0.00  0.00    +0.042 C 
ATOM     10 CL   LIG    1       31.501 -21.728   9.768  0.00  0.00    -0.084 Cl
ATOM     11  C   LIG    1       31.317 -19.876   7.817  0.00  0.00    +0.022 C 
ATOM     12  C   LIG    1       30.682 -19.210   6.764  0.00  0.00    +0.027 C 
ATOM     13  C   LIG    1       27.459 -20.836   6.436  0.00  0.00    +0.007 C 
ATOM     14  C   LIG    1       26.364 -21.693   6.653  0.00  0.00    +0.011 C 
ATOM     15  C   LIG    1       25.204 -21.543   5.883  0.00  0.00    +0.005 C 
ENDROOT
BRANCH   1  17
ATOM     16  C   LIG    1       23.847 -19.168   3.206  0.00  0.00    +0.024 C 
ATOM     17  C   LIG    1       23.799 -20.389   4.126  0.00  0.00    +0.124 C 
BRANCH  17  18
ATOM     18  C   LIG    1       22.557 -20.337   5.018  0.00  0.00    +0.312 C 
ATOM     19  O   LIG    1       22.265 -19.379   5.727  0.00  0.00    -0.250 OA
BRANCH  18  20
ATOM     20  O   LIG    1       21.731 -21.403   4.921  0.00  0.00    -0.480 OA
ATOM     21  H   LIG    1       22.185 -22.269   4.966  0.00  0.00    +0.295 HD
ENDBRANCH  18  20
ENDBRANCH  17  18
ENDBRANCH   1  17
TORSDOF 3
ENDMDL
MODEL 8
REMARK VINA RESULT:      -7.9      4.401      6.688
REMARK  Name = *****
REMARK                            x       y       z     vdW  Elec       q    Type
REMARK                         _______ _______ _______ _____ _____    ______ ____
ROOT
ATOM      1  C   LIG    1       25.327 -21.069   6.659  0.00  0.00    -0.032 C 
ATOM      2  C   LIG    1       26.477 -20.925   5.862  0.00  0.00    +0.030 C 
ATOM      3  C   LIG    1       27.630 -20.386   6.454  0.00  0.00    +0.048 C 
ATOM      4  N   LIG    1       28.861 -20.099   5.905  0.00  0.00    -0.354 NA
ATOM      5  H   LIG    1       29.105 -20.251   4.937  0.00  0.00    +0.166 HD
ATOM      6  C   LIG    1       29.705 -19.548   6.843  0.00  0.00    +0.048 C 
ATOM      7  C   LIG    1       29.003 -19.503   8.046  0.00  0.00    +0.009 C 
ATOM      8  C   LIG    1       29.650 -18.981   9.187  0.00  0.00    +0.030 C 
ATOM      9  C   LIG    1       30.968 -18.526   9.073  0.00  0.00    +0.042 C 
ATOM     10 CL   LIG    1       31.765 -17.888  10.461  0.00  0.00    -0.084 Cl
ATOM     11  C   LIG    1       31.644 -18.578   7.857  0.00  0.00    +0.022 C 
ATOM     12  C   LIG    1       31.024 -19.092   6.714  0.00  0.00    +0.027 C 
ATOM     13  C   LIG    1       27.694 -20.027   7.798  0.00  0.00    +0.007 C 
ATOM     14  C   LIG    1       26.552 -20.223   8.597  0.00  0.00    +0.011 C 
ATOM     15  C   LIG    1       25.382 -20.733   8.020  0.00  0.00    +0.005 C 
ENDROOT
BRANCH   1  17
ATOM     16  C   LIG    1       23.366 -22.632   6.935  0.00  0.00    +0.024 C 
ATOM     17  C   LIG    1       24.005 -21.549   6.064  0.00  0.00    +0.124 C 
BRANCH  17  18
ATOM     18  C   LIG    1       24.103 -22.022   4.612  0.00  0.00    +0.312 C 
ATOM     19  O   LIG    1       23.836 -21.317   3.643  0.00  0.00    -0.250 OA
BRANCH  18  20
ATOM     20  O   LIG    1       24.590 -23.273   4.444  0.00  0.00    -0.480 OA
ATOM     21  H   LIG    1       23.927 -23.983   4.559  0.00  0.00    +0.295 HD
ENDBRANCH  18  20
ENDBRANCH  17  18
ENDBRANCH   1  17
TORSDOF 3
ENDMDL
MODEL 9
REMARK VINA RESULT:      -7.8      7.098      8.270
REMARK  Name = *****
REMARK                            x       y       z     vdW  Elec       q    Type
REMARK                         _______ _______ _______ _____ _____    ______ ____
ROOT
ATOM      1  C   LIG    1       25.324 -28.138   6.285  0.00  0.00    -0.032 C 
ATOM      2  C   LIG    1       24.166 -27.361   6.093  0.00  0.00    +0.030 C 
ATOM      3  C   LIG    1       24.244 -25.982   6.346  0.00  0.00    +0.048 C 
ATOM      4  N   LIG    1       23.271 -25.009   6.284  0.00  0.00    -0.354 NA
ATOM      5  H   LIG    1       22.309 -25.178   6.031  0.00  0.00    +0.166 HD
ATOM      6  C   LIG    1       23.775 -23.779   6.644  0.00  0.00    +0.048 C 
ATOM      7  C   LIG    1       25.129 -23.960   6.922  0.00  0.00    +0.009 C 
ATOM      8  C   LIG    1       25.895 -22.840   7.314  0.00  0.00    +0.030 C 
ATOM      9  C   LIG    1       25.272 -21.592   7.411  0.00  0.00    +0.042 C 
ATOM     10 CL   LIG    1       26.199 -20.220   7.888  0.00  0.00    -0.084 Cl
ATOM     11  C   LIG    1       23.916 -21.440   7.132  0.00  0.00    +0.022 C 
ATOM     12  C   LIG    1       23.139 -22.535   6.742  0.00  0.00    +0.027 C 
ATOM     13  C   LIG    1       25.422 -25.350   6.739  0.00  0.00    +0.007 C 
ATOM     14  C   LIG    1       26.586 -26.131   6.878  0.00  0.00    +0.011 C 
ATOM     15  C   LIG    1       26.523 -27.512   6.658  0.00  0.00    +0.005 C 
ENDROOT
BRANCH   1  17
ATOM     16  C   LIG    1       25.565 -30.072   4.685  0.00  0.00    +0.024 C 
ATOM     17  C   LIG    1       25.292 -29.657   6.131  0.00  0.00    +0.124 C 
BRANCH  17  18
ATOM     18  C   LIG    1       24.009 -30.316   6.643  0.00  0.00    +0.312 C 
ATOM     19  O   LIG    1       23.630 -30.260   7.808  0.00  0.00    -0.250 OA
BRANCH  18  20
ATOM     20  O   LIG    1       23.251 -30.914   5.696  0.00  0.00    -0.480 OA
ATOM     21  H   LIG    1       22.817 -30.294   5.076  0.00  0.00    +0.295 HD
ENDBRANCH  18  20
ENDBRANCH  17  18
ENDBRANCH   1  17
TORSDOF 3
ENDMDL
