MODEL 1
REMARK VINA RESULT:      -6.3      0.000      0.000
REMARK  Name = *****
REMARK                            x       y       z     vdW  Elec       q    Type
REMARK                         _______ _______ _______ _____ _____    ______ ____
ROOT
ATOM      1  C   LIG    1       26.924 -27.426  13.169  0.00  0.00    +0.250 C 
ATOM      2  N   LIG    1       26.603 -27.590  11.831  0.00  0.00    -0.298 N 
ATOM      3  H   LIG    1       25.929 -26.966  11.405  0.00  0.00    +0.150 HD
ATOM      4  O   LIG    1       27.827 -28.071  13.694  0.00  0.00    -0.270 OA
ENDROOT
BRANCH   2   5
ATOM      5  CA  LIG    1       27.329 -28.561  10.975  0.00  0.00    +0.190 C 
ATOM      6  C   LIG    1       27.036 -30.063  11.200  0.00  0.00    +0.165 C 
ATOM      7  S   LIG    1       25.430 -30.551  11.923  0.00  0.00    -0.127 S 
ATOM      8  C   LIG    1       24.635 -31.033  10.311  0.00  0.00    +0.042 C 
ATOM      9  CA  LIG    1       25.763 -31.049   9.246  0.00  0.00    +0.201 C 
ATOM     10  C   LIG    1       23.574 -29.972   9.964  0.00  0.00    +0.025 C 
ATOM     11  C   LIG    1       23.924 -32.371  10.558  0.00  0.00    +0.025 C 
ATOM     12  N   LIG    1       26.850 -30.196   9.742  0.00  0.00    -0.271 N 
ATOM     13  C   LIG    1       26.758 -28.837   9.572  0.00  0.00    +0.240 C 
ATOM     14  O   LIG    1       26.220 -28.176   8.697  0.00  0.00    -0.273 OA
BRANCH   9  15
ATOM     15  C   LIG    1       26.256 -32.458   8.896  0.00  0.00    +0.327 C 
ATOM     16  O   LIG    1       27.120 -33.045   9.534  0.00  0.00    -0.249 OA
BRANCH  15  17
ATOM     17  OXT LIG    1       25.752 -32.980   7.755  0.00  0.00    -0.479 OA
ATOM     18  HXT LIG    1       25.836 -32.380   6.994  0.00  0.00    +0.295 HD
ENDBRANCH  15  17
ENDBRANCH   9  15
ENDBRANCH   2   5
BRANCH   1  21
ATOM     19  C   LIG    1       27.896 -24.596  14.467  0.00  0.00    +0.090 C 
ATOM     20  C   LIG    1       26.585 -25.280  14.414  0.00  0.00    +0.147 A 
ATOM     21  C   LIG    1       26.103 -26.471  13.887  0.00  0.00    +0.106 A 
ATOM     22  C   LIG    1       24.679 -26.418  14.147  0.00  0.00    +0.127 A 
ATOM     23  N   LIG    1       24.409 -25.284  14.828  0.00  0.00    -0.077 NA
ATOM     24  O   LIG    1       25.569 -24.590  14.973  0.00  0.00    -0.359 OA
BRANCH  22  25
ATOM     25  C   LIG    1       23.514 -27.289  13.837  0.00  0.00    +0.023 A 
ATOM     26  C   LIG    1       23.322 -28.620  14.238  0.00  0.00    +0.050 A 
ATOM     27 CL   LIG    1       24.424 -29.504  15.231  0.00  0.00    -0.083 Cl
ATOM     28  C   LIG    1       22.117 -29.295  13.939  0.00  0.00    +0.021 A 
ATOM     29  C   LIG    1       21.063 -28.649  13.296  0.00  0.00    +0.002 A 
ATOM     30  C   LIG    1       21.216 -27.328  12.911  0.00  0.00    +0.001 A 
ATOM     31  C   LIG    1       22.427 -26.672  13.161  0.00  0.00    +0.012 A 
ENDBRANCH  22  25
ENDBRANCH   1  21
TORSDOF 5
ENDMDL
MODEL 2
REMARK VINA RESULT:      -6.3      2.232      2.909
REMARK  Name = *****
REMARK                            x       y       z     vdW  Elec       q    Type
REMARK                         _______ _______ _______ _____ _____    ______ ____
ROOT
ATOM      1  C   LIG    1       27.209 -29.263  11.466  0.00  0.00    +0.250 C 
ATOM      2  N   LIG    1       26.691 -30.450  10.971  0.00  0.00    -0.298 N 
ATOM      3  H   LIG    1       26.131 -31.035  11.579  0.00  0.00    +0.150 HD
ATOM      4  O   LIG    1       27.783 -28.461  10.735  0.00  0.00    -0.270 OA
ENDROOT
BRANCH   2   5
ATOM      5  CA  LIG    1       26.816 -30.810   9.538  0.00  0.00    +0.190 C 
ATOM      6  C   LIG    1       26.125 -32.113   9.071  0.00  0.00    +0.165 C 
ATOM      7  S   LIG    1       24.696 -32.743  10.018  0.00  0.00    -0.127 S 
ATOM      8  C   LIG    1       23.396 -32.092   8.855  0.00  0.00    +0.042 C 
ATOM      9  CA  LIG    1       24.140 -31.611   7.581  0.00  0.00    +0.201 C 
ATOM     10  C   LIG    1       22.681 -30.916   9.545  0.00  0.00    +0.025 C 
ATOM     11  C   LIG    1       22.383 -33.227   8.654  0.00  0.00    +0.025 C 
ATOM     12  N   LIG    1       25.533 -31.343   7.959  0.00  0.00    -0.271 N 
ATOM     13  C   LIG    1       25.843 -30.143   8.550  0.00  0.00    +0.240 C 
ATOM     14  O   LIG    1       25.337 -29.038   8.425  0.00  0.00    -0.273 OA
BRANCH   9  15
ATOM     15  C   LIG    1       24.044 -32.592   6.407  0.00  0.00    +0.327 C 
ATOM     16  O   LIG    1       24.770 -33.571   6.289  0.00  0.00    -0.249 OA
BRANCH  15  17
ATOM     17  OXT LIG    1       23.171 -32.247   5.435  0.00  0.00    -0.479 OA
ATOM     18  HXT LIG    1       22.461 -31.663   5.753  0.00  0.00    +0.295 HD
ENDBRANCH  15  17
ENDBRANCH   9  15
ENDBRANCH   2   5
BRANCH   1  21
ATOM     19  C   LIG    1       29.487 -29.654  13.769  0.00  0.00    +0.090 C 
ATOM     20  C   LIG    1       28.064 -29.251  13.820  0.00  0.00    +0.147 A 
ATOM     21  C   LIG    1       27.046 -29.068  12.893  0.00  0.00    +0.106 A 
ATOM     22  C   LIG    1       25.938 -28.574  13.684  0.00  0.00    +0.127 A 
ATOM     23  N   LIG    1       26.315 -28.542  14.980  0.00  0.00    -0.077 NA
ATOM     24  O   LIG    1       27.613 -28.941  15.053  0.00  0.00    -0.359 OA
BRANCH  22  25
ATOM     25  C   LIG    1       24.555 -28.111  13.394  0.00  0.00    +0.023 A 
ATOM     26  C   LIG    1       23.455 -28.905  13.034  0.00  0.00    +0.050 A 
ATOM     27 CL   LIG    1       23.503 -30.626  12.896  0.00  0.00    -0.083 Cl
ATOM     28  C   LIG    1       22.173 -28.330  12.874  0.00  0.00    +0.021 A 
ATOM     29  C   LIG    1       21.947 -26.978  13.126  0.00  0.00    +0.002 A 
ATOM     30  C   LIG    1       23.010 -26.177  13.507  0.00  0.00    +0.001 A 
ATOM     31  C   LIG    1       24.290 -26.732  13.618  0.00  0.00    +0.012 A 
ENDBRANCH  22  25
ENDBRANCH   1  21
TORSDOF 5
ENDMDL
MODEL 3
REMARK VINA RESULT:      -6.1      2.569      3.332
REMARK  Name = *****
REMARK                            x       y       z     vdW  Elec       q    Type
REMARK                         _______ _______ _______ _____ _____    ______ ____
ROOT
ATOM      1  C   LIG    1       24.239 -29.123  12.844  0.00  0.00    +0.250 C 
ATOM      2  N   LIG    1       24.618 -29.359  11.532  0.00  0.00    -0.298 N 
ATOM      3  H   LIG    1       24.196 -28.814  10.790  0.00  0.00    +0.150 HD
ATOM      4  O   LIG    1       24.814 -29.665  13.784  0.00  0.00    -0.270 OA
ENDROOT
BRANCH   2   5
ATOM      5  CA  LIG    1       25.729 -30.286  11.203  0.00  0.00    +0.190 C 
ATOM      6  C   LIG    1       25.396 -31.502  10.307  0.00  0.00    +0.165 C 
ATOM      7  S   LIG    1       23.966 -31.399   9.173  0.00  0.00    -0.127 S 
ATOM      8  C   LIG    1       24.963 -31.033   7.644  0.00  0.00    +0.042 C 
ATOM      9  CA  LIG    1       26.451 -31.266   8.017  0.00  0.00    +0.201 C 
ATOM     10  C   LIG    1       24.722 -29.563   7.256  0.00  0.00    +0.025 C 
ATOM     11  C   LIG    1       24.400 -31.929   6.532  0.00  0.00    +0.025 C 
ATOM     12  N   LIG    1       26.564 -31.149   9.476  0.00  0.00    -0.271 N 
ATOM     13  C   LIG    1       26.656 -29.899  10.037  0.00  0.00    +0.240 C 
ATOM     14  O   LIG    1       27.138 -28.863   9.603  0.00  0.00    -0.273 OA
BRANCH   9  15
ATOM     15  C   LIG    1       27.011 -32.599   7.505  0.00  0.00    +0.327 C 
ATOM     16  O   LIG    1       26.945 -33.643   8.142  0.00  0.00    -0.249 OA
BRANCH  15  17
ATOM     17  OXT LIG    1       27.691 -32.531   6.340  0.00  0.00    -0.479 OA
ATOM     18  HXT LIG    1       27.630 -31.658   5.915  0.00  0.00    +0.295 HD
ENDBRANCH  15  17
ENDBRANCH   9  15
ENDBRANCH   2   5
BRANCH   1  21
ATOM     19  C   LIG    1       24.360 -25.947  13.579  0.00  0.00    +0.090 C 
ATOM     20  C   LIG    1       23.238 -26.877  13.321  0.00  0.00    +0.147 A 
ATOM     21  C   LIG    1       23.113 -28.225  13.008  0.00  0.00    +0.106 A 
ATOM     22  C   LIG    1       21.690 -28.407  12.810  0.00  0.00    +0.127 A 
ATOM     23  N   LIG    1       21.069 -27.235  13.056  0.00  0.00    -0.077 NA
ATOM     24  O   LIG    1       22.017 -26.306  13.351  0.00  0.00    -0.359 OA
BRANCH  22  25
ATOM     25  C   LIG    1       20.815 -29.540  12.410  0.00  0.00    +0.023 A 
ATOM     26  C   LIG    1       19.750 -30.088  13.141  0.00  0.00    +0.050 A 
ATOM     27 CL   LIG    1       19.221 -29.496  14.676  0.00  0.00    -0.083 Cl
ATOM     28  C   LIG    1       18.948 -31.113  12.590  0.00  0.00    +0.021 A 
ATOM     29  C   LIG    1       19.146 -31.568  11.287  0.00  0.00    +0.002 A 
ATOM     30  C   LIG    1       20.174 -31.029  10.534  0.00  0.00    +0.001 A 
ATOM     31  C   LIG    1       21.002 -30.049  11.095  0.00  0.00    +0.012 A 
ENDBRANCH  22  25
ENDBRANCH   1  21
TORSDOF 5
ENDMDL
MODEL 4
REMARK VINA RESULT:      -6.0      1.561      1.962
REMARK  Name = *****
REMARK                            x       y       z     vdW  Elec       q    Type
REMARK                         _______ _______ _______ _____ _____    ______ ____
ROOT
ATOM      1  C   LIG    1       25.896 -28.419  12.895  0.00  0.00    +0.250 C 
ATOM      2  N   LIG    1       25.267 -29.092  11.860  0.00  0.00    -0.298 N 
ATOM      3  H   LIG    1       24.501 -28.643  11.373  0.00  0.00    +0.150 HD
ATOM      4  O   LIG    1       26.907 -28.866  13.428  0.00  0.00    -0.270 OA
ENDROOT
BRANCH   2   5
ATOM      5  CA  LIG    1       25.781 -30.388  11.356  0.00  0.00    +0.190 C 
ATOM      6  C   LIG    1       24.925 -31.129  10.300  0.00  0.00    +0.165 C 
ATOM      7  S   LIG    1       23.788 -30.160   9.248  0.00  0.00    -0.127 S 
ATOM      8  C   LIG    1       24.900 -30.118   7.756  0.00  0.00    +0.042 C 
ATOM      9  CA  LIG    1       26.056 -31.115   8.035  0.00  0.00    +0.201 C 
ATOM     10  C   LIG    1       25.442 -28.685   7.601  0.00  0.00    +0.025 C 
ATOM     11  C   LIG    1       24.015 -30.438   6.543  0.00  0.00    +0.025 C 
ATOM     12  N   LIG    1       26.149 -31.287   9.490  0.00  0.00    -0.271 N 
ATOM     13  C   LIG    1       26.827 -30.348  10.228  0.00  0.00    +0.240 C 
ATOM     14  O   LIG    1       27.780 -29.640   9.937  0.00  0.00    -0.273 OA
BRANCH   9  15
ATOM     15  C   LIG    1       25.899 -32.457   7.309  0.00  0.00    +0.327 C 
ATOM     16  O   LIG    1       25.188 -33.364   7.723  0.00  0.00    -0.249 OA
BRANCH  15  17
ATOM     17  OXT LIG    1       26.689 -32.625   6.226  0.00  0.00    -0.479 OA
ATOM     18  HXT LIG    1       27.534 -33.060   6.437  0.00  0.00    +0.295 HD
ENDBRANCH  15  17
ENDBRANCH   9  15
ENDBRANCH   2   5
BRANCH   1  21
ATOM     19  C   LIG    1       27.301 -25.489  13.185  0.00  0.00    +0.090 C 
ATOM     20  C   LIG    1       25.918 -25.967  13.407  0.00  0.00    +0.147 A 
ATOM     21  C   LIG    1       25.256 -27.184  13.306  0.00  0.00    +0.106 A 
ATOM     22  C   LIG    1       23.876 -26.857  13.596  0.00  0.00    +0.127 A 
ATOM     23  N   LIG    1       23.799 -25.542  13.892  0.00  0.00    -0.077 NA
ATOM     24  O   LIG    1       25.041 -25.005  13.760  0.00  0.00    -0.359 OA
BRANCH  22  25
ATOM     25  C   LIG    1       22.594 -27.610  13.628  0.00  0.00    +0.023 A 
ATOM     26  C   LIG    1       22.368 -28.872  14.199  0.00  0.00    +0.050 A 
ATOM     27 CL   LIG    1       23.570 -29.791  15.031  0.00  0.00    -0.083 Cl
ATOM     28  C   LIG    1       21.068 -29.427  14.228  0.00  0.00    +0.021 A 
ATOM     29  C   LIG    1       19.966 -28.720  13.752  0.00  0.00    +0.002 A 
ATOM     30  C   LIG    1       20.156 -27.462  13.205  0.00  0.00    +0.001 A 
ATOM     31  C   LIG    1       21.449 -26.931  13.128  0.00  0.00    +0.012 A 
ENDBRANCH  22  25
ENDBRANCH   1  21
TORSDOF 5
ENDMDL
MODEL 5
REMARK VINA RESULT:      -5.9      3.348      6.297
REMARK  Name = *****
REMARK                            x       y       z     vdW  Elec       q    Type
REMARK                         _______ _______ _______ _____ _____    ______ ____
ROOT
ATOM      1  C   LIG    1       25.635 -27.956  12.507  0.00  0.00    +0.250 C 
ATOM      2  N   LIG    1       24.378 -28.538  12.486  0.00  0.00    -0.298 N 
ATOM      3  H   LIG    1       24.282 -29.495  12.169  0.00  0.00    +0.150 HD
ATOM      4  O   LIG    1       25.819 -26.848  13.003  0.00  0.00    -0.270 OA
ENDROOT
BRANCH   2   5
ATOM      5  CA  LIG    1       23.195 -27.845  13.053  0.00  0.00    +0.190 C 
ATOM      6  C   LIG    1       21.800 -28.355  12.622  0.00  0.00    +0.165 C 
ATOM      7  S   LIG    1       21.626 -30.087  12.066  0.00  0.00    -0.127 S 
ATOM      8  C   LIG    1       20.941 -30.734  13.672  0.00  0.00    +0.042 C 
ATOM      9  CA  LIG    1       20.610 -29.495  14.545  0.00  0.00    +0.201 C 
ATOM     10  C   LIG    1       22.026 -31.598  14.341  0.00  0.00    +0.025 C 
ATOM     11  C   LIG    1       19.755 -31.637  13.308  0.00  0.00    +0.025 C 
ATOM     12  N   LIG    1       21.420 -28.376  14.048  0.00  0.00    -0.271 N 
ATOM     13  C   LIG    1       22.727 -28.269  14.456  0.00  0.00    +0.240 C 
ATOM     14  O   LIG    1       23.267 -28.606  15.499  0.00  0.00    -0.273 OA
BRANCH   9  15
ATOM     15  C   LIG    1       19.116 -29.149  14.578  0.00  0.00    +0.327 C 
ATOM     16  O   LIG    1       18.315 -29.707  15.316  0.00  0.00    -0.249 OA
BRANCH  15  17
ATOM     17  OXT LIG    1       18.709 -28.253  13.652  0.00  0.00    -0.479 OA
ATOM     18  HXT LIG    1       19.044 -28.451  12.760  0.00  0.00    +0.295 HD
ENDBRANCH  15  17
ENDBRANCH   9  15
ENDBRANCH   2   5
BRANCH   1  21
ATOM     19  C   LIG    1       28.251 -29.245  13.970  0.00  0.00    +0.090 C 
ATOM     20  C   LIG    1       27.774 -29.257  12.568  0.00  0.00    +0.147 A 
ATOM     21  C   LIG    1       26.685 -28.735  11.881  0.00  0.00    +0.106 A 
ATOM     22  C   LIG    1       26.846 -29.242  10.534  0.00  0.00    +0.127 A 
ATOM     23  N   LIG    1       27.990 -29.956  10.478  0.00  0.00    -0.077 NA
ATOM     24  O   LIG    1       28.541 -29.973  11.721  0.00  0.00    -0.359 OA
BRANCH  22  25
ATOM     25  C   LIG    1       26.064 -29.159   9.273  0.00  0.00    +0.023 A 
ATOM     26  C   LIG    1       25.005 -29.990   8.877  0.00  0.00    +0.050 A 
ATOM     27 CL   LIG    1       24.373 -31.280   9.836  0.00  0.00    -0.083 Cl
ATOM     28  C   LIG    1       24.295 -29.733   7.682  0.00  0.00    +0.021 A 
ATOM     29  C   LIG    1       24.579 -28.619   6.894  0.00  0.00    +0.002 A 
ATOM     30  C   LIG    1       25.603 -27.768   7.273  0.00  0.00    +0.001 A 
ATOM     31  C   LIG    1       26.341 -28.048   8.430  0.00  0.00    +0.012 A 
ENDBRANCH  22  25
ENDBRANCH   1  21
TORSDOF 5
ENDMDL
MODEL 6
REMARK VINA RESULT:      -5.7      3.243      6.694
REMARK  Name = *****
REMARK                            x       y       z     vdW  Elec       q    Type
REMARK                         _______ _______ _______ _____ _____    ______ ____
ROOT
ATOM      1  C   LIG    1       25.788 -28.482   8.167  0.00  0.00    +0.250 C 
ATOM      2  N   LIG    1       26.003 -28.943   9.456  0.00  0.00    -0.298 N 
ATOM      3  H   LIG    1       25.603 -29.830   9.737  0.00  0.00    +0.150 HD
ATOM      4  O   LIG    1       26.357 -27.481   7.742  0.00  0.00    -0.270 OA
ENDROOT
BRANCH   2   5
ATOM      5  CA  LIG    1       26.922 -28.241  10.384  0.00  0.00    +0.190 C 
ATOM      6  C   LIG    1       26.349 -27.799  11.752  0.00  0.00    +0.165 C 
ATOM      7  S   LIG    1       24.916 -28.700  12.441  0.00  0.00    -0.127 S 
ATOM      8  C   LIG    1       25.901 -29.746  13.625  0.00  0.00    +0.042 C 
ATOM      9  CA  LIG    1       27.339 -29.164  13.641  0.00  0.00    +0.201 C 
ATOM     10  C   LIG    1       25.904 -31.192  13.098  0.00  0.00    +0.025 C 
ATOM     11  C   LIG    1       25.148 -29.716  14.963  0.00  0.00    +0.025 C 
ATOM     12  N   LIG    1       27.527 -28.417  12.391  0.00  0.00    -0.271 N 
ATOM     13  C   LIG    1       27.856 -29.106  11.249  0.00  0.00    +0.240 C 
ATOM     14  O   LIG    1       28.494 -30.137  11.095  0.00  0.00    -0.273 OA
BRANCH   9  15
ATOM     15  C   LIG    1       27.639 -28.301  14.873  0.00  0.00    +0.327 C 
ATOM     16  O   LIG    1       26.935 -27.363  15.222  0.00  0.00    -0.249 OA
BRANCH  15  17
ATOM     17  OXT LIG    1       28.806 -28.572  15.499  0.00  0.00    -0.479 OA
ATOM     18  HXT LIG    1       28.846 -28.207  16.399  0.00  0.00    +0.295 HD
ENDBRANCH  15  17
ENDBRANCH   9  15
ENDBRANCH   2   5
BRANCH   1  21
ATOM     19  C   LIG    1       24.228 -27.510   5.471  0.00  0.00    +0.090 C 
ATOM     20  C   LIG    1       24.206 -28.771   6.247  0.00  0.00    +0.147 A 
ATOM     21  C   LIG    1       24.833 -29.249   7.390  0.00  0.00    +0.106 A 
ATOM     22  C   LIG    1       24.379 -30.620   7.491  0.00  0.00    +0.127 A 
ATOM     23  N   LIG    1       23.508 -30.859   6.487  0.00  0.00    -0.077 NA
ATOM     24  O   LIG    1       23.420 -29.736   5.727  0.00  0.00    -0.359 OA
BRANCH  22  25
ATOM     25  C   LIG    1       24.655 -31.761   8.403  0.00  0.00    +0.023 A 
ATOM     26  C   LIG    1       25.808 -32.560   8.435  0.00  0.00    +0.050 A 
ATOM     27 CL   LIG    1       27.178 -32.328   7.410  0.00  0.00    -0.083 Cl
ATOM     28  C   LIG    1       25.965 -33.559   9.423  0.00  0.00    +0.021 A 
ATOM     29  C   LIG    1       25.017 -33.742  10.428  0.00  0.00    +0.002 A 
ATOM     30  C   LIG    1       23.881 -32.951  10.435  0.00  0.00    +0.001 A 
ATOM     31  C   LIG    1       23.698 -31.995   9.429  0.00  0.00    +0.012 A 
ENDBRANCH  22  25
ENDBRANCH   1  21
TORSDOF 5
ENDMDL
MODEL 7
REMARK VINA RESULT:      -5.7      3.467      5.657
REMARK  Name = *****
REMARK                            x       y       z     vdW  Elec       q    Type
REMARK                         _______ _______ _______ _____ _____    ______ ____
ROOT
ATOM      1  C   LIG    1       20.390 -31.038  11.070  0.00  0.00    +0.250 C 
ATOM      2  N   LIG    1       21.606 -31.701  11.136  0.00  0.00    -0.298 N 
ATOM      3  H   LIG    1       21.998 -31.924  12.043  0.00  0.00    +0.150 HD
ATOM      4  O   LIG    1       19.815 -30.862  10.000  0.00  0.00    -0.270 OA
ENDROOT
BRANCH   2   5
ATOM      5  CA  LIG    1       22.272 -32.218   9.916  0.00  0.00    +0.190 C 
ATOM      6  C   LIG    1       23.183 -31.240   9.137  0.00  0.00    +0.165 C 
ATOM      7  S   LIG    1       23.941 -29.838  10.030  0.00  0.00    -0.127 S 
ATOM      8  C   LIG    1       25.614 -30.627  10.236  0.00  0.00    +0.042 C 
ATOM      9  CA  LIG    1       25.619 -31.898   9.347  0.00  0.00    +0.201 C 
ATOM     10  C   LIG    1       25.789 -30.999  11.720  0.00  0.00    +0.025 C 
ATOM     11  C   LIG    1       26.650 -29.552   9.878  0.00  0.00    +0.025 C 
ATOM     12  N   LIG    1       24.221 -32.289   9.129  0.00  0.00    -0.271 N 
ATOM     13  C   LIG    1       23.575 -33.014  10.101  0.00  0.00    +0.240 C 
ATOM     14  O   LIG    1       24.003 -33.825  10.909  0.00  0.00    -0.273 OA
BRANCH   9  15
ATOM     15  C   LIG    1       26.375 -31.720   8.025  0.00  0.00    +0.327 C 
ATOM     16  O   LIG    1       27.400 -32.331   7.750  0.00  0.00    -0.249 OA
BRANCH  15  17
ATOM     17  OXT LIG    1       25.898 -30.751   7.212  0.00  0.00    -0.479 OA
ATOM     18  HXT LIG    1       25.230 -31.077   6.585  0.00  0.00    +0.295 HD
ENDBRANCH  15  17
ENDBRANCH   9  15
ENDBRANCH   2   5
BRANCH   1  21
ATOM     19  C   LIG    1       17.888 -32.263  12.769  0.00  0.00    +0.090 C 
ATOM     20  C   LIG    1       18.809 -31.129  13.011  0.00  0.00    +0.147 A 
ATOM     21  C   LIG    1       19.882 -30.556  12.340  0.00  0.00    +0.106 A 
ATOM     22  C   LIG    1       20.348 -29.524  13.243  0.00  0.00    +0.127 A 
ATOM     23  N   LIG    1       19.539 -29.501  14.323  0.00  0.00    -0.077 NA
ATOM     24  O   LIG    1       18.615 -30.489  14.182  0.00  0.00    -0.359 OA
BRANCH  22  25
ATOM     25  C   LIG    1       21.468 -28.546  13.243  0.00  0.00    +0.023 A 
ATOM     26  C   LIG    1       21.373 -27.151  13.131  0.00  0.00    +0.050 A 
ATOM     27 CL   LIG    1       19.883 -26.286  13.008  0.00  0.00    -0.083 Cl
ATOM     28  C   LIG    1       22.526 -26.339  13.235  0.00  0.00    +0.021 A 
ATOM     29  C   LIG    1       23.777 -26.887  13.513  0.00  0.00    +0.002 A 
ATOM     30  C   LIG    1       23.895 -28.259  13.653  0.00  0.00    +0.001 A 
ATOM     31  C   LIG    1       22.765 -29.070  13.500  0.00  0.00    +0.012 A 
ENDBRANCH  22  25
ENDBRANCH   1  21
TORSDOF 5
ENDMDL
MODEL 8
REMARK VINA RESULT:      -5.6      2.623      6.331
REMARK  Name = *****
REMARK                            x       y       z     vdW  Elec       q    Type
REMARK                         _______ _______ _______ _____ _____    ______ ____
ROOT
ATOM      1  C   LIG    1       25.520 -29.298   8.415  0.00  0.00    +0.250 C 
ATOM      2  N   LIG    1       26.140 -29.557   9.627  0.00  0.00    -0.298 N 
ATOM      3  H   LIG    1       26.099 -30.493  10.013  0.00  0.00    +0.150 HD
ATOM      4  O   LIG    1       25.651 -28.218   7.847  0.00  0.00    -0.270 OA
ENDROOT
BRANCH   2   5
ATOM      5  CA  LIG    1       26.981 -28.537  10.299  0.00  0.00    +0.190 C 
ATOM      6  C   LIG    1       26.368 -27.801  11.515  0.00  0.00    +0.165 C 
ATOM      7  S   LIG    1       25.045 -28.624  12.470  0.00  0.00    -0.127 S 
ATOM      8  C   LIG    1       26.144 -29.198  13.859  0.00  0.00    +0.042 C 
ATOM      9  CA  LIG    1       27.510 -28.488  13.668  0.00  0.00    +0.201 C 
ATOM     10  C   LIG    1       26.302 -30.725  13.743  0.00  0.00    +0.025 C 
ATOM     11  C   LIG    1       25.398 -28.884  15.163  0.00  0.00    +0.025 C 
ATOM     12  N   LIG    1       27.609 -28.095  12.257  0.00  0.00    -0.271 N 
ATOM     13  C   LIG    1       28.007 -29.031  11.334  0.00  0.00    +0.240 C 
ATOM     14  O   LIG    1       28.752 -29.993  11.443  0.00  0.00    -0.273 OA
BRANCH   9  15
ATOM     15  C   LIG    1       27.719 -27.296  14.610  0.00  0.00    +0.327 C 
ATOM     16  O   LIG    1       27.095 -26.247  14.512  0.00  0.00    -0.249 OA
BRANCH  15  17
ATOM     17  OXT LIG    1       28.726 -27.431  15.500  0.00  0.00    -0.479 OA
ATOM     18  HXT LIG    1       29.430 -26.770  15.380  0.00  0.00    +0.295 HD
ENDBRANCH  15  17
ENDBRANCH   9  15
ENDBRANCH   2   5
BRANCH   1  21
ATOM     19  C   LIG    1       25.517 -30.474   5.372  0.00  0.00    +0.090 C 
ATOM     20  C   LIG    1       24.751 -30.829   6.588  0.00  0.00    +0.147 A 
ATOM     21  C   LIG    1       24.699 -30.376   7.900  0.00  0.00    +0.106 A 
ATOM     22  C   LIG    1       23.766 -31.278   8.543  0.00  0.00    +0.127 A 
ATOM     23  N   LIG    1       23.294 -32.139   7.618  0.00  0.00    -0.077 NA
ATOM     24  O   LIG    1       23.908 -31.870   6.436  0.00  0.00    -0.359 OA
BRANCH  22  25
ATOM     25  C   LIG    1       23.250 -31.455   9.927  0.00  0.00    +0.023 A 
ATOM     26  C   LIG    1       23.837 -32.202  10.959  0.00  0.00    +0.050 A 
ATOM     27 CL   LIG    1       25.336 -33.047  10.815  0.00  0.00    -0.083 Cl
ATOM     28  C   LIG    1       23.273 -32.207  12.256  0.00  0.00    +0.021 A 
ATOM     29  C   LIG    1       22.160 -31.428  12.566  0.00  0.00    +0.002 A 
ATOM     30  C   LIG    1       21.575 -30.661  11.572  0.00  0.00    +0.001 A 
ATOM     31  C   LIG    1       22.101 -30.693  10.275  0.00  0.00    +0.012 A 
ENDBRANCH  22  25
ENDBRANCH   1  21
TORSDOF 5
ENDMDL
MODEL 9
REMARK VINA RESULT:      -5.6      4.772      7.903
REMARK  Name = *****
REMARK                            x       y       z     vdW  Elec       q    Type
REMARK                         _______ _______ _______ _____ _____    ______ ____
ROOT
ATOM      1  C   LIG    1       23.824 -30.598   9.993  0.00  0.00    +0.250 C 
ATOM      2  N   LIG    1       22.454 -30.680  10.186  0.00  0.00    -0.298 N 
ATOM      3  H   LIG    1       21.890 -31.184   9.512  0.00  0.00    +0.150 HD
ATOM      4  O   LIG    1       24.562 -30.111  10.845  0.00  0.00    -0.270 OA
ENDROOT
BRANCH   2   5
ATOM      5  CA  LIG    1       21.816 -30.173  11.425  0.00  0.00    +0.190 C 
ATOM      6  C   LIG    1       20.271 -30.091  11.445  0.00  0.00    +0.165 C 
ATOM      7  S   LIG    1       19.314 -31.194  10.346  0.00  0.00    -0.127 S 
ATOM      8  C   LIG    1       18.881 -32.441  11.659  0.00  0.00    +0.042 C 
ATOM      9  CA  LIG    1       19.285 -31.813  13.018  0.00  0.00    +0.201 C 
ATOM     10  C   LIG    1       19.691 -33.722  11.387  0.00  0.00    +0.025 C 
ATOM     11  C   LIG    1       17.390 -32.761  11.481  0.00  0.00    +0.025 C 
ATOM     12  N   LIG    1       20.299 -30.787  12.747  0.00  0.00    -0.271 N 
ATOM     13  C   LIG    1       21.606 -31.172  12.577  0.00  0.00    +0.240 C 
ATOM     14  O   LIG    1       22.231 -32.107  13.054  0.00  0.00    -0.273 OA
BRANCH   9  15
ATOM     15  C   LIG    1       18.100 -31.250  13.811  0.00  0.00    +0.327 C 
ATOM     16  O   LIG    1       17.535 -31.869  14.704  0.00  0.00    -0.249 OA
BRANCH  15  17
ATOM     17  OXT LIG    1       17.635 -30.054  13.386  0.00  0.00    -0.479 OA
ATOM     18  HXT LIG    1       17.957 -29.815  12.500  0.00  0.00    +0.295 HD
ENDBRANCH  15  17
ENDBRANCH   9  15
ENDBRANCH   2   5
BRANCH   1  21
ATOM     19  C   LIG    1       23.926 -33.713   9.029  0.00  0.00    +0.090 C 
ATOM     20  C   LIG    1       24.312 -32.443   8.372  0.00  0.00    +0.147 A 
ATOM     21  C   LIG    1       24.298 -31.098   8.718  0.00  0.00    +0.106 A 
ATOM     22  C   LIG    1       24.745 -30.424   7.517  0.00  0.00    +0.127 A 
ATOM     23  N   LIG    1       25.038 -31.355   6.585  0.00  0.00    -0.077 NA
ATOM     24  O   LIG    1       24.758 -32.579   7.107  0.00  0.00    -0.359 OA
BRANCH  22  25
ATOM     25  C   LIG    1       24.931 -29.007   7.107  0.00  0.00    +0.023 A 
ATOM     26  C   LIG    1       25.748 -28.048   7.724  0.00  0.00    +0.050 A 
ATOM     27 CL   LIG    1       26.749 -28.363   9.096  0.00  0.00    -0.083 Cl
ATOM     28  C   LIG    1       25.892 -26.757   7.166  0.00  0.00    +0.021 A 
ATOM     29  C   LIG    1       25.283 -26.415   5.960  0.00  0.00    +0.002 A 
ATOM     30  C   LIG    1       24.491 -27.350   5.316  0.00  0.00    +0.001 A 
ATOM     31  C   LIG    1       24.305 -28.613   5.892  0.00  0.00    +0.012 A 
ENDBRANCH  22  25
ENDBRANCH   1  21
TORSDOF 5
ENDMDL
