MODEL 1
REMARK VINA RESULT:       0.5      0.000      0.000
REMARK  Name = *****
REMARK                            x       y       z     vdW  Elec       q    Type
REMARK                         _______ _______ _______ _____ _____    ______ ____
ROOT
ATOM      1  C   LIG    1       29.201 -20.497   7.021  0.00  0.00    +0.044 C 
ATOM      2  C   LIG    1       27.841 -20.441   6.380  0.00  0.00    -0.047 A 
ATOM      3  C   LIG    1       27.579 -19.668   5.233  0.00  0.00    -0.039 A 
ATOM      4  C   LIG    1       26.289 -19.706   4.655  0.00  0.00    +0.010 A 
ATOM      5  C   LIG    1       25.250 -20.494   5.186  0.00  0.00    -0.016 A 
ATOM      6  C   LIG    1       25.537 -21.241   6.335  0.00  0.00    +0.006 A 
ATOM      7  C   LIG    1       26.808 -21.219   6.917  0.00  0.00    +0.004 A 
ENDROOT
BRANCH   5   8
ATOM      8  C   LIG    1       23.947 -20.646   4.405  0.00  0.00    +0.180 C 
ATOM      9  C   LIG    1       22.610 -20.811   5.175  0.00  0.00    +0.179 C 
ATOM     10  C   LIG    1       21.953 -19.465   5.498  0.00  0.00    +0.177 C 
ATOM     11  C   LIG    1       21.800 -18.638   4.219  0.00  0.00    +0.176 C 
ATOM     12  C   LIG    1       23.120 -18.525   3.435  0.00  0.00    +0.175 C 
ATOM     13  O   LIG    1       23.841 -19.760   3.276  0.00  0.00    -0.361 OA
BRANCH   9  14
ATOM     14  O   LIG    1       21.683 -21.571   4.361  0.00  0.00    -0.386 OA
ATOM     15  H   LIG    1       21.638 -22.468   4.744  0.00  0.00    +0.210 HD
ENDBRANCH   9  14
BRANCH  10  16
ATOM     16  O   LIG    1       22.692 -18.757   6.488  0.00  0.00    -0.387 OA
ATOM     17  H   LIG    1       22.910 -17.880   6.121  0.00  0.00    +0.210 HD
ENDBRANCH  10  16
BRANCH  11  18
ATOM     18  O   LIG    1       20.789 -19.220   3.382  0.00  0.00    -0.387 OA
ATOM     19  H   LIG    1       19.956 -18.729   3.553  0.00  0.00    +0.210 HD
ENDBRANCH  11  18
BRANCH  12  20
ATOM     20  C   LIG    1       24.040 -17.424   3.984  0.00  0.00    +0.190 C 
BRANCH  20  21
ATOM     21  O   LIG    1       23.264 -16.288   4.368  0.00  0.00    -0.392 OA
ATOM     22  H   LIG    1       22.820 -16.539   5.200  0.00  0.00    +0.209 HD
ENDBRANCH  20  21
ENDBRANCH  12  20
ENDBRANCH   5   8
BRANCH   3  23
ATOM     23  C   LIG    1       28.641 -18.791   4.593  0.00  0.00    +0.078 C 
BRANCH  23  24
ATOM     24  C   LIG    1       28.272 -17.334   4.508  0.00  0.00    -0.005 A 
ATOM     25  S   LIG    1       26.750 -16.890   3.861  0.00  0.00    -0.093 S 
ATOM     26  C   LIG    1       27.041 -15.210   4.081  0.00  0.00    +0.020 A 
ATOM     27  C   LIG    1       28.278 -15.002   4.661  0.00  0.00    +0.016 A 
ATOM     28  C   LIG    1       28.982 -16.218   4.912  0.00  0.00    +0.012 A 
BRANCH  26  29
ATOM     29  C   LIG    1       26.045 -14.211   3.637  0.00  0.00    -0.011 A 
ATOM     30  C   LIG    1       25.908 -13.925   2.267  0.00  0.00    +0.012 A 
ATOM     31  C   LIG    1       24.964 -12.987   1.815  0.00  0.00    +0.039 A 
ATOM     32  C   LIG    1       24.162 -12.339   2.734  0.00  0.00    +0.123 A 
ATOM     33  F   LIG    1       23.254 -11.447   2.301  0.00  0.00    -0.205 F 
ATOM     34  C   LIG    1       24.279 -12.594   4.094  0.00  0.00    +0.039 A 
ATOM     35  C   LIG    1       25.222 -13.526   4.544  0.00  0.00    +0.012 A 
ENDBRANCH  26  29
ENDBRANCH  23  24
ENDBRANCH   3  23
TORSDOF 9
ENDMDL
