MODEL 1
REMARK VINA RESULT:      -0.1      0.000      0.000
REMARK  Name = *****
REMARK                            x       y       z     vdW  Elec       q    Type
REMARK                         _______ _______ _______ _____ _____    ______ ____
ROOT
ATOM      1  C   LIG    1       24.732 -18.825   3.624  0.00  0.00    -0.006 A 
ATOM      2  C   LIG    1       25.252 -17.501   3.665  0.00  0.00    +0.007 A 
ATOM      3  C   LIG    1       26.628 -17.192   3.551  0.00  0.00    +0.010 A 
ATOM      4  C   LIG    1       27.095 -15.883   3.608  0.00  0.00    +0.001 A 
ATOM      5  C   LIG    1       26.191 -14.853   3.790  0.00  0.00    +0.014 A 
ATOM      6  C   LIG    1       24.811 -15.119   3.893  0.00  0.00    +0.081 A 
ATOM      7  C   LIG    1       24.331 -16.426   3.815  0.00  0.00    +0.084 A 
ATOM      8  N   LIG    1       23.009 -16.644   3.880  0.00  0.00    -0.242 NA
ATOM      9  C   LIG    1       22.503 -17.899   3.769  0.00  0.00    +0.145 A 
ATOM     10  C   LIG    1       23.340 -18.999   3.638  0.00  0.00    +0.039 A 
ENDROOT
BRANCH   6  11
ATOM     11  C   LIG    1       23.896 -13.934   4.088  0.00  0.00    +0.419 C 
ATOM     12  F   LIG    1       22.937 -14.191   5.028  0.00  0.00    -0.166 F 
ATOM     13  F   LIG    1       23.199 -13.655   2.945  0.00  0.00    -0.166 F 
ATOM     14  F   LIG    1       24.460 -12.755   4.459  0.00  0.00    -0.166 F 
ENDBRANCH   6  11
BRANCH   9  15
ATOM     15  C   LIG    1       20.993 -18.090   3.821  0.00  0.00    +0.434 C 
ATOM     16  F   LIG    1       20.379 -17.884   2.621  0.00  0.00    -0.164 F 
ATOM     17  F   LIG    1       20.382 -17.249   4.708  0.00  0.00    -0.164 F 
ATOM     18  F   LIG    1       20.621 -19.347   4.208  0.00  0.00    -0.164 F 
ENDBRANCH   9  15
BRANCH   1  19
ATOM     19  C   LIG    1       25.608 -20.072   3.573  0.00  0.00    +0.162 C 
BRANCH  19  20
ATOM     20  C   LIG    1       25.054 -21.304   4.372  0.00  0.00    +0.087 C 
ATOM     21  N   LIG    1       25.877 -21.571   5.586  0.00  0.00    -0.311 NA
ATOM     22  H   LIG    1       25.629 -22.502   5.932  0.00  0.00    +0.122 HD
ATOM     23  C   LIG    1       25.624 -20.614   6.670  0.00  0.00    +0.081 C 
ATOM     24  C   LIG    1       24.150 -20.549   7.059  0.00  0.00    +0.015 C 
ATOM     25  C   LIG    1       23.270 -20.243   5.854  0.00  0.00    +0.003 C 
ATOM     26  C   LIG    1       23.559 -21.215   4.715  0.00  0.00    +0.021 C 
ENDBRANCH  19  20
BRANCH  19  27
ATOM     27  O   LIG    1       25.731 -20.452   2.195  0.00  0.00    -0.386 OA
ATOM     28  H   LIG    1       25.624 -19.611   1.705  0.00  0.00    +0.210 HD
ENDBRANCH  19  27
ENDBRANCH   1  19
TORSDOF 5
ENDMDL
MODEL 2
REMARK VINA RESULT:       0.1      1.702      2.584
REMARK  Name = *****
REMARK                            x       y       z     vdW  Elec       q    Type
REMARK                         _______ _______ _______ _____ _____    ______ ____
ROOT
ATOM      1  C   LIG    1       25.701 -18.286   4.251  0.00  0.00    -0.006 A 
ATOM      2  C   LIG    1       25.978 -16.930   3.915  0.00  0.00    +0.007 A 
ATOM      3  C   LIG    1       27.284 -16.404   3.779  0.00  0.00    +0.010 A 
ATOM      4  C   LIG    1       27.510 -15.069   3.461  0.00  0.00    +0.001 A 
ATOM      5  C   LIG    1       26.428 -14.227   3.279  0.00  0.00    +0.014 A 
ATOM      6  C   LIG    1       25.111 -14.717   3.391  0.00  0.00    +0.081 A 
ATOM      7  C   LIG    1       24.874 -16.060   3.689  0.00  0.00    +0.084 A 
ATOM      8  N   LIG    1       23.611 -16.504   3.753  0.00  0.00    -0.242 NA
ATOM      9  C   LIG    1       23.343 -17.811   4.002  0.00  0.00    +0.145 A 
ATOM     10  C   LIG    1       24.366 -18.717   4.250  0.00  0.00    +0.039 A 
ENDROOT
BRANCH   6  11
ATOM     11  C   LIG    1       23.990 -13.730   3.175  0.00  0.00    +0.419 C 
ATOM     12  F   LIG    1       24.269 -12.872   2.147  0.00  0.00    -0.166 F 
ATOM     13  F   LIG    1       23.825 -12.923   4.268  0.00  0.00    -0.166 F 
ATOM     14  F   LIG    1       22.754 -14.225   2.908  0.00  0.00    -0.166 F 
ENDBRANCH   6  11
BRANCH   9  15
ATOM     15  C   LIG    1       21.891 -18.271   4.037  0.00  0.00    +0.434 C 
ATOM     16  F   LIG    1       21.086 -17.466   4.787  0.00  0.00    -0.164 F 
ATOM     17  F   LIG    1       21.745 -19.530   4.545  0.00  0.00    -0.164 F 
ATOM     18  F   LIG    1       21.309 -18.315   2.801  0.00  0.00    -0.164 F 
ENDBRANCH   9  15
BRANCH   1  19
ATOM     19  C   LIG    1       26.779 -19.297   4.620  0.00  0.00    +0.162 C 
BRANCH  19  20
ATOM     20  C   LIG    1       27.325 -19.178   6.087  0.00  0.00    +0.087 C 
ATOM     21  N   LIG    1       26.726 -20.218   6.970  0.00  0.00    -0.311 NA
ATOM     22  H   LIG    1       26.922 -19.956   7.939  0.00  0.00    +0.122 HD
ATOM     23  C   LIG    1       27.296 -21.553   6.748  0.00  0.00    +0.081 C 
ATOM     24  C   LIG    1       28.813 -21.572   6.900  0.00  0.00    +0.015 C 
ATOM     25  C   LIG    1       29.475 -20.546   5.988  0.00  0.00    +0.003 C 
ATOM     26  C   LIG    1       28.857 -19.166   6.193  0.00  0.00    +0.021 C 
ENDBRANCH  19  20
BRANCH  19  27
ATOM     27  O   LIG    1       26.211 -20.605   4.461  0.00  0.00    -0.386 OA
ATOM     28  H   LIG    1       26.244 -20.992   5.360  0.00  0.00    +0.210 HD
ENDBRANCH  19  27
ENDBRANCH   1  19
TORSDOF 5
ENDMDL
MODEL 3
REMARK VINA RESULT:       1.3      3.633      4.484
REMARK  Name = *****
REMARK                            x       y       z     vdW  Elec       q    Type
REMARK                         _______ _______ _______ _____ _____    ______ ____
ROOT
ATOM      1  C   LIG    1       25.127 -17.562   3.830  0.00  0.00    -0.006 A 
ATOM      2  C   LIG    1       25.187 -16.148   3.675  0.00  0.00    +0.007 A 
ATOM      3  C   LIG    1       24.082 -15.351   3.292  0.00  0.00    +0.010 A 
ATOM      4  C   LIG    1       24.188 -13.972   3.140  0.00  0.00    +0.001 A 
ATOM      5  C   LIG    1       25.409 -13.362   3.362  0.00  0.00    +0.014 A 
ATOM      6  C   LIG    1       26.529 -14.120   3.758  0.00  0.00    +0.081 A 
ATOM      7  C   LIG    1       26.428 -15.500   3.934  0.00  0.00    +0.084 A 
ATOM      8  N   LIG    1       27.501 -16.189   4.347  0.00  0.00    -0.242 NA
ATOM      9  C   LIG    1       27.430 -17.527   4.566  0.00  0.00    +0.145 A 
ATOM     10  C   LIG    1       26.259 -18.231   4.319  0.00  0.00    +0.039 A 
ENDROOT
BRANCH   6  11
ATOM     11  C   LIG    1       27.821 -13.372   3.980  0.00  0.00    +0.419 C 
ATOM     12  F   LIG    1       27.960 -12.985   5.284  0.00  0.00    -0.166 F 
ATOM     13  F   LIG    1       27.845 -12.206   3.266  0.00  0.00    -0.166 F 
ATOM     14  F   LIG    1       28.980 -14.006   3.665  0.00  0.00    -0.166 F 
ENDBRANCH   6  11
BRANCH   9  15
ATOM     15  C   LIG    1       28.671 -18.259   5.062  0.00  0.00    +0.434 C 
ATOM     16  F   LIG    1       28.386 -19.362   5.810  0.00  0.00    -0.164 F 
ATOM     17  F   LIG    1       29.475 -17.473   5.837  0.00  0.00    -0.164 F 
ATOM     18  F   LIG    1       29.475 -18.704   4.051  0.00  0.00    -0.164 F 
ENDBRANCH   9  15
BRANCH   1  19
ATOM     19  C   LIG    1       23.897 -18.394   3.486  0.00  0.00    +0.162 C 
BRANCH  19  20
ATOM     20  C   LIG    1       24.119 -19.948   3.517  0.00  0.00    +0.087 C 
ATOM     21  N   LIG    1       25.027 -20.338   4.633  0.00  0.00    -0.311 NA
ATOM     22  H   LIG    1       25.324 -21.304   4.469  0.00  0.00    +0.122 HD
ATOM     23  C   LIG    1       24.372 -20.294   5.946  0.00  0.00    +0.081 C 
ATOM     24  C   LIG    1       23.108 -21.148   5.997  0.00  0.00    +0.015 C 
ATOM     25  C   LIG    1       22.131 -20.760   4.894  0.00  0.00    +0.003 C 
ATOM     26  C   LIG    1       22.822 -20.772   3.534  0.00  0.00    +0.021 C 
ENDBRANCH  19  20
BRANCH  19  27
ATOM     27  O   LIG    1       22.879 -18.069   4.443  0.00  0.00    -0.386 OA
ATOM     28  H   LIG    1       22.266 -18.832   4.408  0.00  0.00    +0.210 HD
ENDBRANCH  19  27
ENDBRANCH   1  19
TORSDOF 5
ENDMDL
MODEL 4
REMARK VINA RESULT:       1.8      2.232      5.695
REMARK  Name = *****
REMARK                            x       y       z     vdW  Elec       q    Type
REMARK                         _______ _______ _______ _____ _____    ______ ____
ROOT
ATOM      1  C   LIG    1       25.063 -16.285   3.691  0.00  0.00    -0.006 A 
ATOM      2  C   LIG    1       24.891 -17.696   3.621  0.00  0.00    +0.007 A 
ATOM      3  C   LIG    1       25.824 -18.574   3.020  0.00  0.00    +0.010 A 
ATOM      4  C   LIG    1       25.611 -19.947   2.963  0.00  0.00    +0.001 A 
ATOM      5  C   LIG    1       24.451 -20.472   3.503  0.00  0.00    +0.014 A 
ATOM      6  C   LIG    1       23.505 -19.632   4.124  0.00  0.00    +0.081 A 
ATOM      7  C   LIG    1       23.719 -18.256   4.205  0.00  0.00    +0.084 A 
ATOM      8  N   LIG    1       22.818 -17.487   4.834  0.00  0.00    -0.242 NA
ATOM      9  C   LIG    1       23.012 -16.150   4.965  0.00  0.00    +0.145 A 
ATOM     10  C   LIG    1       24.122 -15.530   4.408  0.00  0.00    +0.039 A 
ENDROOT
BRANCH   6  11
ATOM     11  C   LIG    1       22.269 -20.290   4.688  0.00  0.00    +0.419 C 
ATOM     12  F   LIG    1       22.344 -20.416   6.047  0.00  0.00    -0.166 F 
ATOM     13  F   LIG    1       22.135 -21.569   4.225  0.00  0.00    -0.166 F 
ATOM     14  F   LIG    1       21.071 -19.696   4.446  0.00  0.00    -0.166 F 
ENDBRANCH   6  11
BRANCH   9  15
ATOM     15  C   LIG    1       21.972 -15.326   5.713  0.00  0.00    +0.434 C 
ATOM     16  F   LIG    1       20.693 -15.572   5.309  0.00  0.00    -0.164 F 
ATOM     17  F   LIG    1       22.161 -13.981   5.574  0.00  0.00    -0.164 F 
ATOM     18  F   LIG    1       21.975 -15.549   7.062  0.00  0.00    -0.164 F 
ENDBRANCH   9  15
BRANCH   1  19
ATOM     19  C   LIG    1       26.212 -15.543   3.019  0.00  0.00    +0.162 C 
BRANCH  19  20
ATOM     20  C   LIG    1       26.125 -13.978   3.093  0.00  0.00    +0.087 C 
ATOM     21  N   LIG    1       25.705 -13.528   4.450  0.00  0.00    -0.311 NA
ATOM     22  H   LIG    1       25.436 -12.542   4.382  0.00  0.00    +0.122 HD
ATOM     23  C   LIG    1       26.783 -13.625   5.443  0.00  0.00    +0.081 C 
ATOM     24  C   LIG    1       28.036 -12.865   5.020  0.00  0.00    +0.015 C 
ATOM     25  C   LIG    1       28.524 -13.317   3.650  0.00  0.00    +0.003 C 
ATOM     26  C   LIG    1       27.395 -13.251   2.627  0.00  0.00    +0.021 C 
ENDBRANCH  19  20
BRANCH  19  27
ATOM     27  O   LIG    1       27.424 -15.954   3.669  0.00  0.00    -0.386 OA
ATOM     28  H   LIG    1       27.135 -16.651   4.293  0.00  0.00    +0.210 HD
ENDBRANCH  19  27
ENDBRANCH   1  19
TORSDOF 5
ENDMDL
MODEL 5
REMARK VINA RESULT:       2.6      3.037      4.641
REMARK  Name = *****
REMARK                            x       y       z     vdW  Elec       q    Type
REMARK                         _______ _______ _______ _____ _____    ______ ____
ROOT
ATOM      1  C   LIG    1       25.318 -16.498   3.842  0.00  0.00    -0.006 A 
ATOM      2  C   LIG    1       24.287 -15.715   4.434  0.00  0.00    +0.007 A 
ATOM      3  C   LIG    1       23.113 -16.262   5.005  0.00  0.00    +0.010 A 
ATOM      4  C   LIG    1       22.124 -15.460   5.563  0.00  0.00    +0.001 A 
ATOM      5  C   LIG    1       22.286 -14.086   5.555  0.00  0.00    +0.014 A 
ATOM      6  C   LIG    1       23.448 -13.504   5.009  0.00  0.00    +0.081 A 
ATOM      7  C   LIG    1       24.456 -14.302   4.466  0.00  0.00    +0.084 A 
ATOM      8  N   LIG    1       25.566 -13.721   3.988  0.00  0.00    -0.242 NA
ATOM      9  C   LIG    1       26.583 -14.468   3.487  0.00  0.00    +0.145 A 
ATOM     10  C   LIG    1       26.485 -15.850   3.407  0.00  0.00    +0.039 A 
ENDROOT
BRANCH   6  11
ATOM     11  C   LIG    1       23.543 -11.999   5.044  0.00  0.00    +0.419 C 
ATOM     12  F   LIG    1       22.509 -11.447   5.748  0.00  0.00    -0.166 F 
ATOM     13  F   LIG    1       23.433 -11.468   3.788  0.00  0.00    -0.166 F 
ATOM     14  F   LIG    1       24.670 -11.448   5.566  0.00  0.00    -0.166 F 
ENDBRANCH   6  11
BRANCH   9  15
ATOM     15  C   LIG    1       27.834 -13.761   2.982  0.00  0.00    +0.434 C 
ATOM     16  F   LIG    1       28.879 -13.817   3.857  0.00  0.00    -0.164 F 
ATOM     17  F   LIG    1       27.627 -12.436   2.725  0.00  0.00    -0.164 F 
ATOM     18  F   LIG    1       28.313 -14.281   1.812  0.00  0.00    -0.164 F 
ENDBRANCH   9  15
BRANCH   1  19
ATOM     19  C   LIG    1       25.222 -18.006   3.645  0.00  0.00    +0.162 C 
BRANCH  19  20
ATOM     20  C   LIG    1       23.784 -18.540   3.312  0.00  0.00    +0.087 C 
ATOM     21  N   LIG    1       23.850 -19.802   2.521  0.00  0.00    -0.311 NA
ATOM     22  H   LIG    1       22.919 -19.976   2.133  0.00  0.00    +0.122 HD
ATOM     23  C   LIG    1       24.216 -20.968   3.334  0.00  0.00    +0.081 C 
ATOM     24  C   LIG    1       23.284 -21.165   4.526  0.00  0.00    +0.015 C 
ATOM     25  C   LIG    1       23.211 -19.910   5.386  0.00  0.00    +0.003 C 
ATOM     26  C   LIG    1       22.867 -18.692   4.535  0.00  0.00    +0.021 C 
ENDBRANCH  19  20
BRANCH  19  27
ATOM     27  O   LIG    1       26.090 -18.352   2.557  0.00  0.00    -0.386 OA
ATOM     28  H   LIG    1       26.322 -17.490   2.153  0.00  0.00    +0.210 HD
ENDBRANCH  19  27
ENDBRANCH   1  19
TORSDOF 5
ENDMDL
