MODEL 1
REMARK VINA RESULT:       0.1      0.000      0.000
REMARK  Name = *****
REMARK                            x       y       z     vdW  Elec       q    Type
REMARK                         _______ _______ _______ _____ _____    ______ ____
ROOT
ATOM      1  C   LIG    1       24.945 -32.677  12.573  0.00  0.00    +0.060 C 
ATOM      2  C   LIG    1       25.862 -31.450  12.333  0.00  0.00    +0.169 C 
ATOM      3  N   LIG    1       25.816 -30.726  13.614  0.00  0.00    -0.284 N 
ATOM      4  C   LIG    1       26.854 -30.008  14.200  0.00  0.00    +0.237 C 
ATOM      5  C   LIG    1       27.839 -29.188  13.319  0.00  0.00    +0.168 C 
ATOM      6  N   LIG    1       27.635 -27.816  13.787  0.00  0.00    -0.269 N 
ATOM      7  H   LIG    1       27.685 -27.655  14.787  0.00  0.00    +0.153 HD
ATOM      8  C   LIG    1       26.823 -26.945  13.145  0.00  0.00    +0.401 C 
ATOM      9  O   LIG    1       26.539 -25.899  13.948  0.00  0.00    -0.447 OA
ATOM     10  C   LIG    1       25.540 -24.960  13.507  0.00  0.00    +0.182 C 
ATOM     11  C   LIG    1       24.532 -24.593  14.564  0.00  0.00    +0.033 C 
ATOM     12  C   LIG    1       23.097 -24.337  14.215  0.00  0.00    +0.007 C 
ATOM     13  C   LIG    1       22.222 -25.566  14.476  0.00  0.00    +0.001 C 
ATOM     14  C   LIG    1       22.090 -26.446  13.234  0.00  0.00    +0.006 C 
ATOM     15  C   LIG    1       21.287 -27.723  13.487  0.00  0.00    +0.082 C 
ATOM     16  C   LIG    1       22.072 -28.824  14.215  0.00  0.00    +0.295 C 
ATOM     17  C   LIG    1       21.269 -30.105  14.165  0.00  0.00    +0.171 A 
ATOM     18  C   LIG    1       21.730 -31.256  13.535  0.00  0.00    +0.244 A 
ATOM     19  O   LIG    1       22.953 -31.293  12.907  0.00  0.00    -0.470 OA
ATOM     20  N   LIG    1       20.918 -32.310  13.279  0.00  0.00    -0.209 NA
ATOM     21  C   LIG    1       19.612 -32.178  13.629  0.00  0.00    +0.097 A 
ATOM     22  C   LIG    1       19.162 -31.038  14.337  0.00  0.00    +0.090 A 
ATOM     23  C   LIG    1       17.821 -30.893  14.653  0.00  0.00    +0.033 A 
ATOM     24  C   LIG    1       16.889 -31.838  14.243  0.00  0.00    +0.048 A 
ATOM     25  C   LIG    1       17.309 -32.967  13.549  0.00  0.00    +0.122 A 
ATOM     26  C   LIG    1       18.666 -33.131  13.250  0.00  0.00    +0.075 A 
ATOM     27  N   LIG    1       19.995 -30.039  14.651  0.00  0.00    -0.239 NA
ATOM     28  F   LIG    1       22.313 -28.429  15.500  0.00  0.00    -0.198 F 
ATOM     29  F   LIG    1       23.302 -28.915  13.633  0.00  0.00    -0.198 F 
ATOM     30  C   LIG    1       25.594 -23.607  14.163  0.00  0.00    +0.052 C 
ATOM     31  O   LIG    1       26.377 -27.098  11.995  0.00  0.00    -0.227 OA
ATOM     32  O   LIG    1       26.912 -29.905  15.433  0.00  0.00    -0.274 OA
ATOM     33  C   LIG    1       24.810 -31.323  14.496  0.00  0.00    +0.153 C 
ATOM     34  C   LIG    1       23.894 -32.146  13.575  0.00  0.00    +0.198 C 
ENDROOT
BRANCH   2  35
ATOM     35  C   LIG    1       25.614 -30.630  11.037  0.00  0.00    +0.235 C 
ATOM     36  N   LIG    1       25.655 -31.281   9.820  0.00  0.00    -0.299 N 
ATOM     37  H   LIG    1       25.670 -32.303   9.827  0.00  0.00    +0.150 HD
ATOM     38  O   LIG    1       25.417 -29.417  11.145  0.00  0.00    -0.274 OA
BRANCH  36  39
ATOM     39  C   LIG    1       25.466 -30.661   8.494  0.00  0.00    +0.121 C 
ATOM     40  C   LIG    1       25.399 -31.627   7.299  0.00  0.00    +0.090 C 
ATOM     41  C   LIG    1       24.166 -30.872   7.728  0.00  0.00    +0.047 C 
BRANCH  39  42
ATOM     42  C   LIG    1       26.206 -29.325   8.340  0.00  0.00    +0.256 C 
ATOM     43  N   LIG    1       25.730 -28.420   7.365  0.00  0.00    -0.188 N 
ATOM     44  H   LIG    1       24.752 -28.475   7.089  0.00  0.00    +0.176 HD
ATOM     45  O   LIG    1       27.140 -29.092   9.085  0.00  0.00    -0.272 OA
BRANCH  43  46
ATOM     46  S   LIG    1       26.317 -26.864   7.147  0.00  0.00    +0.051 S 
ATOM     47  O   LIG    1       27.639 -26.912   6.568  0.00  0.00    -0.155 OA
ATOM     48  O   LIG    1       26.113 -26.224   8.433  0.00  0.00    -0.155 OA
BRANCH  46  49
ATOM     49  C   LIG    1       25.263 -25.984   5.945  0.00  0.00    +0.104 C 
ATOM     50  C   LIG    1       23.945 -25.450   6.452  0.00  0.00    +0.033 C 
ATOM     51  C   LIG    1       25.105 -24.509   6.249  0.00  0.00    +0.033 C 
ATOM     52  C   LIG    1       25.419 -26.455   4.547  0.00  0.00    +0.037 C 
ENDBRANCH  46  49
ENDBRANCH  43  46
ENDBRANCH  39  42
BRANCH  40  53
ATOM     53  C   LIG    1       25.884 -31.429   5.919  0.00  0.00    +0.347 C 
ATOM     54  F   LIG    1       26.965 -32.214   5.692  0.00  0.00    -0.209 F 
ATOM     55  F   LIG    1       24.911 -31.862   5.072  0.00  0.00    -0.209 F 
ENDBRANCH  40  53
ENDBRANCH  36  39
ENDBRANCH   2  35
BRANCH   5  56
ATOM     56  C   LIG    1       29.346 -29.580  13.409  0.00  0.00    -0.011 C 
ATOM     57  C   LIG    1       30.126 -28.541  14.232  0.00  0.00    +0.013 C 
ATOM     58  C   LIG    1       30.026 -29.726  12.033  0.00  0.00    +0.013 C 
ATOM     59  C   LIG    1       29.466 -30.941  14.142  0.00  0.00    +0.013 C 
ENDBRANCH   5  56
BRANCH   1  61
ATOM     60  C   LIG    1       22.945 -33.087  11.078  0.00  0.00    +0.004 C 
ATOM     61  C   LIG    1       24.409 -33.418  11.346  0.00  0.00    +0.006 C 
ENDBRANCH   1  61
BRANCH  25  62
ATOM     62  O   LIG    1       16.300 -33.806  13.172  0.00  0.00    -0.495 OA
ATOM     63  C   LIG    1       15.991 -33.824  11.785  0.00  0.00    +0.277 C 
ENDBRANCH  25  62
TORSDOF 9
ENDMDL
