MODEL 1
REMARK VINA RESULT:      -7.3      0.000      0.000
REMARK  Name = *****
REMARK                            x       y       z     vdW  Elec       q    Type
REMARK                         _______ _______ _______ _____ _____    ______ ____
ROOT
ATOM      1  C   LIG    1       22.756 -30.366  10.677  0.00  0.00    +0.237 C 
ATOM      2  N   LIG    1       24.020 -30.197  11.244  0.00  0.00    -0.288 N 
ATOM      3  C   LIG    1       25.037 -29.390  10.529  0.00  0.00    +0.166 C 
ATOM      4  C   LIG    1       26.217 -29.348  11.514  0.00  0.00    +0.029 C 
ATOM      5  C   LIG    1       26.308 -28.530  12.821  0.00  0.00    -0.025 C 
ATOM      6  C   LIG    1       27.635 -28.429  13.536  0.00  0.00    +0.011 C 
ATOM      7  C   LIG    1       25.415 -27.339  13.061  0.00  0.00    +0.011 C 
ATOM      8  C   LIG    1       25.718 -29.907  12.807  0.00  0.00    +0.018 C 
ATOM      9  C   LIG    1       24.269 -30.170  12.672  0.00  0.00    +0.113 C 
ATOM     10  O   LIG    1       22.591 -30.245   9.464  0.00  0.00    -0.274 OA
ENDROOT
BRANCH   3  11
ATOM     11  C   LIG    1       25.459 -29.968   9.150  0.00  0.00    +0.234 C 
ATOM     12  N   LIG    1       24.940 -29.290   8.067  0.00  0.00    -0.304 N 
ATOM     13  H   LIG    1       24.382 -28.469   8.283  0.00  0.00    +0.149 HD
ATOM     14  O   LIG    1       26.082 -31.020   9.036  0.00  0.00    -0.274 OA
BRANCH  12  15
ATOM     15  C   LIG    1       25.281 -29.588   6.675  0.00  0.00    +0.149 C 
BRANCH  15  16
ATOM     16  C   LIG    1       24.513 -30.819   6.209  0.00  0.00    +0.237 C 
ATOM     17  O   LIG    1       23.289 -30.904   6.151  0.00  0.00    -0.285 OA
BRANCH  16  18
ATOM     18  C   LIG    1       25.351 -32.053   5.911  0.00  0.00    +0.279 C 
ATOM     19  O   LIG    1       24.825 -33.091   5.510  0.00  0.00    -0.267 OA
ATOM     20  N   LIG    1       26.680 -31.948   6.199  0.00  0.00    -0.323 N 
ATOM     21  H   LIG    1       27.281 -32.742   6.027  0.00  0.00    +0.145 HD
ATOM     22  H   LIG    1       27.095 -31.071   6.498  0.00  0.00    +0.145 HD
ENDBRANCH  16  18
ENDBRANCH  15  16
BRANCH  15  23
ATOM     23  C   LIG    1       24.970 -28.391   5.756  0.00  0.00    +0.034 C 
BRANCH  23  24
ATOM     24  C   LIG    1       25.153 -27.069   6.489  0.00  0.00    -0.009 C 
ATOM     25  C   LIG    1       26.328 -26.142   6.108  0.00  0.00    +0.004 C 
ATOM     26  C   LIG    1       25.386 -24.956   6.416  0.00  0.00    +0.000 C 
ATOM     27  C   LIG    1       24.210 -25.903   6.099  0.00  0.00    +0.004 C 
ENDBRANCH  23  24
ENDBRANCH  15  23
ENDBRANCH  12  15
ENDBRANCH   3  11
BRANCH   1  28
ATOM     28  C   LIG    1       21.554 -30.784  11.571  0.00  0.00    +0.166 C 
BRANCH  28  32
ATOM     29  N   LIG    1       19.712 -27.989  13.260  0.00  0.00    -0.295 N 
ATOM     30  H   LIG    1       19.473 -27.614  12.365  0.00  0.00    +0.151 HD
ATOM     31  C   LIG    1       20.510 -29.112  13.220  0.00  0.00    +0.301 C 
ATOM     32  N   LIG    1       20.733 -29.573  11.931  0.00  0.00    -0.288 N 
ATOM     33  H   LIG    1       20.519 -28.939  11.176  0.00  0.00    +0.151 HD
ATOM     34  O   LIG    1       20.951 -29.700  14.226  0.00  0.00    -0.253 OA
BRANCH  29  36
ATOM     35  C   LIG    1       18.296 -26.049  13.874  0.00  0.00    +0.031 C 
ATOM     36  C   LIG    1       19.178 -27.200  14.427  0.00  0.00    +0.028 C 
ATOM     37  C   LIG    1       18.295 -28.034  15.373  0.00  0.00    +0.031 C 
ATOM     38  C   LIG    1       20.277 -26.579  15.308  0.00  0.00    +0.031 C 
ENDBRANCH  29  36
ENDBRANCH  28  32
BRANCH  28  39
ATOM     39  C   LIG    1       20.661 -31.937  10.936  0.00  0.00    -0.011 C 
ATOM     40  C   LIG    1       21.436 -32.835   9.953  0.00  0.00    +0.013 C 
ATOM     41  C   LIG    1       19.425 -31.419  10.173  0.00  0.00    +0.013 C 
ATOM     42  C   LIG    1       20.180 -32.886  12.053  0.00  0.00    +0.013 C 
ENDBRANCH  28  39
ENDBRANCH   1  28
TORSDOF 10
ENDMDL
MODEL 2
REMARK VINA RESULT:      -6.0      2.610      7.529
REMARK  Name = *****
REMARK                            x       y       z     vdW  Elec       q    Type
REMARK                         _______ _______ _______ _____ _____    ______ ____
ROOT
ATOM      1  C   LIG    1       24.801 -31.161   9.802  0.00  0.00    +0.237 C 
ATOM      2  N   LIG    1       23.718 -31.823  10.381  0.00  0.00    -0.288 N 
ATOM      3  C   LIG    1       23.188 -31.353  11.684  0.00  0.00    +0.166 C 
ATOM      4  C   LIG    1       21.958 -32.246  11.912  0.00  0.00    +0.029 C 
ATOM      5  C   LIG    1       20.597 -32.158  11.187  0.00  0.00    -0.025 C 
ATOM      6  C   LIG    1       19.430 -32.962  11.710  0.00  0.00    +0.011 C 
ATOM      7  C   LIG    1       20.175 -30.901  10.470  0.00  0.00    +0.011 C 
ATOM      8  C   LIG    1       21.718 -32.984  10.635  0.00  0.00    +0.018 C 
ATOM      9  C   LIG    1       22.674 -32.485   9.623  0.00  0.00    +0.113 C 
ATOM     10  O   LIG    1       25.578 -30.504  10.493  0.00  0.00    -0.274 OA
ENDROOT
BRANCH   3  11
ATOM     11  C   LIG    1       24.198 -31.453  12.859  0.00  0.00    +0.234 C 
ATOM     12  N   LIG    1       24.742 -30.246  13.246  0.00  0.00    -0.304 N 
ATOM     13  H   LIG    1       24.395 -29.426  12.758  0.00  0.00    +0.149 HD
ATOM     14  O   LIG    1       24.587 -32.528  13.309  0.00  0.00    -0.274 OA
BRANCH  12  15
ATOM     15  C   LIG    1       25.635 -30.081  14.394  0.00  0.00    +0.149 C 
BRANCH  15  16
ATOM     16  C   LIG    1       27.078 -30.317  13.963  0.00  0.00    +0.237 C 
ATOM     17  O   LIG    1       27.724 -31.333  14.202  0.00  0.00    -0.285 OA
BRANCH  16  18
ATOM     18  C   LIG    1       27.773 -29.143  13.292  0.00  0.00    +0.279 C 
ATOM     19  O   LIG    1       27.364 -28.695  12.222  0.00  0.00    -0.267 OA
ATOM     20  N   LIG    1       28.905 -28.697  13.909  0.00  0.00    -0.323 N 
ATOM     21  H   LIG    1       29.411 -27.923  13.499  0.00  0.00    +0.145 HD
ATOM     22  H   LIG    1       29.204 -29.061  14.807  0.00  0.00    +0.145 HD
ENDBRANCH  16  18
ENDBRANCH  15  16
BRANCH  15  23
ATOM     23  C   LIG    1       25.492 -28.678  15.015  0.00  0.00    +0.034 C 
BRANCH  23  24
ATOM     24  C   LIG    1       24.437 -27.856  14.286  0.00  0.00    -0.009 C 
ATOM     25  C   LIG    1       23.499 -26.931  15.092  0.00  0.00    +0.004 C 
ATOM     26  C   LIG    1       23.547 -25.966  13.886  0.00  0.00    +0.000 C 
ATOM     27  C   LIG    1       24.917 -26.586  13.538  0.00  0.00    +0.004 C 
ENDBRANCH  23  24
ENDBRANCH  15  23
ENDBRANCH  12  15
ENDBRANCH   3  11
BRANCH   1  28
ATOM     28  C   LIG    1       25.076 -31.308   8.278  0.00  0.00    +0.166 C 
BRANCH  28  32
ATOM     29  N   LIG    1       25.845 -28.000   6.691  0.00  0.00    -0.295 N 
ATOM     30  H   LIG    1       26.792 -28.079   7.000  0.00  0.00    +0.151 HD
ATOM     31  C   LIG    1       25.022 -29.034   7.085  0.00  0.00    +0.301 C 
ATOM     32  N   LIG    1       25.702 -30.048   7.742  0.00  0.00    -0.288 N 
ATOM     33  H   LIG    1       26.629 -29.834   8.078  0.00  0.00    +0.151 HD
ATOM     34  O   LIG    1       23.803 -29.097   6.838  0.00  0.00    -0.253 OA
BRANCH  29  36
ATOM     35  C   LIG    1       25.969 -26.974   4.437  0.00  0.00    +0.031 C 
ATOM     36  C   LIG    1       25.547 -26.744   5.914  0.00  0.00    +0.028 C 
ATOM     37  C   LIG    1       24.054 -26.372   5.906  0.00  0.00    +0.031 C 
ATOM     38  C   LIG    1       26.293 -25.503   6.436  0.00  0.00    +0.031 C 
ENDBRANCH  29  36
ENDBRANCH  28  32
BRANCH  28  39
ATOM     39  C   LIG    1       25.931 -32.598   7.909  0.00  0.00    -0.011 C 
ATOM     40  C   LIG    1       25.080 -33.751   7.342  0.00  0.00    +0.013 C 
ATOM     41  C   LIG    1       26.722 -33.181   9.098  0.00  0.00    +0.013 C 
ATOM     42  C   LIG    1       26.930 -32.246   6.788  0.00  0.00    +0.013 C 
ENDBRANCH  28  39
ENDBRANCH   1  28
TORSDOF 10
ENDMDL
MODEL 3
REMARK VINA RESULT:      -5.9      2.045      7.556
REMARK  Name = *****
REMARK                            x       y       z     vdW  Elec       q    Type
REMARK                         _______ _______ _______ _____ _____    ______ ____
ROOT
ATOM      1  C   LIG    1       23.092 -30.851   9.734  0.00  0.00    +0.237 C 
ATOM      2  N   LIG    1       23.540 -30.107  10.825  0.00  0.00    -0.288 N 
ATOM      3  C   LIG    1       22.949 -30.348  12.164  0.00  0.00    +0.166 C 
ATOM      4  C   LIG    1       23.775 -29.439  13.088  0.00  0.00    +0.029 C 
ATOM      5  C   LIG    1       25.230 -29.664  13.555  0.00  0.00    -0.025 C 
ATOM      6  C   LIG    1       25.796 -28.791  14.650  0.00  0.00    +0.011 C 
ATOM      7  C   LIG    1       25.865 -31.030  13.501  0.00  0.00    +0.011 C 
ATOM      8  C   LIG    1       24.927 -28.937  12.280  0.00  0.00    +0.018 C 
ATOM      9  C   LIG    1       24.891 -29.596  10.957  0.00  0.00    +0.113 C 
ATOM     10  O   LIG    1       21.976 -31.370   9.743  0.00  0.00    -0.274 OA
ENDROOT
BRANCH   3  11
ATOM     11  C   LIG    1       21.430 -30.036  12.257  0.00  0.00    +0.234 C 
ATOM     12  N   LIG    1       20.630 -31.148  12.412  0.00  0.00    -0.304 N 
ATOM     13  H   LIG    1       21.115 -32.037  12.493  0.00  0.00    +0.149 HD
ATOM     14  O   LIG    1       20.972 -28.912  12.066  0.00  0.00    -0.274 OA
BRANCH  12  15
ATOM     15  C   LIG    1       19.182 -31.092  12.626  0.00  0.00    +0.149 C 
BRANCH  15  16
ATOM     16  C   LIG    1       18.492 -32.136  11.755  0.00  0.00    +0.237 C 
ATOM     17  O   LIG    1       17.974 -33.167  12.174  0.00  0.00    -0.285 OA
BRANCH  16  18
ATOM     18  C   LIG    1       18.572 -31.909  10.254  0.00  0.00    +0.279 C 
ATOM     19  O   LIG    1       18.850 -32.833   9.490  0.00  0.00    -0.267 OA
ATOM     20  N   LIG    1       18.402 -30.620   9.842  0.00  0.00    -0.323 N 
ATOM     21  H   LIG    1       18.453 -30.413   8.854  0.00  0.00    +0.145 HD
ATOM     22  H   LIG    1       18.141 -29.882  10.487  0.00  0.00    +0.145 HD
ENDBRANCH  16  18
ENDBRANCH  15  16
BRANCH  15  23
ATOM     23  C   LIG    1       18.828 -31.321  14.107  0.00  0.00    +0.034 C 
BRANCH  23  24
ATOM     24  C   LIG    1       17.979 -30.181  14.655  0.00  0.00    -0.009 C 
ATOM     25  C   LIG    1       18.439 -28.721  14.451  0.00  0.00    +0.004 C 
ATOM     26  C   LIG    1       16.944 -28.352  14.326  0.00  0.00    +0.000 C 
ATOM     27  C   LIG    1       16.699 -29.805  13.866  0.00  0.00    +0.004 C 
ENDBRANCH  23  24
ENDBRANCH  15  23
ENDBRANCH  12  15
ENDBRANCH   3  11
BRANCH   1  28
ATOM     28  C   LIG    1       23.976 -30.969   8.459  0.00  0.00    +0.166 C 
BRANCH  28  32
ATOM     29  N   LIG    1       25.207 -27.736   7.014  0.00  0.00    -0.295 N 
ATOM     30  H   LIG    1       25.706 -27.556   7.861  0.00  0.00    +0.151 HD
ATOM     31  C   LIG    1       24.462 -28.896   7.021  0.00  0.00    +0.301 C 
ATOM     32  N   LIG    1       24.644 -29.651   8.171  0.00  0.00    -0.288 N 
ATOM     33  H   LIG    1       25.076 -29.189   8.956  0.00  0.00    +0.151 HD
ATOM     34  O   LIG    1       23.738 -29.274   6.081  0.00  0.00    -0.253 OA
BRANCH  29  36
ATOM     35  C   LIG    1       26.243 -25.533   6.546  0.00  0.00    +0.031 C 
ATOM     36  C   LIG    1       25.358 -26.668   5.963  0.00  0.00    +0.028 C 
ATOM     37  C   LIG    1       26.047 -27.167   4.680  0.00  0.00    +0.031 C 
ATOM     38  C   LIG    1       24.021 -26.049   5.514  0.00  0.00    +0.031 C 
ENDBRANCH  29  36
ENDBRANCH  28  32
BRANCH  28  39
ATOM     39  C   LIG    1       25.025 -32.163   8.522  0.00  0.00    -0.011 C 
ATOM     40  C   LIG    1       24.925 -33.125   7.322  0.00  0.00    +0.013 C 
ATOM     41  C   LIG    1       24.902 -33.033   9.790  0.00  0.00    +0.013 C 
ATOM     42  C   LIG    1       26.456 -31.591   8.462  0.00  0.00    +0.013 C 
ENDBRANCH  28  39
ENDBRANCH   1  28
TORSDOF 10
ENDMDL
MODEL 4
REMARK VINA RESULT:      -5.8      2.018      8.190
REMARK  Name = *****
REMARK                            x       y       z     vdW  Elec       q    Type
REMARK                         _______ _______ _______ _____ _____    ______ ____
ROOT
ATOM      1  C   LIG    1       22.827 -30.415  10.761  0.00  0.00    +0.237 C 
ATOM      2  N   LIG    1       21.687 -31.122  11.141  0.00  0.00    -0.288 N 
ATOM      3  C   LIG    1       20.638 -30.441  11.939  0.00  0.00    +0.166 C 
ATOM      4  C   LIG    1       19.527 -31.497  12.044  0.00  0.00    +0.029 C 
ATOM      5  C   LIG    1       18.559 -31.944  10.927  0.00  0.00    -0.025 C 
ATOM      6  C   LIG    1       17.380 -32.820  11.279  0.00  0.00    +0.011 C 
ATOM      7  C   LIG    1       18.313 -31.081   9.716  0.00  0.00    +0.011 C 
ATOM      8  C   LIG    1       19.893 -32.602  11.109  0.00  0.00    +0.018 C 
ATOM      9  C   LIG    1       21.106 -32.200  10.365  0.00  0.00    +0.113 C 
ATOM     10  O   LIG    1       23.191 -29.424  11.393  0.00  0.00    -0.274 OA
ENDROOT
BRANCH   3  11
ATOM     11  C   LIG    1       21.110 -29.960  13.338  0.00  0.00    +0.234 C 
ATOM     12  N   LIG    1       21.252 -28.592  13.451  0.00  0.00    -0.304 N 
ATOM     13  H   LIG    1       20.992 -28.050  12.633  0.00  0.00    +0.149 HD
ATOM     14  O   LIG    1       21.465 -30.737  14.221  0.00  0.00    -0.274 OA
BRANCH  12  15
ATOM     15  C   LIG    1       21.584 -27.905  14.700  0.00  0.00    +0.149 C 
BRANCH  15  16
ATOM     16  C   LIG    1       22.964 -27.268  14.586  0.00  0.00    +0.237 C 
ATOM     17  O   LIG    1       23.187 -26.062  14.629  0.00  0.00    -0.285 OA
BRANCH  16  18
ATOM     18  C   LIG    1       24.112 -28.218  14.283  0.00  0.00    +0.279 C 
ATOM     19  O   LIG    1       24.265 -29.252  14.933  0.00  0.00    -0.267 OA
ATOM     20  N   LIG    1       24.983 -27.802  13.319  0.00  0.00    -0.323 N 
ATOM     21  H   LIG    1       25.769 -28.393  13.084  0.00  0.00    +0.145 HD
ATOM     22  H   LIG    1       24.818 -26.962  12.775  0.00  0.00    +0.145 HD
ENDBRANCH  16  18
ENDBRANCH  15  16
BRANCH  15  23
ATOM     23  C   LIG    1       20.534 -26.830  15.042  0.00  0.00    +0.034 C 
BRANCH  23  24
ATOM     24  C   LIG    1       19.175 -27.176  14.446  0.00  0.00    -0.009 C 
ATOM     25  C   LIG    1       17.977 -27.444  15.382  0.00  0.00    +0.004 C 
ATOM     26  C   LIG    1       17.089 -26.785  14.302  0.00  0.00    +0.000 C 
ATOM     27  C   LIG    1       18.345 -26.012  13.846  0.00  0.00    +0.004 C 
ENDBRANCH  23  24
ENDBRANCH  15  23
ENDBRANCH  12  15
ENDBRANCH   3  11
BRANCH   1  28
ATOM     28  C   LIG    1       23.693 -30.920   9.572  0.00  0.00    +0.166 C 
BRANCH  28  32
ATOM     29  N   LIG    1       25.125 -28.275   7.334  0.00  0.00    -0.295 N 
ATOM     30  H   LIG    1       25.628 -27.899   8.111  0.00  0.00    +0.151 HD
ATOM     31  C   LIG    1       24.313 -29.347   7.637  0.00  0.00    +0.301 C 
ATOM     32  N   LIG    1       24.441 -29.769   8.952  0.00  0.00    -0.288 N 
ATOM     33  H   LIG    1       24.894 -29.135   9.593  0.00  0.00    +0.151 HD
ATOM     34  O   LIG    1       23.575 -29.926   6.818  0.00  0.00    -0.253 OA
BRANCH  29  36
ATOM     35  C   LIG    1       24.178 -26.542   5.835  0.00  0.00    +0.031 C 
ATOM     36  C   LIG    1       25.348 -27.543   6.036  0.00  0.00    +0.028 C 
ATOM     37  C   LIG    1       26.653 -26.728   6.012  0.00  0.00    +0.031 C 
ATOM     38  C   LIG    1       25.401 -28.468   4.806  0.00  0.00    +0.031 C 
ENDBRANCH  29  36
ENDBRANCH  28  32
BRANCH  28  39
ATOM     39  C   LIG    1       24.666 -32.118   9.958  0.00  0.00    -0.011 C 
ATOM     40  C   LIG    1       24.589 -32.507  11.448  0.00  0.00    +0.013 C 
ATOM     41  C   LIG    1       26.151 -31.837   9.655  0.00  0.00    +0.013 C 
ATOM     42  C   LIG    1       24.245 -33.387   9.189  0.00  0.00    +0.013 C 
ENDBRANCH  28  39
ENDBRANCH   1  28
TORSDOF 10
ENDMDL
MODEL 5
REMARK VINA RESULT:      -5.8      1.807      7.350
REMARK  Name = *****
REMARK                            x       y       z     vdW  Elec       q    Type
REMARK                         _______ _______ _______ _____ _____    ______ ____
ROOT
ATOM      1  C   LIG    1       24.529 -31.217   9.621  0.00  0.00    +0.237 C 
ATOM      2  N   LIG    1       24.896 -30.205  10.509  0.00  0.00    -0.288 N 
ATOM      3  C   LIG    1       24.851 -30.464  11.968  0.00  0.00    +0.166 C 
ATOM      4  C   LIG    1       25.430 -29.178  12.578  0.00  0.00    +0.029 C 
ATOM      5  C   LIG    1       26.908 -28.732  12.578  0.00  0.00    -0.025 C 
ATOM      6  C   LIG    1       27.324 -27.556  13.431  0.00  0.00    +0.011 C 
ATOM      7  C   LIG    1       28.022 -29.722  12.355  0.00  0.00    +0.011 C 
ATOM      8  C   LIG    1       25.992 -28.380  11.446  0.00  0.00    +0.018 C 
ATOM      9  C   LIG    1       25.882 -29.185  10.210  0.00  0.00    +0.113 C 
ATOM     10  O   LIG    1       23.789 -32.132   9.982  0.00  0.00    -0.274 OA
ENDROOT
BRANCH   3  11
ATOM     11  C   LIG    1       23.432 -30.775  12.519  0.00  0.00    +0.234 C 
ATOM     12  N   LIG    1       22.426 -30.019  11.956  0.00  0.00    -0.304 N 
ATOM     13  H   LIG    1       22.709 -29.380  11.219  0.00  0.00    +0.149 HD
ATOM     14  O   LIG    1       23.242 -31.526  13.473  0.00  0.00    -0.274 OA
BRANCH  12  15
ATOM     15  C   LIG    1       21.003 -30.208  12.242  0.00  0.00    +0.149 C 
BRANCH  15  16
ATOM     16  C   LIG    1       20.523 -29.130  13.206  0.00  0.00    +0.237 C 
ATOM     17  O   LIG    1       19.742 -29.316  14.136  0.00  0.00    -0.285 OA
BRANCH  16  18
ATOM     18  C   LIG    1       20.973 -27.711  12.896  0.00  0.00    +0.279 C 
ATOM     19  O   LIG    1       22.165 -27.406  12.927  0.00  0.00    -0.267 OA
ATOM     20  N   LIG    1       19.973 -26.810  12.674  0.00  0.00    -0.323 N 
ATOM     21  H   LIG    1       20.218 -25.850  12.471  0.00  0.00    +0.145 HD
ATOM     22  H   LIG    1       19.001 -27.093  12.622  0.00  0.00    +0.145 HD
ENDBRANCH  16  18
ENDBRANCH  15  16
BRANCH  15  23
ATOM     23  C   LIG    1       20.164 -30.172  10.949  0.00  0.00    +0.034 C 
BRANCH  23  24
ATOM     24  C   LIG    1       19.224 -31.367  10.867  0.00  0.00    -0.009 C 
ATOM     25  C   LIG    1       18.092 -31.376   9.818  0.00  0.00    +0.004 C 
ATOM     26  C   LIG    1       18.315 -32.901   9.707  0.00  0.00    +0.000 C 
ATOM     27  C   LIG    1       19.762 -32.649  10.182  0.00  0.00    +0.004 C 
ENDBRANCH  23  24
ENDBRANCH  15  23
ENDBRANCH  12  15
ENDBRANCH   3  11
BRANCH   1  28
ATOM     28  C   LIG    1       24.996 -31.157   8.139  0.00  0.00    +0.166 C 
BRANCH  28  32
ATOM     29  N   LIG    1       25.659 -27.704   6.837  0.00  0.00    -0.295 N 
ATOM     30  H   LIG    1       26.440 -27.628   7.455  0.00  0.00    +0.151 HD
ATOM     31  C   LIG    1       24.950 -28.881   6.947  0.00  0.00    +0.301 C 
ATOM     32  N   LIG    1       25.532 -29.786   7.822  0.00  0.00    -0.288 N 
ATOM     33  H   LIG    1       26.234 -29.425   8.451  0.00  0.00    +0.151 HD
ATOM     34  O   LIG    1       23.922 -29.148   6.296  0.00  0.00    -0.253 OA
BRANCH  29  36
ATOM     35  C   LIG    1       25.878 -26.827   4.528  0.00  0.00    +0.031 C 
ATOM     36  C   LIG    1       25.427 -26.490   5.975  0.00  0.00    +0.028 C 
ATOM     37  C   LIG    1       23.948 -26.068   5.902  0.00  0.00    +0.031 C 
ATOM     38  C   LIG    1       26.203 -25.245   6.440  0.00  0.00    +0.031 C 
ENDBRANCH  29  36
ENDBRANCH  28  32
BRANCH  28  39
ATOM     39  C   LIG    1       26.032 -32.301   7.752  0.00  0.00    -0.011 C 
ATOM     40  C   LIG    1       26.735 -32.055   6.404  0.00  0.00    +0.013 C 
ATOM     41  C   LIG    1       25.403 -33.707   7.668  0.00  0.00    +0.013 C 
ATOM     42  C   LIG    1       27.166 -32.339   8.797  0.00  0.00    +0.013 C 
ENDBRANCH  28  39
ENDBRANCH   1  28
TORSDOF 10
ENDMDL
MODEL 6
REMARK VINA RESULT:      -5.7      3.680      6.715
REMARK  Name = *****
REMARK                            x       y       z     vdW  Elec       q    Type
REMARK                         _______ _______ _______ _____ _____    ______ ____
ROOT
ATOM      1  C   LIG    1       26.525 -28.887  10.889  0.00  0.00    +0.237 C 
ATOM      2  N   LIG    1       25.837 -29.883  10.195  0.00  0.00    -0.288 N 
ATOM      3  C   LIG    1       25.986 -29.981   8.723  0.00  0.00    +0.166 C 
ATOM      4  C   LIG    1       25.186 -31.245   8.366  0.00  0.00    +0.029 C 
ATOM      5  C   LIG    1       25.597 -32.710   8.628  0.00  0.00    -0.025 C 
ATOM      6  C   LIG    1       24.797 -33.825   7.996  0.00  0.00    +0.011 C 
ATOM      7  C   LIG    1       27.036 -33.084   8.879  0.00  0.00    +0.011 C 
ATOM      8  C   LIG    1       24.848 -31.918   9.656  0.00  0.00    +0.018 C 
ATOM      9  C   LIG    1       25.509 -31.180  10.754  0.00  0.00    +0.113 C 
ATOM     10  O   LIG    1       26.892 -27.862  10.316  0.00  0.00    -0.274 OA
ENDROOT
BRANCH   3  11
ATOM     11  C   LIG    1       25.475 -28.738   7.944  0.00  0.00    +0.234 C 
ATOM     12  N   LIG    1       26.468 -28.001   7.334  0.00  0.00    -0.304 N 
ATOM     13  H   LIG    1       27.411 -28.370   7.419  0.00  0.00    +0.149 HD
ATOM     14  O   LIG    1       24.305 -28.363   7.988  0.00  0.00    -0.274 OA
BRANCH  12  15
ATOM     15  C   LIG    1       26.217 -26.851   6.463  0.00  0.00    +0.149 C 
BRANCH  15  16
ATOM     16  C   LIG    1       25.799 -27.336   5.080  0.00  0.00    +0.237 C 
ATOM     17  O   LIG    1       25.921 -26.689   4.043  0.00  0.00    -0.285 OA
BRANCH  16  18
ATOM     18  C   LIG    1       25.077 -28.673   5.032  0.00  0.00    +0.279 C 
ATOM     19  O   LIG    1       25.707 -29.729   4.981  0.00  0.00    -0.267 OA
ATOM     20  N   LIG    1       23.716 -28.606   4.964  0.00  0.00    -0.323 N 
ATOM     21  H   LIG    1       23.187 -29.467   4.922  0.00  0.00    +0.145 HD
ATOM     22  H   LIG    1       23.219 -27.725   5.040  0.00  0.00    +0.145 HD
ENDBRANCH  16  18
ENDBRANCH  15  16
BRANCH  15  23
ATOM     23  C   LIG    1       25.131 -25.932   7.052  0.00  0.00    +0.034 C 
BRANCH  23  24
ATOM     24  C   LIG    1       25.294 -24.499   6.561  0.00  0.00    -0.009 C 
ATOM     25  C   LIG    1       24.057 -23.579   6.468  0.00  0.00    +0.004 C 
ATOM     26  C   LIG    1       24.992 -22.416   6.870  0.00  0.00    +0.000 C 
ATOM     27  C   LIG    1       25.887 -23.470   7.557  0.00  0.00    +0.004 C 
ENDBRANCH  23  24
ENDBRANCH  15  23
ENDBRANCH  12  15
ENDBRANCH   3  11
BRANCH   1  28
ATOM     28  C   LIG    1       26.770 -29.035  12.418  0.00  0.00    +0.166 C 
BRANCH  28  32
ATOM     29  N   LIG    1       30.318 -28.949  13.624  0.00  0.00    -0.295 N 
ATOM     30  H   LIG    1       30.454 -28.083  13.144  0.00  0.00    +0.151 HD
ATOM     31  C   LIG    1       29.070 -29.510  13.459  0.00  0.00    +0.301 C 
ATOM     32  N   LIG    1       28.201 -28.698  12.746  0.00  0.00    -0.288 N 
ATOM     33  H   LIG    1       28.610 -27.936  12.226  0.00  0.00    +0.151 HD
ATOM     34  O   LIG    1       28.721 -30.604  13.939  0.00  0.00    -0.253 OA
BRANCH  29  36
ATOM     35  C   LIG    1       32.462 -30.165  13.354  0.00  0.00    +0.031 C 
ATOM     36  C   LIG    1       31.532 -29.444  14.367  0.00  0.00    +0.028 C 
ATOM     37  C   LIG    1       32.354 -28.315  15.013  0.00  0.00    +0.031 C 
ATOM     38  C   LIG    1       31.202 -30.433  15.500  0.00  0.00    +0.031 C 
ENDBRANCH  29  36
ENDBRANCH  28  32
BRANCH  28  39
ATOM     39  C   LIG    1       25.747 -28.203  13.308  0.00  0.00    -0.011 C 
ATOM     40  C   LIG    1       25.633 -28.726  14.753  0.00  0.00    +0.013 C 
ATOM     41  C   LIG    1       24.313 -28.170  12.741  0.00  0.00    +0.013 C 
ATOM     42  C   LIG    1       26.249 -26.751  13.444  0.00  0.00    +0.013 C 
ENDBRANCH  28  39
ENDBRANCH   1  28
TORSDOF 10
ENDMDL
MODEL 7
REMARK VINA RESULT:      -5.6      3.058      6.677
REMARK  Name = *****
REMARK                            x       y       z     vdW  Elec       q    Type
REMARK                         _______ _______ _______ _____ _____    ______ ____
ROOT
ATOM      1  C   LIG    1       26.373 -29.487  11.648  0.00  0.00    +0.237 C 
ATOM      2  N   LIG    1       25.223 -30.267  11.770  0.00  0.00    -0.288 N 
ATOM      3  C   LIG    1       24.828 -31.162  10.655  0.00  0.00    +0.166 C 
ATOM      4  C   LIG    1       23.612 -31.916  11.216  0.00  0.00    +0.029 C 
ATOM      5  C   LIG    1       23.622 -33.039  12.276  0.00  0.00    -0.025 C 
ATOM      6  C   LIG    1       22.357 -33.825  12.529  0.00  0.00    +0.011 C 
ATOM      7  C   LIG    1       24.874 -33.825  12.568  0.00  0.00    +0.011 C 
ATOM      8  C   LIG    1       23.542 -31.597  12.674  0.00  0.00    +0.018 C 
ATOM      9  C   LIG    1       24.726 -30.785  13.030  0.00  0.00    +0.113 C 
ATOM     10  O   LIG    1       26.818 -29.192  10.540  0.00  0.00    -0.274 OA
ENDROOT
BRANCH   3  11
ATOM     11  C   LIG    1       24.487 -30.422   9.333  0.00  0.00    +0.234 C 
ATOM     12  N   LIG    1       25.410 -30.604   8.325  0.00  0.00    -0.304 N 
ATOM     13  H   LIG    1       26.181 -31.232   8.537  0.00  0.00    +0.149 HD
ATOM     14  O   LIG    1       23.553 -29.629   9.239  0.00  0.00    -0.274 OA
BRANCH  12  15
ATOM     15  C   LIG    1       25.248 -30.092   6.963  0.00  0.00    +0.149 C 
BRANCH  15  16
ATOM     16  C   LIG    1       24.552 -31.137   6.099  0.00  0.00    +0.237 C 
ATOM     17  O   LIG    1       23.335 -31.278   6.011  0.00  0.00    -0.285 OA
BRANCH  16  18
ATOM     18  C   LIG    1       25.461 -32.136   5.400  0.00  0.00    +0.279 C 
ATOM     19  O   LIG    1       26.367 -32.700   6.012  0.00  0.00    -0.267 OA
ATOM     20  N   LIG    1       25.252 -32.285   4.060  0.00  0.00    -0.323 N 
ATOM     21  H   LIG    1       25.835 -32.932   3.545  0.00  0.00    +0.145 HD
ATOM     22  H   LIG    1       24.478 -31.834   3.585  0.00  0.00    +0.145 HD
ENDBRANCH  16  18
ENDBRANCH  15  16
BRANCH  15  23
ATOM     23  C   LIG    1       24.444 -28.778   6.954  0.00  0.00    +0.034 C 
BRANCH  23  24
ATOM     24  C   LIG    1       25.160 -27.697   6.154  0.00  0.00    -0.009 C 
ATOM     25  C   LIG    1       24.366 -26.480   5.633  0.00  0.00    +0.004 C 
ATOM     26  C   LIG    1       25.642 -25.644   5.879  0.00  0.00    +0.000 C 
ATOM     27  C   LIG    1       26.034 -26.689   6.944  0.00  0.00    +0.004 C 
ENDBRANCH  23  24
ENDBRANCH  15  23
ENDBRANCH  12  15
ENDBRANCH   3  11
BRANCH   1  28
ATOM     28  C   LIG    1       27.064 -28.919  12.921  0.00  0.00    +0.166 C 
BRANCH  28  32
ATOM     29  N   LIG    1       30.802 -29.167  13.048  0.00  0.00    -0.295 N 
ATOM     30  H   LIG    1       30.860 -28.626  12.209  0.00  0.00    +0.151 HD
ATOM     31  C   LIG    1       29.519 -29.444  13.467  0.00  0.00    +0.301 C 
ATOM     32  N   LIG    1       28.550 -28.816  12.699  0.00  0.00    -0.288 N 
ATOM     33  H   LIG    1       28.843 -28.445  11.807  0.00  0.00    +0.151 HD
ATOM     34  O   LIG    1       29.237 -30.139  14.461  0.00  0.00    -0.253 OA
BRANCH  29  36
ATOM     35  C   LIG    1       32.921 -28.301  14.001  0.00  0.00    +0.031 C 
ATOM     36  C   LIG    1       32.136 -29.583  13.613  0.00  0.00    +0.028 C 
ATOM     37  C   LIG    1       32.017 -30.445  14.883  0.00  0.00    +0.031 C 
ATOM     38  C   LIG    1       32.999 -30.393  12.628  0.00  0.00    +0.031 C 
ENDBRANCH  29  36
ENDBRANCH  28  32
BRANCH  28  39
ATOM     39  C   LIG    1       26.443 -27.541  13.419  0.00  0.00    -0.011 C 
ATOM     40  C   LIG    1       24.954 -27.379  13.056  0.00  0.00    +0.013 C 
ATOM     41  C   LIG    1       27.166 -26.296  12.868  0.00  0.00    +0.013 C 
ATOM     42  C   LIG    1       26.489 -27.487  14.960  0.00  0.00    +0.013 C 
ENDBRANCH  28  39
ENDBRANCH   1  28
TORSDOF 10
ENDMDL
MODEL 8
REMARK VINA RESULT:      -5.5      1.737      3.992
REMARK  Name = *****
REMARK                            x       y       z     vdW  Elec       q    Type
REMARK                         _______ _______ _______ _____ _____    ______ ____
ROOT
ATOM      1  C   LIG    1       25.482 -28.845  11.707  0.00  0.00    +0.237 C 
ATOM      2  N   LIG    1       24.615 -29.850  11.277  0.00  0.00    -0.288 N 
ATOM      3  C   LIG    1       25.149 -30.983  10.484  0.00  0.00    +0.166 C 
ATOM      4  C   LIG    1       23.932 -31.906  10.315  0.00  0.00    +0.029 C 
ATOM      5  C   LIG    1       23.290 -32.805  11.395  0.00  0.00    -0.025 C 
ATOM      6  C   LIG    1       22.249 -33.821  10.986  0.00  0.00    +0.011 C 
ATOM      7  C   LIG    1       24.053 -33.206  12.632  0.00  0.00    +0.011 C 
ATOM      8  C   LIG    1       22.863 -31.379  11.217  0.00  0.00    +0.018 C 
ATOM      9  C   LIG    1       23.427 -30.259  12.001  0.00  0.00    +0.113 C 
ATOM     10  O   LIG    1       26.543 -28.637  11.120  0.00  0.00    -0.274 OA
ENDROOT
BRANCH   3  11
ATOM     11  C   LIG    1       25.755 -30.575   9.113  0.00  0.00    +0.234 C 
ATOM     12  N   LIG    1       24.834 -30.104   8.201  0.00  0.00    -0.304 N 
ATOM     13  H   LIG    1       23.877 -30.032   8.533  0.00  0.00    +0.149 HD
ATOM     14  O   LIG    1       26.929 -30.787   8.819  0.00  0.00    -0.274 OA
BRANCH  12  15
ATOM     15  C   LIG    1       25.186 -29.565   6.886  0.00  0.00    +0.149 C 
BRANCH  15  16
ATOM     16  C   LIG    1       25.234 -30.694   5.863  0.00  0.00    +0.237 C 
ATOM     17  O   LIG    1       25.769 -30.620   4.760  0.00  0.00    -0.285 OA
BRANCH  16  18
ATOM     18  C   LIG    1       24.455 -31.950   6.220  0.00  0.00    +0.279 C 
ATOM     19  O   LIG    1       23.238 -31.907   6.402  0.00  0.00    -0.267 OA
ATOM     20  N   LIG    1       25.202 -33.076   6.403  0.00  0.00    -0.323 N 
ATOM     21  H   LIG    1       24.733 -33.938   6.649  0.00  0.00    +0.145 HD
ATOM     22  H   LIG    1       26.199 -33.093   6.215  0.00  0.00    +0.145 HD
ENDBRANCH  16  18
ENDBRANCH  15  16
BRANCH  15  23
ATOM     23  C   LIG    1       24.181 -28.487   6.437  0.00  0.00    +0.034 C 
BRANCH  23  24
ATOM     24  C   LIG    1       24.895 -27.230   5.959  0.00  0.00    -0.009 C 
ATOM     25  C   LIG    1       24.192 -25.861   6.079  0.00  0.00    +0.004 C 
ATOM     26  C   LIG    1       25.588 -25.259   6.357  0.00  0.00    +0.000 C 
ATOM     27  C   LIG    1       26.005 -26.652   6.873  0.00  0.00    +0.004 C 
ENDBRANCH  23  24
ENDBRANCH  15  23
ENDBRANCH  12  15
ENDBRANCH   3  11
BRANCH   1  28
ATOM     28  C   LIG    1       25.076 -27.926  12.895  0.00  0.00    +0.166 C 
BRANCH  28  32
ATOM     29  N   LIG    1       21.450 -27.774  13.831  0.00  0.00    -0.295 N 
ATOM     30  H   LIG    1       21.427 -28.772  13.880  0.00  0.00    +0.151 HD
ATOM     31  C   LIG    1       22.660 -27.244  13.439  0.00  0.00    +0.301 C 
ATOM     32  N   LIG    1       23.653 -28.202  13.299  0.00  0.00    -0.288 N 
ATOM     33  H   LIG    1       23.354 -29.165  13.249  0.00  0.00    +0.151 HD
ATOM     34  O   LIG    1       22.877 -26.029  13.275  0.00  0.00    -0.253 OA
BRANCH  29  36
ATOM     35  C   LIG    1       20.322 -26.265  15.443  0.00  0.00    +0.031 C 
ATOM     36  C   LIG    1       20.138 -27.106  14.151  0.00  0.00    +0.028 C 
ATOM     37  C   LIG    1       19.657 -26.146  13.048  0.00  0.00    +0.031 C 
ATOM     38  C   LIG    1       18.982 -28.096  14.386  0.00  0.00    +0.031 C 
ENDBRANCH  29  36
ENDBRANCH  28  32
BRANCH  28  39
ATOM     39  C   LIG    1       26.071 -28.014  14.133  0.00  0.00    -0.011 C 
ATOM     40  C   LIG    1       26.830 -29.353  14.211  0.00  0.00    +0.013 C 
ATOM     41  C   LIG    1       25.383 -27.821  15.499  0.00  0.00    +0.013 C 
ATOM     42  C   LIG    1       27.168 -26.939  13.986  0.00  0.00    +0.013 C 
ENDBRANCH  28  39
ENDBRANCH   1  28
TORSDOF 10
ENDMDL
MODEL 9
REMARK VINA RESULT:      -5.2      1.607      2.158
REMARK  Name = *****
REMARK                            x       y       z     vdW  Elec       q    Type
REMARK                         _______ _______ _______ _____ _____    ______ ____
ROOT
ATOM      1  C   LIG    1       24.341 -30.509  11.938  0.00  0.00    +0.237 C 
ATOM      2  N   LIG    1       25.328 -29.571  12.244  0.00  0.00    -0.288 N 
ATOM      3  C   LIG    1       25.653 -28.508  11.262  0.00  0.00    +0.166 C 
ATOM      4  C   LIG    1       26.674 -27.633  12.007  0.00  0.00    +0.029 C 
ATOM      5  C   LIG    1       26.388 -26.649  13.162  0.00  0.00    -0.025 C 
ATOM      6  C   LIG    1       27.476 -25.701  13.610  0.00  0.00    +0.011 C 
ATOM      7  C   LIG    1       25.000 -26.112  13.405  0.00  0.00    +0.011 C 
ATOM      8  C   LIG    1       26.680 -28.094  13.428  0.00  0.00    +0.018 C 
ATOM      9  C   LIG    1       25.627 -29.120  13.589  0.00  0.00    +0.113 C 
ATOM     10  O   LIG    1       24.043 -30.748  10.769  0.00  0.00    -0.274 OA
ENDROOT
BRANCH   3  11
ATOM     11  C   LIG    1       26.219 -29.034   9.915  0.00  0.00    +0.234 C 
ATOM     12  N   LIG    1       25.297 -29.082   8.890  0.00  0.00    -0.304 N 
ATOM     13  H   LIG    1       24.370 -28.730   9.110  0.00  0.00    +0.149 HD
ATOM     14  O   LIG    1       27.351 -29.501   9.809  0.00  0.00    -0.274 OA
BRANCH  12  15
ATOM     15  C   LIG    1       25.625 -29.444   7.510  0.00  0.00    +0.149 C 
BRANCH  15  16
ATOM     16  C   LIG    1       25.346 -30.925   7.286  0.00  0.00    +0.237 C 
ATOM     17  O   LIG    1       25.862 -31.841   7.921  0.00  0.00    -0.285 OA
BRANCH  16  18
ATOM     18  C   LIG    1       24.449 -31.263   6.106  0.00  0.00    +0.279 C 
ATOM     19  O   LIG    1       23.225 -31.292   6.232  0.00  0.00    -0.267 OA
ATOM     20  N   LIG    1       25.094 -31.606   4.954  0.00  0.00    -0.323 N 
ATOM     21  H   LIG    1       24.543 -31.848   4.140  0.00  0.00    +0.145 HD
ATOM     22  H   LIG    1       26.102 -31.543   4.866  0.00  0.00    +0.145 HD
ENDBRANCH  16  18
ENDBRANCH  15  16
BRANCH  15  23
ATOM     23  C   LIG    1       24.822 -28.596   6.505  0.00  0.00    +0.034 C 
BRANCH  23  24
ATOM     24  C   LIG    1       25.314 -27.155   6.480  0.00  0.00    -0.009 C 
ATOM     25  C   LIG    1       26.158 -26.658   5.286  0.00  0.00    +0.004 C 
ATOM     26  C   LIG    1       25.459 -25.291   5.465  0.00  0.00    +0.000 C 
ATOM     27  C   LIG    1       24.284 -26.059   6.107  0.00  0.00    +0.004 C 
ENDBRANCH  23  24
ENDBRANCH  15  23
ENDBRANCH  12  15
ENDBRANCH   3  11
BRANCH   1  28
ATOM     28  C   LIG    1       23.658 -31.316  13.078  0.00  0.00    +0.166 C 
BRANCH  28  32
ATOM     29  N   LIG    1       21.234 -28.761  14.363  0.00  0.00    -0.295 N 
ATOM     30  H   LIG    1       21.400 -29.082  15.295  0.00  0.00    +0.151 HD
ATOM     31  C   LIG    1       21.908 -29.461  13.385  0.00  0.00    +0.301 C 
ATOM     32  N   LIG    1       22.780 -30.409  13.898  0.00  0.00    -0.288 N 
ATOM     33  H   LIG    1       22.660 -30.662  14.868  0.00  0.00    +0.151 HD
ATOM     34  O   LIG    1       21.801 -29.243  12.163  0.00  0.00    -0.253 OA
BRANCH  29  36
ATOM     35  C   LIG    1       20.442 -26.705  15.500  0.00  0.00    +0.031 C 
ATOM     36  C   LIG    1       20.252 -27.624  14.262  0.00  0.00    +0.028 C 
ATOM     37  C   LIG    1       20.457 -26.749  13.012  0.00  0.00    +0.031 C 
ATOM     38  C   LIG    1       18.781 -28.078  14.227  0.00  0.00    +0.031 C 
ENDBRANCH  29  36
ENDBRANCH  28  32
BRANCH  28  39
ATOM     39  C   LIG    1       22.869 -32.598  12.563  0.00  0.00    -0.011 C 
ATOM     40  C   LIG    1       22.065 -32.340  11.274  0.00  0.00    +0.013 C 
ATOM     41  C   LIG    1       21.874 -33.172  13.592  0.00  0.00    +0.013 C 
ATOM     42  C   LIG    1       23.878 -33.705  12.193  0.00  0.00    +0.013 C 
ENDBRANCH  28  39
ENDBRANCH   1  28
TORSDOF 10
ENDMDL
