MODEL 1
REMARK VINA RESULT:       5.9      0.000      0.000
REMARK  Name = *****
REMARK                            x       y       z     vdW  Elec       q    Type
REMARK                         _______ _______ _______ _____ _____    ______ ____
ROOT
ATOM      1  C   LIG    1       25.067 -15.372   3.746  0.00  0.00    +0.106 A 
ATOM      2  C   LIG    1       24.998 -16.737   4.061  0.00  0.00    +0.038 A 
ATOM      3  C   LIG    1       26.169 -17.512   4.047  0.00  0.00    -0.002 A 
ATOM      4  C   LIG    1       26.168 -18.961   4.345  0.00  0.00    -0.012 C 
ATOM      5  C   LIG    1       27.163 -19.518   5.296  0.00  0.00    -0.004 A 
ATOM      6  C   LIG    1       28.488 -19.053   5.203  0.00  0.00    +0.021 A 
ATOM      7  S   LIG    1       28.963 -17.787   4.011  0.00  0.00    -0.088 S 
ATOM      8  C   LIG    1       29.473 -19.614   6.028  0.00  0.00    +0.015 A 
ATOM      9  C   LIG    1       29.135 -20.611   6.949  0.00  0.00    +0.001 A 
ATOM     10  C   LIG    1       27.817 -21.048   7.062  0.00  0.00    +0.001 A 
ATOM     11  C   LIG    1       26.829 -20.502   6.241  0.00  0.00    +0.009 A 
ATOM     12  C   LIG    1       25.532 -19.859   3.560  0.00  0.00    -0.017 C 
ATOM     13  C   LIG    1       27.413 -16.896   3.803  0.00  0.00    +0.021 A 
ATOM     14  C   LIG    1       27.457 -15.545   3.435  0.00  0.00    +0.017 A 
ATOM     15  C   LIG    1       26.287 -14.782   3.401  0.00  0.00    +0.029 A 
ENDROOT
BRANCH   1  16
ATOM     16  S   LIG    1       23.635 -14.331   3.903  0.00  0.00    +0.060 S 
ATOM     17  O   LIG    1       22.888 -14.384   2.660  0.00  0.00    -0.153 OA
ATOM     18  O   LIG    1       23.011 -14.662   5.166  0.00  0.00    -0.153 OA
BRANCH  16  20
ATOM     19  C   LIG    1       23.972 -11.857   2.888  0.00  0.00    +0.131 C 
ATOM     20  N   LIG    1       24.282 -12.745   4.030  0.00  0.00    -0.183 NA
ATOM     21  C   LIG    1       23.950 -12.087   5.318  0.00  0.00    +0.131 C 
ENDBRANCH  16  20
ENDBRANCH   1  16
BRANCH  12  22
ATOM     22  C   LIG    1       24.735 -19.608   2.304  0.00  0.00    +0.043 C 
BRANCH  22  23
ATOM     23  C   LIG    1       23.360 -18.938   2.576  0.00  0.00    +0.088 C 
BRANCH  23  24
ATOM     24  N   LIG    1       22.298 -19.836   3.066  0.00  0.00    -0.300 NA
ATOM     25  C   LIG    1       22.746 -21.213   3.348  0.00  0.00    +0.100 C 
ATOM     26  C   LIG    1       23.570 -21.379   4.641  0.00  0.00    +0.099 C 
ATOM     27  N   LIG    1       22.846 -20.886   5.824  0.00  0.00    -0.303 NA
ATOM     28  C   LIG    1       23.673 -21.002   7.023  0.00  0.00    +0.105 C 
ATOM     29  C   LIG    1       22.400 -19.498   5.610  0.00  0.00    +0.099 C 
ATOM     30  C   LIG    1       21.632 -19.301   4.276  0.00  0.00    +0.100 C 
ENDBRANCH  23  24
ENDBRANCH  22  23
ENDBRANCH  12  22
TORSDOF 5
ENDMDL
