MODEL 1
REMARK VINA RESULT:      -8.3      0.000      0.000
REMARK  Name = *****
REMARK                            x       y       z     vdW  Elec       q    Type
REMARK                         _______ _______ _______ _____ _____    ______ ____
ROOT
ATOM      1  C   LIG    1       25.371 -27.233   6.403  0.00  0.00    +0.165 C 
ENDROOT
BRANCH   1   3
ATOM      2  C   LIG    1       26.067 -28.306   8.557  0.00  0.00    +0.219 C 
ATOM      3  N   LIG    1       25.084 -27.952   7.664  0.00  0.00    -0.303 N 
ATOM      4  H   LIG    1       24.119 -27.953   7.980  0.00  0.00    +0.149 HD
ATOM      5  O   LIG    1       27.241 -27.965   8.402  0.00  0.00    -0.275 OA
BRANCH   2   6
ATOM      6  C   LIG    1       25.645 -29.151   9.757  0.00  0.00    +0.100 C 
BRANCH   6   7
ATOM      7  C   LIG    1       24.533 -30.191   9.461  0.00  0.00    +0.049 C 
BRANCH   7   8
ATOM      8  C   LIG    1       23.285 -30.276  10.307  0.00  0.00    -0.047 A 
ATOM      9  C   LIG    1       23.183 -29.455  11.435  0.00  0.00    +0.003 A 
ATOM     10  C   LIG    1       22.001 -29.367  12.173  0.00  0.00    +0.000 A 
ATOM     11  C   LIG    1       20.896 -30.123  11.807  0.00  0.00    +0.000 A 
ATOM     12  C   LIG    1       20.962 -30.923  10.667  0.00  0.00    +0.000 A 
ATOM     13  C   LIG    1       22.146 -30.994   9.916  0.00  0.00    +0.003 A 
ENDBRANCH   7   8
ENDBRANCH   6   7
BRANCH   6  14
ATOM     14  C   LIG    1       26.890 -29.960  10.235  0.00  0.00    +0.179 C 
BRANCH  14  15
ATOM     15  S   LIG    1       27.663 -29.236  11.676  0.00  0.00    -0.025 S 
ATOM     16  O   LIG    1       29.068 -29.704  11.722  0.00  0.00    -0.174 OA
ATOM     17  O   LIG    1       27.327 -27.851  11.604  0.00  0.00    -0.174 OA
BRANCH  15  19
ATOM     18  C   LIG    1       27.951 -30.214  14.217  0.00  0.00    +0.035 C 
ATOM     19  C   LIG    1       26.867 -29.835  13.180  0.00  0.00    +0.080 C 
ATOM     20  C   LIG    1       26.008 -28.704  13.747  0.00  0.00    +0.035 C 
ATOM     21  C   LIG    1       26.050 -31.087  12.885  0.00  0.00    +0.035 C 
ENDBRANCH  15  19
ENDBRANCH  14  15
ENDBRANCH   6  14
ENDBRANCH   2   6
ENDBRANCH   1   3
BRANCH   1  22
ATOM     22  C   LIG    1       24.807 -25.767   6.504  0.00  0.00    +0.234 C 
ATOM     23  N   LIG    1       25.796 -24.793   6.712  0.00  0.00    -0.308 N 
ATOM     24  H   LIG    1       26.708 -25.006   6.311  0.00  0.00    +0.149 HD
ATOM     25  O   LIG    1       23.606 -25.522   6.546  0.00  0.00    -0.274 OA
BRANCH  23  26
ATOM     26  C   LIG    1       25.539 -23.336   6.897  0.00  0.00    +0.104 C 
BRANCH  26  27
ATOM     27  C   LIG    1       24.742 -22.744   5.659  0.00  0.00    +0.163 C 
BRANCH  27  28
ATOM     28  O   LIG    1       24.671 -23.716   4.606  0.00  0.00    -0.387 OA
ATOM     29  H   LIG    1       25.015 -23.312   3.792  0.00  0.00    +0.210 HD
ENDBRANCH  27  28
BRANCH  27  30
ATOM     30  C   LIG    1       23.362 -22.050   5.901  0.00  0.00    +0.148 C 
BRANCH  30  31
ATOM     31  C   LIG    1       22.884 -21.072   4.857  0.00  0.00    +0.020 C 
ATOM     32  C   LIG    1       22.597 -19.621   5.213  0.00  0.00    +0.006 C 
ATOM     33  C   LIG    1       23.706 -19.953   4.259  0.00  0.00    +0.006 C 
ENDBRANCH  30  31
BRANCH  30  34
ATOM     34  O   LIG    1       22.358 -23.059   6.043  0.00  0.00    -0.389 OA
ATOM     35  H   LIG    1       21.819 -22.803   6.814  0.00  0.00    +0.210 HD
ENDBRANCH  30  34
ENDBRANCH  27  30
ENDBRANCH  26  27
BRANCH  26  36
ATOM     36  C   LIG    1       26.817 -22.471   7.264  0.00  0.00    +0.028 C 
BRANCH  36  37
ATOM     37  C   LIG    1       26.665 -20.912   7.410  0.00  0.00    -0.009 C 
ATOM     38  C   LIG    1       27.637 -20.282   8.385  0.00  0.00    +0.003 C 
ATOM     39  C   LIG    1       29.050 -20.499   7.885  0.00  0.00    +0.000 C 
ATOM     40  C   LIG    1       29.344 -19.716   6.611  0.00  0.00    +0.000 C 
ATOM     41  C   LIG    1       28.297 -20.044   5.550  0.00  0.00    +0.000 C 
ATOM     42  C   LIG    1       26.859 -20.087   6.100  0.00  0.00    +0.003 C 
ENDBRANCH  36  37
ENDBRANCH  26  36
ENDBRANCH  23  26
ENDBRANCH   1  22
BRANCH   1  43
ATOM     43  C   LIG    1       24.872 -28.041   5.161  0.00  0.00    +0.086 C 
BRANCH  43  44
ATOM     44  C   LIG    1       24.801 -29.546   5.361  0.00  0.00    +0.037 A 
ATOM     45  N   LIG    1       23.653 -30.195   5.753  0.00  0.00    -0.348 N 
ATOM     46  H   LIG    1       22.716 -29.813   5.710  0.00  0.00    +0.167 HD
ATOM     47  C   LIG    1       23.933 -31.510   5.960  0.00  0.00    +0.196 A 
ATOM     48  N   LIG    1       25.166 -31.788   5.612  0.00  0.00    -0.244 NA
ATOM     49  C   LIG    1       25.715 -30.579   5.239  0.00  0.00    +0.133 A 
ENDBRANCH  43  44
ENDBRANCH   1  43
TORSDOF 18
ENDMDL
MODEL 2
REMARK VINA RESULT:      -7.7      1.711      3.299
REMARK  Name = *****
REMARK                            x       y       z     vdW  Elec       q    Type
REMARK                         _______ _______ _______ _____ _____    ______ ____
ROOT
ATOM      1  C   LIG    1       25.621 -27.473   6.615  0.00  0.00    +0.165 C 
ENDROOT
BRANCH   1   3
ATOM      2  C   LIG    1       25.915 -28.711   8.773  0.00  0.00    +0.219 C 
ATOM      3  N   LIG    1       25.119 -28.315   7.724  0.00  0.00    -0.303 N 
ATOM      4  H   LIG    1       24.112 -28.380   7.829  0.00  0.00    +0.149 HD
ATOM      5  O   LIG    1       27.074 -28.313   8.897  0.00  0.00    -0.275 OA
BRANCH   2   6
ATOM      6  C   LIG    1       25.301 -29.677   9.784  0.00  0.00    +0.100 C 
BRANCH   6   7
ATOM      7  C   LIG    1       24.892 -29.031  11.134  0.00  0.00    +0.049 C 
BRANCH   7   8
ATOM      8  C   LIG    1       25.891 -28.834  12.250  0.00  0.00    -0.047 A 
ATOM      9  C   LIG    1       26.718 -29.905  12.606  0.00  0.00    +0.003 A 
ATOM     10  C   LIG    1       27.764 -29.751  13.516  0.00  0.00    +0.000 A 
ATOM     11  C   LIG    1       27.993 -28.518  14.111  0.00  0.00    +0.000 A 
ATOM     12  C   LIG    1       27.203 -27.427  13.747  0.00  0.00    +0.000 A 
ATOM     13  C   LIG    1       26.164 -27.581  12.816  0.00  0.00    +0.003 A 
ENDBRANCH   7   8
ENDBRANCH   6   7
BRANCH   6  14
ATOM     14  C   LIG    1       23.994 -30.256   9.159  0.00  0.00    +0.179 C 
BRANCH  14  15
ATOM     15  S   LIG    1       23.628 -31.905   9.746  0.00  0.00    -0.025 S 
ATOM     16  O   LIG    1       22.982 -32.650   8.641  0.00  0.00    -0.174 OA
ATOM     17  O   LIG    1       24.843 -32.347  10.351  0.00  0.00    -0.174 OA
BRANCH  15  19
ATOM     18  C   LIG    1       21.501 -33.070  11.016  0.00  0.00    +0.035 C 
ATOM     19  C   LIG    1       22.431 -31.837  11.095  0.00  0.00    +0.080 C 
ATOM     20  C   LIG    1       23.200 -31.876  12.417  0.00  0.00    +0.035 C 
ATOM     21  C   LIG    1       21.563 -30.591  10.970  0.00  0.00    +0.035 C 
ENDBRANCH  15  19
ENDBRANCH  14  15
ENDBRANCH   6  14
ENDBRANCH   2   6
ENDBRANCH   1   3
BRANCH   1  22
ATOM     22  C   LIG    1       24.955 -26.050   6.702  0.00  0.00    +0.234 C 
ATOM     23  N   LIG    1       25.873 -25.006   6.889  0.00  0.00    -0.308 N 
ATOM     24  H   LIG    1       26.794 -25.158   6.482  0.00  0.00    +0.149 HD
ATOM     25  O   LIG    1       23.739 -25.891   6.754  0.00  0.00    -0.274 OA
BRANCH  23  26
ATOM     26  C   LIG    1       25.515 -23.568   7.058  0.00  0.00    +0.104 C 
BRANCH  26  27
ATOM     27  C   LIG    1       24.534 -23.094   5.905  0.00  0.00    +0.163 C 
BRANCH  27  28
ATOM     28  O   LIG    1       24.458 -24.093   4.878  0.00  0.00    -0.387 OA
ATOM     29  H   LIG    1       23.662 -24.630   5.031  0.00  0.00    +0.210 HD
ENDBRANCH  27  28
BRANCH  27  30
ATOM     30  C   LIG    1       23.120 -22.544   6.284  0.00  0.00    +0.148 C 
BRANCH  30  31
ATOM     31  C   LIG    1       22.547 -21.448   5.420  0.00  0.00    +0.020 C 
ATOM     32  C   LIG    1       22.798 -19.982   5.740  0.00  0.00    +0.006 C 
ATOM     33  C   LIG    1       23.335 -20.574   4.471  0.00  0.00    +0.006 C 
ENDBRANCH  30  31
BRANCH  30  34
ATOM     34  O   LIG    1       22.188 -23.629   6.284  0.00  0.00    -0.389 OA
ATOM     35  H   LIG    1       22.553 -24.304   6.884  0.00  0.00    +0.210 HD
ENDBRANCH  30  34
ENDBRANCH  27  30
ENDBRANCH  26  27
BRANCH  26  36
ATOM     36  C   LIG    1       26.747 -22.588   7.247  0.00  0.00    +0.028 C 
BRANCH  36  37
ATOM     37  C   LIG    1       26.478 -21.043   7.379  0.00  0.00    -0.009 C 
ATOM     38  C   LIG    1       27.388 -20.336   8.361  0.00  0.00    +0.003 C 
ATOM     39  C   LIG    1       28.820 -20.450   7.880  0.00  0.00    +0.000 C 
ATOM     40  C   LIG    1       29.070 -19.656   6.603  0.00  0.00    +0.000 C 
ATOM     41  C   LIG    1       28.063 -20.068   5.532  0.00  0.00    +0.000 C 
ATOM     42  C   LIG    1       26.626 -20.215   6.065  0.00  0.00    +0.003 C 
ENDBRANCH  36  37
ENDBRANCH  26  36
ENDBRANCH  23  26
ENDBRANCH   1  22
BRANCH   1  43
ATOM     43  C   LIG    1       25.451 -28.190   5.235  0.00  0.00    +0.086 C 
BRANCH  43  44
ATOM     44  C   LIG    1       25.104 -29.668   5.318  0.00  0.00    +0.037 A 
ATOM     45  N   LIG    1       23.821 -30.126   5.503  0.00  0.00    -0.348 N 
ATOM     46  H   LIG    1       22.975 -29.586   5.358  0.00  0.00    +0.167 HD
ATOM     47  C   LIG    1       23.848 -31.478   5.655  0.00  0.00    +0.196 A 
ATOM     48  N   LIG    1       25.055 -31.948   5.461  0.00  0.00    -0.244 NA
ATOM     49  C   LIG    1       25.844 -30.836   5.253  0.00  0.00    +0.133 A 
ENDBRANCH  43  44
ENDBRANCH   1  43
TORSDOF 18
ENDMDL
MODEL 3
REMARK VINA RESULT:      -7.5      2.117      9.133
REMARK  Name = *****
REMARK                            x       y       z     vdW  Elec       q    Type
REMARK                         _______ _______ _______ _____ _____    ______ ____
ROOT
ATOM      1  C   LIG    1       24.755 -26.863   6.424  0.00  0.00    +0.165 C 
ENDROOT
BRANCH   1   3
ATOM      2  C   LIG    1       24.286 -24.409   6.233  0.00  0.00    +0.219 C 
ATOM      3  N   LIG    1       25.149 -25.472   6.106  0.00  0.00    -0.303 N 
ATOM      4  H   LIG    1       26.144 -25.283   6.038  0.00  0.00    +0.149 HD
ATOM      5  O   LIG    1       23.157 -24.540   6.707  0.00  0.00    -0.275 OA
BRANCH   2   6
ATOM      6  C   LIG    1       24.787 -23.048   5.755  0.00  0.00    +0.100 C 
BRANCH   6   7
ATOM      7  C   LIG    1       24.009 -22.456   4.550  0.00  0.00    +0.049 C 
BRANCH   7   8
ATOM      8  C   LIG    1       23.668 -20.986   4.476  0.00  0.00    -0.047 A 
ATOM      9  C   LIG    1       24.491 -20.145   3.721  0.00  0.00    +0.003 A 
ATOM     10  C   LIG    1       24.153 -18.811   3.481  0.00  0.00    +0.000 A 
ATOM     11  C   LIG    1       22.986 -18.284   4.016  0.00  0.00    +0.000 A 
ATOM     12  C   LIG    1       22.132 -19.111   4.744  0.00  0.00    +0.000 A 
ATOM     13  C   LIG    1       22.466 -20.458   4.966  0.00  0.00    +0.003 A 
ENDBRANCH   7   8
ENDBRANCH   6   7
BRANCH   6  14
ATOM     14  C   LIG    1       24.617 -22.036   6.930  0.00  0.00    +0.179 C 
BRANCH  14  15
ATOM     15  S   LIG    1       26.013 -22.046   8.047  0.00  0.00    -0.025 S 
ATOM     16  O   LIG    1       25.565 -21.479   9.341  0.00  0.00    -0.174 OA
ATOM     17  O   LIG    1       26.547 -23.365   7.941  0.00  0.00    -0.174 OA
BRANCH  15  19
ATOM     18  C   LIG    1       27.620 -19.873   8.485  0.00  0.00    +0.035 C 
ATOM     19  C   LIG    1       27.316 -20.961   7.429  0.00  0.00    +0.080 C 
ATOM     20  C   LIG    1       28.572 -21.805   7.206  0.00  0.00    +0.035 C 
ATOM     21  C   LIG    1       26.861 -20.258   6.156  0.00  0.00    +0.035 C 
ENDBRANCH  15  19
ENDBRANCH  14  15
ENDBRANCH   6  14
ENDBRANCH   2   6
ENDBRANCH   1   3
BRANCH   1  22
ATOM     22  C   LIG    1       25.839 -27.505   7.367  0.00  0.00    +0.234 C 
ATOM     23  N   LIG    1       25.348 -28.547   8.168  0.00  0.00    -0.308 N 
ATOM     24  H   LIG    1       24.584 -29.085   7.762  0.00  0.00    +0.149 HD
ATOM     25  O   LIG    1       26.966 -27.035   7.495  0.00  0.00    -0.274 OA
BRANCH  23  26
ATOM     26  C   LIG    1       26.141 -29.293   9.187  0.00  0.00    +0.104 C 
BRANCH  26  27
ATOM     27  C   LIG    1       25.928 -30.858   9.029  0.00  0.00    +0.163 C 
BRANCH  27  28
ATOM     28  O   LIG    1       26.858 -31.390   8.075  0.00  0.00    -0.387 OA
ATOM     29  H   LIG    1       27.680 -30.875   8.127  0.00  0.00    +0.210 HD
ENDBRANCH  27  28
BRANCH  27  30
ATOM     30  C   LIG    1       25.840 -31.748  10.312  0.00  0.00    +0.148 C 
BRANCH  30  31
ATOM     31  C   LIG    1       24.463 -32.127  10.800  0.00  0.00    +0.020 C 
ATOM     32  C   LIG    1       23.889 -31.528  12.075  0.00  0.00    +0.006 C 
ATOM     33  C   LIG    1       23.239 -31.240  10.754  0.00  0.00    +0.006 C 
ENDBRANCH  30  31
BRANCH  30  34
ATOM     34  O   LIG    1       26.567 -32.959  10.084  0.00  0.00    -0.389 OA
ATOM     35  H   LIG    1       27.286 -32.734   9.465  0.00  0.00    +0.210 HD
ENDBRANCH  30  34
ENDBRANCH  27  30
ENDBRANCH  26  27
BRANCH  26  36
ATOM     36  C   LIG    1       25.945 -28.802  10.682  0.00  0.00    +0.028 C 
BRANCH  36  37
ATOM     37  C   LIG    1       27.180 -28.213  11.458  0.00  0.00    -0.009 C 
ATOM     38  C   LIG    1       26.835 -27.088  12.411  0.00  0.00    +0.003 C 
ATOM     39  C   LIG    1       25.906 -27.615  13.484  0.00  0.00    +0.000 C 
ATOM     40  C   LIG    1       26.594 -28.606  14.416  0.00  0.00    +0.000 C 
ATOM     41  C   LIG    1       27.232 -29.727  13.599  0.00  0.00    +0.000 C 
ATOM     42  C   LIG    1       27.970 -29.227  12.343  0.00  0.00    +0.003 C 
ENDBRANCH  36  37
ENDBRANCH  26  36
ENDBRANCH  23  26
ENDBRANCH   1  22
BRANCH   1  43
ATOM     43  C   LIG    1       24.453 -27.680   5.126  0.00  0.00    +0.086 C 
BRANCH  43  44
ATOM     44  C   LIG    1       24.603 -29.186   5.265  0.00  0.00    +0.037 A 
ATOM     45  N   LIG    1       23.599 -29.997   5.738  0.00  0.00    -0.348 N 
ATOM     46  H   LIG    1       22.619 -29.745   5.804  0.00  0.00    +0.167 HD
ATOM     47  C   LIG    1       24.071 -31.267   5.859  0.00  0.00    +0.196 A 
ATOM     48  N   LIG    1       25.287 -31.363   5.380  0.00  0.00    -0.244 NA
ATOM     49  C   LIG    1       25.629 -30.079   5.009  0.00  0.00    +0.133 A 
ENDBRANCH  43  44
ENDBRANCH   1  43
TORSDOF 18
ENDMDL
MODEL 4
REMARK VINA RESULT:      -7.0      2.457      9.442
REMARK  Name = *****
REMARK                            x       y       z     vdW  Elec       q    Type
REMARK                         _______ _______ _______ _____ _____    ______ ____
ROOT
ATOM      1  C   LIG    1       24.689 -27.175   6.720  0.00  0.00    +0.165 C 
ENDROOT
BRANCH   1   3
ATOM      2  C   LIG    1       24.299 -24.705   6.562  0.00  0.00    +0.219 C 
ATOM      3  N   LIG    1       25.159 -25.777   6.600  0.00  0.00    -0.303 N 
ATOM      4  H   LIG    1       26.139 -25.605   6.804  0.00  0.00    +0.149 HD
ATOM      5  O   LIG    1       23.084 -24.840   6.718  0.00  0.00    -0.275 OA
BRANCH   2   6
ATOM      6  C   LIG    1       24.913 -23.329   6.314  0.00  0.00    +0.100 C 
BRANCH   6   7
ATOM      7  C   LIG    1       26.437 -23.239   6.589  0.00  0.00    +0.049 C 
BRANCH   7   8
ATOM      8  C   LIG    1       27.037 -22.068   7.333  0.00  0.00    -0.047 A 
ATOM      9  C   LIG    1       28.284 -21.584   6.925  0.00  0.00    +0.003 A 
ATOM     10  C   LIG    1       28.827 -20.415   7.461  0.00  0.00    +0.000 A 
ATOM     11  C   LIG    1       28.137 -19.714   8.440  0.00  0.00    +0.000 A 
ATOM     12  C   LIG    1       26.876 -20.158   8.839  0.00  0.00    +0.000 A 
ATOM     13  C   LIG    1       26.325 -21.324   8.283  0.00  0.00    +0.003 A 
ENDBRANCH   7   8
ENDBRANCH   6   7
BRANCH   6  14
ATOM     14  C   LIG    1       24.716 -22.983   4.806  0.00  0.00    +0.179 C 
BRANCH  14  15
ATOM     15  S   LIG    1       24.419 -21.241   4.537  0.00  0.00    -0.025 S 
ATOM     16  O   LIG    1       25.558 -20.490   5.116  0.00  0.00    -0.174 OA
ATOM     17  O   LIG    1       24.071 -21.146   3.157  0.00  0.00    -0.174 OA
BRANCH  15  19
ATOM     18  C   LIG    1       21.793 -21.710   5.155  0.00  0.00    +0.035 C 
ATOM     19  C   LIG    1       22.942 -20.712   5.430  0.00  0.00    +0.080 C 
ATOM     20  C   LIG    1       23.262 -20.719   6.926  0.00  0.00    +0.035 C 
ATOM     21  C   LIG    1       22.492 -19.340   4.944  0.00  0.00    +0.035 C 
ENDBRANCH  15  19
ENDBRANCH  14  15
ENDBRANCH   6  14
ENDBRANCH   2   6
ENDBRANCH   1   3
BRANCH   1  22
ATOM     22  C   LIG    1       25.607 -27.943   7.742  0.00  0.00    +0.234 C 
ATOM     23  N   LIG    1       24.962 -29.005   8.394  0.00  0.00    -0.308 N 
ATOM     24  H   LIG    1       24.231 -29.467   7.857  0.00  0.00    +0.149 HD
ATOM     25  O   LIG    1       26.730 -27.553   8.045  0.00  0.00    -0.274 OA
BRANCH  23  26
ATOM     26  C   LIG    1       25.576 -29.865   9.447  0.00  0.00    +0.104 C 
BRANCH  26  27
ATOM     27  C   LIG    1       25.748 -31.354   8.927  0.00  0.00    +0.163 C 
BRANCH  27  28
ATOM     28  O   LIG    1       26.892 -31.449   8.066  0.00  0.00    -0.387 OA
ATOM     29  H   LIG    1       26.605 -31.270   7.155  0.00  0.00    +0.210 HD
ENDBRANCH  27  28
BRANCH  27  30
ATOM     30  C   LIG    1       25.696 -32.531   9.954  0.00  0.00    +0.148 C 
BRANCH  30  31
ATOM     31  C   LIG    1       24.505 -33.455   9.892  0.00  0.00    +0.020 C 
ATOM     32  C   LIG    1       23.338 -33.299  10.856  0.00  0.00    +0.006 C 
ATOM     33  C   LIG    1       23.129 -33.083   9.386  0.00  0.00    +0.006 C 
ENDBRANCH  30  31
BRANCH  30  34
ATOM     34  O   LIG    1       26.873 -33.330   9.800  0.00  0.00    -0.389 OA
ATOM     35  H   LIG    1       26.825 -33.719   8.907  0.00  0.00    +0.210 HD
ENDBRANCH  30  34
ENDBRANCH  27  30
ENDBRANCH  26  27
BRANCH  26  36
ATOM     36  C   LIG    1       24.870 -29.795  10.865  0.00  0.00    +0.028 C 
BRANCH  36  37
ATOM     37  C   LIG    1       25.764 -29.750  12.159  0.00  0.00    -0.009 C 
ATOM     38  C   LIG    1       27.127 -29.124  11.950  0.00  0.00    +0.003 C 
ATOM     39  C   LIG    1       26.950 -27.677  11.539  0.00  0.00    +0.000 C 
ATOM     40  C   LIG    1       26.386 -26.816  12.664  0.00  0.00    +0.000 C 
ATOM     41  C   LIG    1       25.092 -27.433  13.188  0.00  0.00    +0.000 C 
ATOM     42  C   LIG    1       25.169 -28.960  13.367  0.00  0.00    +0.003 C 
ENDBRANCH  36  37
ENDBRANCH  26  36
ENDBRANCH  23  26
ENDBRANCH   1  22
BRANCH   1  43
ATOM     43  C   LIG    1       24.562 -27.855   5.317  0.00  0.00    +0.086 C 
BRANCH  43  44
ATOM     44  C   LIG    1       24.677 -29.370   5.325  0.00  0.00    +0.037 A 
ATOM     45  N   LIG    1       23.633 -30.198   5.663  0.00  0.00    -0.348 N 
ATOM     46  H   LIG    1       22.655 -29.931   5.695  0.00  0.00    +0.167 HD
ATOM     47  C   LIG    1       24.075 -31.484   5.693  0.00  0.00    +0.196 A 
ATOM     48  N   LIG    1       25.315 -31.563   5.278  0.00  0.00    -0.244 NA
ATOM     49  C   LIG    1       25.701 -30.260   5.047  0.00  0.00    +0.133 A 
ENDBRANCH  43  44
ENDBRANCH   1  43
TORSDOF 18
ENDMDL
MODEL 5
REMARK VINA RESULT:      -6.8      2.966      5.492
REMARK  Name = *****
REMARK                            x       y       z     vdW  Elec       q    Type
REMARK                         _______ _______ _______ _____ _____    ______ ____
ROOT
ATOM      1  C   LIG    1       25.111 -24.064   6.546  0.00  0.00    +0.165 C 
ENDROOT
BRANCH   1   3
ATOM      2  C   LIG    1       25.901 -26.441   6.475  0.00  0.00    +0.219 C 
ATOM      3  N   LIG    1       25.426 -25.363   7.183  0.00  0.00    -0.303 N 
ATOM      4  H   LIG    1       25.527 -25.363   8.193  0.00  0.00    +0.149 HD
ATOM      5  O   LIG    1       26.180 -26.361   5.278  0.00  0.00    -0.275 OA
BRANCH   2   6
ATOM      6  C   LIG    1       26.068 -27.754   7.238  0.00  0.00    +0.100 C 
BRANCH   6   7
ATOM      7  C   LIG    1       26.539 -27.596   8.707  0.00  0.00    +0.049 C 
BRANCH   7   8
ATOM      8  C   LIG    1       26.463 -28.743   9.687  0.00  0.00    -0.047 A 
ATOM      9  C   LIG    1       25.585 -28.642  10.771  0.00  0.00    +0.003 A 
ATOM     10  C   LIG    1       25.348 -29.719  11.626  0.00  0.00    +0.000 A 
ATOM     11  C   LIG    1       26.009 -30.923  11.426  0.00  0.00    +0.000 A 
ATOM     12  C   LIG    1       26.864 -31.060  10.333  0.00  0.00    +0.000 A 
ATOM     13  C   LIG    1       27.084 -29.979   9.463  0.00  0.00    +0.003 A 
ENDBRANCH   7   8
ENDBRANCH   6   7
BRANCH   6  14
ATOM     14  C   LIG    1       24.675 -28.454   7.293  0.00  0.00    +0.179 C 
BRANCH  14  15
ATOM     15  S   LIG    1       24.503 -29.732   6.054  0.00  0.00    -0.025 S 
ATOM     16  O   LIG    1       23.187 -29.556   5.398  0.00  0.00    -0.174 OA
ATOM     17  O   LIG    1       25.728 -29.688   5.323  0.00  0.00    -0.174 OA
BRANCH  15  19
ATOM     18  C   LIG    1       23.568 -32.305   6.018  0.00  0.00    +0.035 C 
ATOM     19  C   LIG    1       24.481 -31.360   6.833  0.00  0.00    +0.080 C 
ATOM     20  C   LIG    1       25.907 -31.912   6.824  0.00  0.00    +0.035 C 
ATOM     21  C   LIG    1       23.909 -31.264   8.243  0.00  0.00    +0.035 C 
ENDBRANCH  15  19
ENDBRANCH  14  15
ENDBRANCH   6  14
ENDBRANCH   2   6
ENDBRANCH   1   3
BRANCH   1  22
ATOM     22  C   LIG    1       25.970 -22.934   7.224  0.00  0.00    +0.234 C 
ATOM     23  N   LIG    1       26.483 -21.993   6.318  0.00  0.00    -0.308 N 
ATOM     24  H   LIG    1       25.912 -21.828   5.491  0.00  0.00    +0.149 HD
ATOM     25  O   LIG    1       26.283 -22.962   8.410  0.00  0.00    -0.274 OA
BRANCH  23  26
ATOM     26  C   LIG    1       27.371 -20.850   6.679  0.00  0.00    +0.104 C 
BRANCH  26  27
ATOM     27  C   LIG    1       27.208 -19.661   5.641  0.00  0.00    +0.163 C 
BRANCH  27  28
ATOM     28  O   LIG    1       28.421 -19.485   4.896  0.00  0.00    -0.387 OA
ATOM     29  H   LIG    1       29.170 -19.538   5.513  0.00  0.00    +0.210 HD
ENDBRANCH  27  28
BRANCH  27  30
ATOM     30  C   LIG    1       25.948 -19.624   4.716  0.00  0.00    +0.148 C 
BRANCH  30  31
ATOM     31  C   LIG    1       25.990 -18.701   3.524  0.00  0.00    +0.020 C 
ATOM     32  C   LIG    1       24.984 -17.569   3.370  0.00  0.00    +0.006 C 
ATOM     33  C   LIG    1       26.440 -17.257   3.545  0.00  0.00    +0.006 C 
ENDBRANCH  30  31
BRANCH  30  34
ATOM     34  O   LIG    1       25.693 -20.946   4.232  0.00  0.00    -0.389 OA
ATOM     35  H   LIG    1       25.991 -20.960   3.304  0.00  0.00    +0.210 HD
ENDBRANCH  30  34
ENDBRANCH  27  30
ENDBRANCH  26  27
BRANCH  26  36
ATOM     36  C   LIG    1       28.890 -21.234   6.928  0.00  0.00    +0.028 C 
BRANCH  36  37
ATOM     37  C   LIG    1       29.557 -20.851   8.300  0.00  0.00    -0.009 C 
ATOM     38  C   LIG    1       31.069 -20.770   8.254  0.00  0.00    +0.003 C 
ATOM     39  C   LIG    1       31.478 -19.673   7.294  0.00  0.00    +0.000 C 
ATOM     40  C   LIG    1       31.113 -18.284   7.806  0.00  0.00    +0.000 C 
ATOM     41  C   LIG    1       29.625 -18.233   8.145  0.00  0.00    +0.000 C 
ATOM     42  C   LIG    1       29.126 -19.478   8.904  0.00  0.00    +0.003 C 
ENDBRANCH  36  37
ENDBRANCH  26  36
ENDBRANCH  23  26
ENDBRANCH   1  22
BRANCH   1  43
ATOM     43  C   LIG    1       23.570 -23.795   6.534  0.00  0.00    +0.086 C 
BRANCH  43  44
ATOM     44  C   LIG    1       23.174 -22.344   6.322  0.00  0.00    +0.037 A 
ATOM     45  N   LIG    1       22.665 -21.873   5.135  0.00  0.00    -0.348 N 
ATOM     46  H   LIG    1       22.277 -22.444   4.392  0.00  0.00    +0.167 HD
ATOM     47  C   LIG    1       22.521 -20.522   5.215  0.00  0.00    +0.196 A 
ATOM     48  N   LIG    1       22.791 -20.094   6.423  0.00  0.00    -0.244 NA
ATOM     49  C   LIG    1       23.198 -21.212   7.119  0.00  0.00    +0.133 A 
ENDBRANCH  43  44
ENDBRANCH   1  43
TORSDOF 18
ENDMDL
MODEL 6
REMARK VINA RESULT:      -6.3      2.147      9.026
REMARK  Name = *****
REMARK                            x       y       z     vdW  Elec       q    Type
REMARK                         _______ _______ _______ _____ _____    ______ ____
ROOT
ATOM      1  C   LIG    1       24.643 -27.034   6.440  0.00  0.00    +0.165 C 
ENDROOT
BRANCH   1   3
ATOM      2  C   LIG    1       23.902 -24.671   6.061  0.00  0.00    +0.219 C 
ATOM      3  N   LIG    1       24.814 -25.681   5.865  0.00  0.00    -0.303 N 
ATOM      4  H   LIG    1       25.743 -25.438   5.537  0.00  0.00    +0.149 HD
ATOM      5  O   LIG    1       22.929 -24.807   6.804  0.00  0.00    -0.275 OA
BRANCH   2   6
ATOM      6  C   LIG    1       24.143 -23.363   5.309  0.00  0.00    +0.100 C 
BRANCH   6   7
ATOM      7  C   LIG    1       23.120 -22.238   5.618  0.00  0.00    +0.049 C 
BRANCH   7   8
ATOM      8  C   LIG    1       23.146 -20.922   4.876  0.00  0.00    -0.047 A 
ATOM      9  C   LIG    1       22.301 -19.894   5.307  0.00  0.00    +0.003 A 
ATOM     10  C   LIG    1       22.381 -18.608   4.771  0.00  0.00    +0.000 A 
ATOM     11  C   LIG    1       23.300 -18.328   3.769  0.00  0.00    +0.000 A 
ATOM     12  C   LIG    1       24.176 -19.327   3.347  0.00  0.00    +0.000 A 
ATOM     13  C   LIG    1       24.106 -20.616   3.903  0.00  0.00    +0.003 A 
ENDBRANCH   7   8
ENDBRANCH   6   7
BRANCH   6  14
ATOM     14  C   LIG    1       25.541 -22.818   5.736  0.00  0.00    +0.179 C 
BRANCH  14  15
ATOM     15  S   LIG    1       25.625 -22.444   7.482  0.00  0.00    -0.025 S 
ATOM     16  O   LIG    1       24.285 -21.983   7.914  0.00  0.00    -0.174 OA
ATOM     17  O   LIG    1       26.258 -23.584   8.062  0.00  0.00    -0.174 OA
BRANCH  15  19
ATOM     18  C   LIG    1       26.805 -20.166   6.526  0.00  0.00    +0.035 C 
ATOM     19  C   LIG    1       26.765 -21.076   7.776  0.00  0.00    +0.080 C 
ATOM     20  C   LIG    1       26.243 -20.268   8.965  0.00  0.00    +0.035 C 
ATOM     21  C   LIG    1       28.175 -21.604   8.012  0.00  0.00    +0.035 C 
ENDBRANCH  15  19
ENDBRANCH  14  15
ENDBRANCH   6  14
ENDBRANCH   2   6
ENDBRANCH   1   3
BRANCH   1  22
ATOM     22  C   LIG    1       25.933 -27.415   7.257  0.00  0.00    +0.234 C 
ATOM     23  N   LIG    1       25.674 -28.208   8.386  0.00  0.00    -0.308 N 
ATOM     24  H   LIG    1       24.869 -28.827   8.309  0.00  0.00    +0.149 HD
ATOM     25  O   LIG    1       27.036 -26.938   7.011  0.00  0.00    -0.274 OA
BRANCH  23  26
ATOM     26  C   LIG    1       26.702 -28.668   9.364  0.00  0.00    +0.104 C 
BRANCH  26  27
ATOM     27  C   LIG    1       26.688 -30.250   9.492  0.00  0.00    +0.163 C 
BRANCH  27  28
ATOM     28  O   LIG    1       27.643 -30.675  10.474  0.00  0.00    -0.387 OA
ATOM     29  H   LIG    1       28.460 -30.935  10.014  0.00  0.00    +0.210 HD
ENDBRANCH  27  28
BRANCH  27  30
ATOM     30  C   LIG    1       25.320 -30.989   9.655  0.00  0.00    +0.148 C 
BRANCH  30  31
ATOM     31  C   LIG    1       25.122 -31.815  10.902  0.00  0.00    +0.020 C 
ATOM     32  C   LIG    1       23.916 -32.730  11.055  0.00  0.00    +0.006 C 
ATOM     33  C   LIG    1       25.296 -33.314  11.000  0.00  0.00    +0.006 C 
ENDBRANCH  30  31
BRANCH  30  34
ATOM     34  O   LIG    1       24.265 -30.025   9.602  0.00  0.00    -0.389 OA
ATOM     35  H   LIG    1       24.320 -29.606   8.724  0.00  0.00    +0.210 HD
ENDBRANCH  30  34
ENDBRANCH  27  30
ENDBRANCH  26  27
BRANCH  26  36
ATOM     36  C   LIG    1       26.656 -27.946  10.775  0.00  0.00    +0.028 C 
BRANCH  36  37
ATOM     37  C   LIG    1       26.203 -28.768  12.038  0.00  0.00    -0.009 C 
ATOM     38  C   LIG    1       27.109 -28.608  13.240  0.00  0.00    +0.003 C 
ATOM     39  C   LIG    1       27.093 -27.159  13.683  0.00  0.00    +0.000 C 
ATOM     40  C   LIG    1       25.744 -26.741  14.257  0.00  0.00    +0.000 C 
ATOM     41  C   LIG    1       24.636 -27.053  13.254  0.00  0.00    +0.000 C 
ATOM     42  C   LIG    1       24.782 -28.435  12.590  0.00  0.00    +0.003 C 
ENDBRANCH  36  37
ENDBRANCH  26  36
ENDBRANCH  23  26
ENDBRANCH   1  22
BRANCH   1  43
ATOM     43  C   LIG    1       24.233 -28.070   5.344  0.00  0.00    +0.086 C 
BRANCH  43  44
ATOM     44  C   LIG    1       24.608 -29.511   5.650  0.00  0.00    +0.037 A 
ATOM     45  N   LIG    1       25.843 -30.041   5.357  0.00  0.00    -0.348 N 
ATOM     46  H   LIG    1       26.680 -29.507   5.153  0.00  0.00    +0.167 HD
ATOM     47  C   LIG    1       25.834 -31.372   5.637  0.00  0.00    +0.196 A 
ATOM     48  N   LIG    1       24.709 -31.724   6.209  0.00  0.00    -0.244 NA
ATOM     49  C   LIG    1       23.940 -30.580   6.222  0.00  0.00    +0.133 A 
ENDBRANCH  43  44
ENDBRANCH   1  43
TORSDOF 18
ENDMDL
MODEL 7
REMARK VINA RESULT:      -6.0      2.194      9.489
REMARK  Name = *****
REMARK                            x       y       z     vdW  Elec       q    Type
REMARK                         _______ _______ _______ _____ _____    ______ ____
ROOT
ATOM      1  C   LIG    1       24.339 -28.428   6.455  0.00  0.00    +0.165 C 
ENDROOT
BRANCH   1   3
ATOM      2  C   LIG    1       24.282 -25.961   6.026  0.00  0.00    +0.219 C 
ATOM      3  N   LIG    1       24.441 -27.017   6.891  0.00  0.00    -0.303 N 
ATOM      4  H   LIG    1       24.375 -26.841   7.888  0.00  0.00    +0.149 HD
ATOM      5  O   LIG    1       23.955 -26.125   4.849  0.00  0.00    -0.275 OA
BRANCH   2   6
ATOM      6  C   LIG    1       24.533 -24.562   6.585  0.00  0.00    +0.100 C 
BRANCH   6   7
ATOM      7  C   LIG    1       26.019 -24.241   6.889  0.00  0.00    +0.049 C 
BRANCH   7   8
ATOM      8  C   LIG    1       26.442 -22.894   7.429  0.00  0.00    -0.047 A 
ATOM      9  C   LIG    1       27.405 -22.163   6.726  0.00  0.00    +0.003 A 
ATOM     10  C   LIG    1       27.730 -20.852   7.077  0.00  0.00    +0.000 A 
ATOM     11  C   LIG    1       27.108 -20.249   8.162  0.00  0.00    +0.000 A 
ATOM     12  C   LIG    1       26.121 -20.945   8.858  0.00  0.00    +0.000 A 
ATOM     13  C   LIG    1       25.783 -22.258   8.489  0.00  0.00    +0.003 A 
ENDBRANCH   7   8
ENDBRANCH   6   7
BRANCH   6  14
ATOM     14  C   LIG    1       24.068 -23.528   5.513  0.00  0.00    +0.179 C 
BRANCH  14  15
ATOM     15  S   LIG    1       22.834 -22.398   6.143  0.00  0.00    -0.025 S 
ATOM     16  O   LIG    1       21.569 -22.654   5.416  0.00  0.00    -0.174 OA
ATOM     17  O   LIG    1       22.932 -22.516   7.562  0.00  0.00    -0.174 OA
BRANCH  15  19
ATOM     18  C   LIG    1       22.235 -20.051   4.866  0.00  0.00    +0.035 C 
ATOM     19  C   LIG    1       23.303 -20.693   5.781  0.00  0.00    +0.080 C 
ATOM     20  C   LIG    1       23.357 -19.924   7.102  0.00  0.00    +0.035 C 
ATOM     21  C   LIG    1       24.634 -20.657   5.038  0.00  0.00    +0.035 C 
ENDBRANCH  15  19
ENDBRANCH  14  15
ENDBRANCH   6  14
ENDBRANCH   2   6
ENDBRANCH   1   3
BRANCH   1  22
ATOM     22  C   LIG    1       24.215 -29.353   7.722  0.00  0.00    +0.234 C 
ATOM     23  N   LIG    1       25.015 -28.945   8.801  0.00  0.00    -0.308 N 
ATOM     24  H   LIG    1       25.180 -27.942   8.866  0.00  0.00    +0.149 HD
ATOM     25  O   LIG    1       23.594 -30.411   7.710  0.00  0.00    -0.274 OA
BRANCH  23  26
ATOM     26  C   LIG    1       25.132 -29.665  10.102  0.00  0.00    +0.104 C 
BRANCH  26  27
ATOM     27  C   LIG    1       26.639 -30.073  10.386  0.00  0.00    +0.163 C 
BRANCH  27  28
ATOM     28  O   LIG    1       27.321 -30.337   9.152  0.00  0.00    -0.387 OA
ATOM     29  H   LIG    1       26.761 -30.918   8.610  0.00  0.00    +0.210 HD
ENDBRANCH  27  28
BRANCH  27  30
ATOM     30  C   LIG    1       27.499 -29.190  11.347  0.00  0.00    +0.148 C 
BRANCH  30  31
ATOM     31  C   LIG    1       26.952 -28.931  12.729  0.00  0.00    +0.020 C 
ATOM     32  C   LIG    1       27.398 -27.721  13.537  0.00  0.00    +0.006 C 
ATOM     33  C   LIG    1       25.969 -27.841  13.095  0.00  0.00    +0.006 C 
ENDBRANCH  30  31
BRANCH  30  34
ATOM     34  O   LIG    1       28.788 -29.794  11.498  0.00  0.00    -0.389 OA
ATOM     35  H   LIG    1       29.123 -29.953  10.596  0.00  0.00    +0.210 HD
ENDBRANCH  30  34
ENDBRANCH  27  30
ENDBRANCH  26  27
BRANCH  26  36
ATOM     36  C   LIG    1       24.129 -30.879  10.289  0.00  0.00    +0.028 C 
BRANCH  36  37
ATOM     37  C   LIG    1       22.731 -30.616  10.960  0.00  0.00    -0.009 C 
ATOM     38  C   LIG    1       22.003 -31.872  11.391  0.00  0.00    +0.003 C 
ATOM     39  C   LIG    1       22.823 -32.582  12.448  0.00  0.00    +0.000 C 
ATOM     40  C   LIG    1       22.890 -31.802  13.756  0.00  0.00    +0.000 C 
ATOM     41  C   LIG    1       23.390 -30.385  13.488  0.00  0.00    +0.000 C 
ATOM     42  C   LIG    1       22.752 -29.734  12.247  0.00  0.00    +0.003 C 
ENDBRANCH  36  37
ENDBRANCH  26  36
ENDBRANCH  23  26
ENDBRANCH   1  22
BRANCH   1  43
ATOM     43  C   LIG    1       25.502 -28.808   5.480  0.00  0.00    +0.086 C 
BRANCH  43  44
ATOM     44  C   LIG    1       25.788 -30.296   5.370  0.00  0.00    +0.037 A 
ATOM     45  N   LIG    1       26.343 -31.029   6.393  0.00  0.00    -0.348 N 
ATOM     46  H   LIG    1       26.388 -30.745   7.365  0.00  0.00    +0.167 HD
ATOM     47  C   LIG    1       26.585 -32.294   5.955  0.00  0.00    +0.196 A 
ATOM     48  N   LIG    1       26.112 -32.470   4.745  0.00  0.00    -0.244 NA
ATOM     49  C   LIG    1       25.616 -31.239   4.371  0.00  0.00    +0.133 A 
ENDBRANCH  43  44
ENDBRANCH   1  43
TORSDOF 18
ENDMDL
MODEL 8
REMARK VINA RESULT:      -6.0      3.168      9.913
REMARK  Name = *****
REMARK                            x       y       z     vdW  Elec       q    Type
REMARK                         _______ _______ _______ _____ _____    ______ ____
ROOT
ATOM      1  C   LIG    1       25.176 -24.609   6.936  0.00  0.00    +0.165 C 
ENDROOT
BRANCH   1   3
ATOM      2  C   LIG    1       26.741 -22.678   7.250  0.00  0.00    +0.219 C 
ATOM      3  N   LIG    1       26.161 -23.624   6.438  0.00  0.00    -0.303 N 
ATOM      4  H   LIG    1       26.594 -23.823   5.541  0.00  0.00    +0.149 HD
ATOM      5  O   LIG    1       26.540 -22.653   8.465  0.00  0.00    -0.275 OA
BRANCH   2   6
ATOM      6  C   LIG    1       27.648 -21.648   6.580  0.00  0.00    +0.100 C 
BRANCH   6   7
ATOM      7  C   LIG    1       27.007 -20.251   6.379  0.00  0.00    +0.049 C 
BRANCH   7   8
ATOM      8  C   LIG    1       26.375 -19.853   5.065  0.00  0.00    -0.047 A 
ATOM      9  C   LIG    1       25.382 -20.675   4.523  0.00  0.00    +0.003 A 
ATOM     10  C   LIG    1       24.649 -20.295   3.398  0.00  0.00    +0.000 A 
ATOM     11  C   LIG    1       24.913 -19.083   2.774  0.00  0.00    +0.000 A 
ATOM     12  C   LIG    1       25.875 -18.231   3.315  0.00  0.00    +0.000 A 
ATOM     13  C   LIG    1       26.597 -18.609   4.459  0.00  0.00    +0.003 A 
ENDBRANCH   7   8
ENDBRANCH   6   7
BRANCH   6  14
ATOM     14  C   LIG    1       28.890 -21.436   7.499  0.00  0.00    +0.179 C 
BRANCH  14  15
ATOM     15  S   LIG    1       29.246 -19.706   7.778  0.00  0.00    -0.025 S 
ATOM     16  O   LIG    1       29.362 -19.046   6.457  0.00  0.00    -0.174 OA
ATOM     17  O   LIG    1       28.285 -19.295   8.750  0.00  0.00    -0.174 OA
BRANCH  15  19
ATOM     18  C   LIG    1       31.862 -18.918   7.595  0.00  0.00    +0.035 C 
ATOM     19  C   LIG    1       30.845 -19.519   8.594  0.00  0.00    +0.080 C 
ATOM     20  C   LIG    1       30.671 -18.556   9.769  0.00  0.00    +0.035 C 
ATOM     21  C   LIG    1       31.376 -20.878   9.036  0.00  0.00    +0.035 C 
ENDBRANCH  15  19
ENDBRANCH  14  15
ENDBRANCH   6  14
ENDBRANCH   2   6
ENDBRANCH   1   3
BRANCH   1  22
ATOM     22  C   LIG    1       25.656 -26.059   6.556  0.00  0.00    +0.234 C 
ATOM     23  N   LIG    1       24.876 -27.080   7.121  0.00  0.00    -0.308 N 
ATOM     24  H   LIG    1       23.896 -26.847   7.270  0.00  0.00    +0.149 HD
ATOM     25  O   LIG    1       26.701 -26.271   5.949  0.00  0.00    -0.274 OA
BRANCH  23  26
ATOM     26  C   LIG    1       25.137 -28.540   6.970  0.00  0.00    +0.104 C 
BRANCH  26  27
ATOM     27  C   LIG    1       24.134 -29.185   5.923  0.00  0.00    +0.163 C 
BRANCH  27  28
ATOM     28  O   LIG    1       23.848 -28.251   4.872  0.00  0.00    -0.387 OA
ATOM     29  H   LIG    1       23.587 -28.751   4.080  0.00  0.00    +0.210 HD
ENDBRANCH  27  28
BRANCH  27  30
ATOM     30  C   LIG    1       24.432 -30.614   5.363  0.00  0.00    +0.148 C 
BRANCH  30  31
ATOM     31  C   LIG    1       25.740 -31.255   5.755  0.00  0.00    +0.020 C 
ATOM     32  C   LIG    1       25.777 -32.627   6.414  0.00  0.00    +0.006 C 
ATOM     33  C   LIG    1       26.387 -32.430   5.057  0.00  0.00    +0.006 C 
ENDBRANCH  30  31
BRANCH  30  34
ATOM     34  O   LIG    1       23.379 -31.496   5.766  0.00  0.00    -0.389 OA
ATOM     35  H   LIG    1       22.619 -30.929   5.990  0.00  0.00    +0.210 HD
ENDBRANCH  30  34
ENDBRANCH  27  30
ENDBRANCH  26  27
BRANCH  26  36
ATOM     36  C   LIG    1       25.198 -29.354   8.330  0.00  0.00    +0.028 C 
BRANCH  36  37
ATOM     37  C   LIG    1       26.571 -29.461   9.092  0.00  0.00    -0.009 C 
ATOM     38  C   LIG    1       26.712 -28.500  10.254  0.00  0.00    +0.003 C 
ATOM     39  C   LIG    1       25.656 -28.818  11.291  0.00  0.00    +0.000 C 
ATOM     40  C   LIG    1       25.895 -30.161  11.973  0.00  0.00    +0.000 C 
ATOM     41  C   LIG    1       26.024 -31.259  10.921  0.00  0.00    +0.000 C 
ATOM     42  C   LIG    1       26.893 -30.854   9.715  0.00  0.00    +0.003 C 
ENDBRANCH  36  37
ENDBRANCH  26  36
ENDBRANCH  23  26
ENDBRANCH   1  22
BRANCH   1  43
ATOM     43  C   LIG    1       23.728 -24.255   6.461  0.00  0.00    +0.086 C 
BRANCH  43  44
ATOM     44  C   LIG    1       23.341 -22.794   6.616  0.00  0.00    +0.037 A 
ATOM     45  N   LIG    1       22.608 -22.110   5.674  0.00  0.00    -0.348 N 
ATOM     46  H   LIG    1       22.056 -22.532   4.937  0.00  0.00    +0.167 HD
ATOM     47  C   LIG    1       22.526 -20.801   6.038  0.00  0.00    +0.196 A 
ATOM     48  N   LIG    1       23.056 -20.609   7.220  0.00  0.00    -0.244 NA
ATOM     49  C   LIG    1       23.566 -21.836   7.590  0.00  0.00    +0.133 A 
ENDBRANCH  43  44
ENDBRANCH   1  43
TORSDOF 18
ENDMDL
MODEL 9
REMARK VINA RESULT:      -5.9      3.776      8.263
REMARK  Name = *****
REMARK                            x       y       z     vdW  Elec       q    Type
REMARK                         _______ _______ _______ _____ _____    ______ ____
ROOT
ATOM      1  C   LIG    1       23.053 -32.274   9.248  0.00  0.00    +0.165 C 
ENDROOT
BRANCH   1   3
ATOM      2  C   LIG    1       24.501 -30.372   8.496  0.00  0.00    +0.219 C 
ATOM      3  N   LIG    1       24.362 -31.597   9.105  0.00  0.00    -0.303 N 
ATOM      4  H   LIG    1       25.117 -31.935   9.693  0.00  0.00    +0.149 HD
ATOM      5  O   LIG    1       23.528 -29.722   8.111  0.00  0.00    -0.275 OA
BRANCH   2   6
ATOM      6  C   LIG    1       25.923 -29.847   8.309  0.00  0.00    +0.100 C 
BRANCH   6   7
ATOM      7  C   LIG    1       26.056 -28.303   8.346  0.00  0.00    +0.049 C 
BRANCH   7   8
ATOM      8  C   LIG    1       25.743 -27.455   7.135  0.00  0.00    -0.047 A 
ATOM      9  C   LIG    1       25.860 -26.065   7.242  0.00  0.00    +0.003 A 
ATOM     10  C   LIG    1       25.738 -25.232   6.128  0.00  0.00    +0.000 A 
ATOM     11  C   LIG    1       25.473 -25.775   4.879  0.00  0.00    +0.000 A 
ATOM     12  C   LIG    1       25.386 -27.160   4.741  0.00  0.00    +0.000 A 
ATOM     13  C   LIG    1       25.529 -27.997   5.860  0.00  0.00    +0.003 A 
ENDBRANCH   7   8
ENDBRANCH   6   7
BRANCH   6  14
ATOM     14  C   LIG    1       26.792 -30.393   9.485  0.00  0.00    +0.179 C 
BRANCH  14  15
ATOM     15  S   LIG    1       26.052 -30.080  11.083  0.00  0.00    -0.025 S 
ATOM     16  O   LIG    1       24.840 -29.255  10.870  0.00  0.00    -0.174 OA
ATOM     17  O   LIG    1       25.997 -31.362  11.708  0.00  0.00    -0.174 OA
BRANCH  15  19
ATOM     18  C   LIG    1       26.903 -27.601  11.871  0.00  0.00    +0.035 C 
ATOM     19  C   LIG    1       27.170 -29.105  12.110  0.00  0.00    +0.080 C 
ATOM     20  C   LIG    1       26.882 -29.437  13.575  0.00  0.00    +0.035 C 
ATOM     21  C   LIG    1       28.619 -29.386  11.730  0.00  0.00    +0.035 C 
ENDBRANCH  15  19
ENDBRANCH  14  15
ENDBRANCH   6  14
ENDBRANCH   2   6
ENDBRANCH   1   3
BRANCH   1  22
ATOM     22  C   LIG    1       22.736 -32.469  10.777  0.00  0.00    +0.234 C 
ATOM     23  N   LIG    1       22.346 -31.289  11.429  0.00  0.00    -0.308 N 
ATOM     24  H   LIG    1       21.855 -30.612  10.848  0.00  0.00    +0.149 HD
ATOM     25  O   LIG    1       22.956 -33.521  11.369  0.00  0.00    -0.274 OA
BRANCH  23  26
ATOM     26  C   LIG    1       22.038 -31.175  12.884  0.00  0.00    +0.104 C 
BRANCH  26  27
ATOM     27  C   LIG    1       20.505 -31.474  13.160  0.00  0.00    +0.163 C 
BRANCH  27  28
ATOM     28  O   LIG    1       20.183 -31.186  14.528  0.00  0.00    -0.387 OA
ATOM     29  H   LIG    1       20.339 -31.987  15.056  0.00  0.00    +0.210 HD
ENDBRANCH  27  28
BRANCH  27  30
ATOM     30  C   LIG    1       19.428 -30.907  12.179  0.00  0.00    +0.148 C 
BRANCH  30  31
ATOM     31  C   LIG    1       18.671 -31.899  11.331  0.00  0.00    +0.020 C 
ATOM     32  C   LIG    1       18.182 -31.530   9.937  0.00  0.00    +0.006 C 
ATOM     33  C   LIG    1       19.213 -32.605  10.109  0.00  0.00    +0.006 C 
ENDBRANCH  30  31
BRANCH  30  34
ATOM     34  O   LIG    1       18.469 -30.158  12.930  0.00  0.00    -0.389 OA
ATOM     35  H   LIG    1       18.755 -29.227  12.889  0.00  0.00    +0.210 HD
ENDBRANCH  30  34
ENDBRANCH  27  30
ENDBRANCH  26  27
BRANCH  26  36
ATOM     36  C   LIG    1       22.526 -29.830  13.568  0.00  0.00    +0.028 C 
BRANCH  36  37
ATOM     37  C   LIG    1       22.376 -28.476  12.780  0.00  0.00    -0.009 C 
ATOM     38  C   LIG    1       20.998 -27.855  12.869  0.00  0.00    +0.003 C 
ATOM     39  C   LIG    1       20.704 -27.508  14.314  0.00  0.00    +0.000 C 
ATOM     40  C   LIG    1       21.584 -26.376  14.832  0.00  0.00    +0.000 C 
ATOM     41  C   LIG    1       23.054 -26.720  14.606  0.00  0.00    +0.000 C 
ATOM     42  C   LIG    1       23.336 -27.327  13.219  0.00  0.00    +0.003 C 
ENDBRANCH  36  37
ENDBRANCH  26  36
ENDBRANCH  23  26
ENDBRANCH   1  22
BRANCH   1  43
ATOM     43  C   LIG    1       22.994 -33.584   8.396  0.00  0.00    +0.086 C 
BRANCH  43  44
ATOM     44  C   LIG    1       23.616 -33.479   7.013  0.00  0.00    +0.037 A 
ATOM     45  N   LIG    1       24.921 -33.824   6.751  0.00  0.00    -0.348 N 
ATOM     46  H   LIG    1       25.511 -34.394   7.347  0.00  0.00    +0.167 HD
ATOM     47  C   LIG    1       25.215 -33.509   5.461  0.00  0.00    +0.196 A 
ATOM     48  N   LIG    1       24.149 -33.089   4.826  0.00  0.00    -0.244 NA
ATOM     49  C   LIG    1       23.151 -33.065   5.777  0.00  0.00    +0.133 A 
ENDBRANCH  43  44
ENDBRANCH   1  43
TORSDOF 18
ENDMDL
