MODEL 1
REMARK VINA RESULT:      -9.5      0.000      0.000
REMARK  Name = *****
REMARK                            x       y       z     vdW  Elec       q    Type
REMARK                         _______ _______ _______ _____ _____    ______ ____
ROOT
ATOM      1  C   LIG    1       25.456 -22.149   7.161  0.00  0.00    +0.095 C 
ENDROOT
BRANCH   1   2
ATOM      2  C   LIG    1       25.089 -23.665   7.196  0.00  0.00    +0.033 C 
ATOM      3  C   LIG    1       25.947 -24.610   6.295  0.00  0.00    +0.018 C 
ATOM      4  C   LIG    1       25.115 -24.743   5.015  0.00  0.00    +0.015 C 
ATOM      5  C   LIG    1       23.861 -25.205   5.755  0.00  0.00    +0.012 C 
ATOM      6  C   LIG    1       24.462 -26.351   6.534  0.00  0.00    -0.027 C 
ATOM      7  C   LIG    1       25.717 -26.012   6.836  0.00  0.00    -0.027 C 
ATOM      8  C   LIG    1       23.640 -24.012   6.707  0.00  0.00    +0.015 C 
ENDBRANCH   1   2
BRANCH   1   9
ATOM      9  C   LIG    1       24.553 -21.334   6.209  0.00  0.00    -0.016 A 
ATOM     10  C   LIG    1       23.382 -20.702   6.665  0.00  0.00    +0.006 A 
ATOM     11  C   LIG    1       22.614 -19.886   5.828  0.00  0.00    +0.000 A 
ATOM     12  C   LIG    1       22.994 -19.686   4.508  0.00  0.00    +0.000 A 
ATOM     13  C   LIG    1       24.122 -20.331   4.013  0.00  0.00    +0.000 A 
ATOM     14  C   LIG    1       24.882 -21.163   4.848  0.00  0.00    +0.006 A 
ENDBRANCH   1   9
BRANCH   1  15
ATOM     15  O   LIG    1       25.282 -21.635   8.498  0.00  0.00    -0.384 OA
ATOM     16  H   LIG    1       24.782 -22.292   9.010  0.00  0.00    +0.211 HD
ENDBRANCH   1  15
BRANCH   1  17
ATOM     17  C   LIG    1       26.966 -21.939   6.840  0.00  0.00    +0.055 C 
BRANCH  17  18
ATOM     18  C   LIG    1       27.829 -21.296   7.945  0.00  0.00    +0.087 C 
BRANCH  18  19
ATOM     19  N   LIG    1       29.247 -21.143   7.555  0.00  0.00    -0.302 NA
ATOM     20  C   LIG    1       29.409 -20.514   6.232  0.00  0.00    +0.084 C 
ATOM     21  C   LIG    1       29.166 -19.001   6.216  0.00  0.00    +0.015 C 
ATOM     22  C   LIG    1       30.001 -18.283   7.272  0.00  0.00    +0.002 C 
ATOM     23  C   LIG    1       29.843 -18.948   8.635  0.00  0.00    +0.015 C 
ATOM     24  C   LIG    1       30.086 -20.456   8.547  0.00  0.00    +0.084 C 
ENDBRANCH  18  19
ENDBRANCH  17  18
ENDBRANCH   1  17
TORSDOF 6
ENDMDL
MODEL 2
REMARK VINA RESULT:      -9.4      1.122      1.584
REMARK  Name = *****
REMARK                            x       y       z     vdW  Elec       q    Type
REMARK                         _______ _______ _______ _____ _____    ______ ____
ROOT
ATOM      1  C   LIG    1       24.517 -21.969   6.745  0.00  0.00    +0.095 C 
ENDROOT
BRANCH   1   2
ATOM      2  C   LIG    1       25.173 -23.238   6.116  0.00  0.00    +0.033 C 
ATOM      3  C   LIG    1       24.203 -24.268   5.453  0.00  0.00    +0.018 C 
ATOM      4  C   LIG    1       23.964 -25.303   6.558  0.00  0.00    +0.015 C 
ATOM      5  C   LIG    1       25.453 -25.573   6.770  0.00  0.00    +0.012 C 
ATOM      6  C   LIG    1       25.836 -25.886   5.342  0.00  0.00    -0.027 C 
ATOM      7  C   LIG    1       25.073 -25.129   4.551  0.00  0.00    -0.027 C 
ATOM      8  C   LIG    1       25.949 -24.156   7.124  0.00  0.00    +0.015 C 
ENDBRANCH   1   2
BRANCH   1   9
ATOM      9  C   LIG    1       24.064 -20.939   5.686  0.00  0.00    -0.016 A 
ATOM     10  C   LIG    1       22.912 -20.153   5.870  0.00  0.00    +0.006 A 
ATOM     11  C   LIG    1       22.552 -19.154   4.960  0.00  0.00    +0.000 A 
ATOM     12  C   LIG    1       23.333 -18.920   3.836  0.00  0.00    +0.000 A 
ATOM     13  C   LIG    1       24.453 -19.709   3.602  0.00  0.00    +0.000 A 
ATOM     14  C   LIG    1       24.804 -20.722   4.506  0.00  0.00    +0.006 A 
ENDBRANCH   1   9
BRANCH   1  15
ATOM     15  O   LIG    1       23.352 -22.407   7.476  0.00  0.00    -0.384 OA
ATOM     16  H   LIG    1       23.303 -23.375   7.410  0.00  0.00    +0.211 HD
ENDBRANCH   1  15
BRANCH   1  17
ATOM     17  C   LIG    1       25.447 -21.323   7.814  0.00  0.00    +0.055 C 
BRANCH  17  18
ATOM     18  C   LIG    1       26.479 -20.294   7.309  0.00  0.00    +0.087 C 
BRANCH  18  19
ATOM     19  N   LIG    1       27.678 -20.923   6.715  0.00  0.00    -0.302 NA
ATOM     20  C   LIG    1       28.198 -20.174   5.556  0.00  0.00    +0.084 C 
ATOM     21  C   LIG    1       28.958 -18.894   5.918  0.00  0.00    +0.015 C 
ATOM     22  C   LIG    1       30.060 -19.161   6.939  0.00  0.00    +0.002 C 
ATOM     23  C   LIG    1       29.522 -19.950   8.128  0.00  0.00    +0.015 C 
ATOM     24  C   LIG    1       28.764 -21.196   7.667  0.00  0.00    +0.084 C 
ENDBRANCH  18  19
ENDBRANCH  17  18
ENDBRANCH   1  17
TORSDOF 6
ENDMDL
MODEL 3
REMARK VINA RESULT:      -9.3      0.625      1.478
REMARK  Name = *****
REMARK                            x       y       z     vdW  Elec       q    Type
REMARK                         _______ _______ _______ _____ _____    ______ ____
ROOT
ATOM      1  C   LIG    1       25.522 -21.961   7.373  0.00  0.00    +0.095 C 
ENDROOT
BRANCH   1   2
ATOM      2  C   LIG    1       25.127 -23.469   7.319  0.00  0.00    +0.033 C 
ATOM      3  C   LIG    1       25.952 -24.371   6.345  0.00  0.00    +0.018 C 
ATOM      4  C   LIG    1       25.096 -24.408   5.074  0.00  0.00    +0.015 C 
ATOM      5  C   LIG    1       23.846 -24.893   5.806  0.00  0.00    +0.012 C 
ATOM      6  C   LIG    1       24.437 -26.097   6.501  0.00  0.00    -0.027 C 
ATOM      7  C   LIG    1       25.704 -25.800   6.800  0.00  0.00    -0.027 C 
ATOM      8  C   LIG    1       23.663 -23.759   6.835  0.00  0.00    +0.015 C 
ENDBRANCH   1   2
BRANCH   1   9
ATOM      9  C   LIG    1       24.743 -21.099   6.355  0.00  0.00    -0.016 A 
ATOM     10  C   LIG    1       25.262 -20.818   5.077  0.00  0.00    +0.006 A 
ATOM     11  C   LIG    1       24.521 -20.119   4.120  0.00  0.00    +0.000 A 
ATOM     12  C   LIG    1       23.240 -19.674   4.418  0.00  0.00    +0.000 A 
ATOM     13  C   LIG    1       22.714 -19.896   5.687  0.00  0.00    +0.000 A 
ATOM     14  C   LIG    1       23.465 -20.582   6.652  0.00  0.00    +0.006 A 
ENDBRANCH   1   9
BRANCH   1  15
ATOM     15  O   LIG    1       25.212 -21.484   8.699  0.00  0.00    -0.384 OA
ATOM     16  H   LIG    1       25.372 -20.525   8.719  0.00  0.00    +0.211 HD
ENDBRANCH   1  15
BRANCH   1  17
ATOM     17  C   LIG    1       27.061 -21.773   7.225  0.00  0.00    +0.055 C 
BRANCH  17  18
ATOM     18  C   LIG    1       27.638 -20.404   7.637  0.00  0.00    +0.087 C 
BRANCH  18  19
ATOM     19  N   LIG    1       28.923 -20.094   6.974  0.00  0.00    -0.302 NA
ATOM     20  C   LIG    1       29.395 -18.727   7.257  0.00  0.00    +0.084 C 
ATOM     21  C   LIG    1       29.988 -18.537   8.657  0.00  0.00    +0.015 C 
ATOM     22  C   LIG    1       31.075 -19.566   8.954  0.00  0.00    +0.002 C 
ATOM     23  C   LIG    1       30.589 -20.977   8.644  0.00  0.00    +0.015 C 
ATOM     24  C   LIG    1       29.998 -21.062   7.236  0.00  0.00    +0.084 C 
ENDBRANCH  18  19
ENDBRANCH  17  18
ENDBRANCH   1  17
TORSDOF 6
ENDMDL
MODEL 4
REMARK VINA RESULT:      -8.5      2.291      5.541
REMARK  Name = *****
REMARK                            x       y       z     vdW  Elec       q    Type
REMARK                         _______ _______ _______ _____ _____    ______ ____
ROOT
ATOM      1  C   LIG    1       24.508 -22.222   5.500  0.00  0.00    +0.095 C 
ENDROOT
BRANCH   1   2
ATOM      2  C   LIG    1       25.824 -22.053   6.321  0.00  0.00    +0.033 C 
ATOM      3  C   LIG    1       25.678 -22.036   7.877  0.00  0.00    +0.018 C 
ATOM      4  C   LIG    1       25.623 -20.543   8.219  0.00  0.00    +0.015 C 
ATOM      5  C   LIG    1       26.932 -20.224   7.499  0.00  0.00    +0.012 C 
ATOM      6  C   LIG    1       27.819 -21.246   8.170  0.00  0.00    -0.027 C 
ATOM      7  C   LIG    1       27.068 -22.320   8.423  0.00  0.00    -0.027 C 
ATOM      8  C   LIG    1       26.596 -20.710   6.074  0.00  0.00    +0.015 C 
ENDBRANCH   1   2
BRANCH   1   9
ATOM      9  C   LIG    1       23.898 -20.874   5.056  0.00  0.00    -0.016 A 
ATOM     10  C   LIG    1       24.334 -20.216   3.892  0.00  0.00    +0.006 A 
ATOM     11  C   LIG    1       23.721 -19.045   3.436  0.00  0.00    +0.000 A 
ATOM     12  C   LIG    1       22.656 -18.496   4.139  0.00  0.00    +0.000 A 
ATOM     13  C   LIG    1       22.230 -19.097   5.318  0.00  0.00    +0.000 A 
ATOM     14  C   LIG    1       22.856 -20.262   5.784  0.00  0.00    +0.006 A 
ENDBRANCH   1   9
BRANCH   1  15
ATOM     15  O   LIG    1       24.836 -22.981   4.316  0.00  0.00    -0.384 OA
ATOM     16  H   LIG    1       24.010 -23.161   3.837  0.00  0.00    +0.211 HD
ENDBRANCH   1  15
BRANCH   1  17
ATOM     17  C   LIG    1       23.472 -23.097   6.266  0.00  0.00    +0.055 C 
BRANCH  17  18
ATOM     18  C   LIG    1       23.947 -24.486   6.738  0.00  0.00    +0.087 C 
BRANCH  18  19
ATOM     19  N   LIG    1       24.808 -25.170   5.750  0.00  0.00    -0.302 NA
ATOM     20  C   LIG    1       26.139 -25.504   6.288  0.00  0.00    +0.084 C 
ATOM     21  C   LIG    1       26.154 -26.704   7.241  0.00  0.00    +0.015 C 
ATOM     22  C   LIG    1       25.490 -27.928   6.617  0.00  0.00    +0.002 C 
ATOM     23  C   LIG    1       24.122 -27.575   6.046  0.00  0.00    +0.015 C 
ATOM     24  C   LIG    1       24.205 -26.356   5.126  0.00  0.00    +0.084 C 
ENDBRANCH  18  19
ENDBRANCH  17  18
ENDBRANCH   1  17
TORSDOF 6
ENDMDL
MODEL 5
REMARK VINA RESULT:      -8.5      1.618      6.050
REMARK  Name = *****
REMARK                            x       y       z     vdW  Elec       q    Type
REMARK                         _______ _______ _______ _____ _____    ______ ____
ROOT
ATOM      1  C   LIG    1       25.268 -21.513   6.553  0.00  0.00    +0.095 C 
ENDROOT
BRANCH   1   2
ATOM      2  C   LIG    1       24.470 -20.432   5.761  0.00  0.00    +0.033 C 
ATOM      3  C   LIG    1       22.954 -20.286   6.114  0.00  0.00    +0.018 C 
ATOM      4  C   LIG    1       22.252 -21.150   5.060  0.00  0.00    +0.015 C 
ATOM      5  C   LIG    1       22.909 -20.431   3.884  0.00  0.00    +0.012 C 
ATOM      6  C   LIG    1       22.538 -19.011   4.244  0.00  0.00    -0.027 C 
ATOM      7  C   LIG    1       22.537 -18.927   5.576  0.00  0.00    -0.027 C 
ATOM      8  C   LIG    1       24.399 -20.658   4.210  0.00  0.00    +0.015 C 
ENDBRANCH   1   2
BRANCH   1   9
ATOM      9  C   LIG    1       26.733 -21.102   6.822  0.00  0.00    -0.016 A 
ATOM     10  C   LIG    1       27.463 -21.639   7.898  0.00  0.00    +0.006 A 
ATOM     11  C   LIG    1       28.816 -21.342   8.089  0.00  0.00    +0.000 A 
ATOM     12  C   LIG    1       29.474 -20.492   7.211  0.00  0.00    +0.000 A 
ATOM     13  C   LIG    1       28.771 -19.910   6.163  0.00  0.00    +0.000 A 
ATOM     14  C   LIG    1       27.410 -20.194   5.981  0.00  0.00    +0.006 A 
ENDBRANCH   1   9
BRANCH   1  15
ATOM     15  O   LIG    1       24.607 -21.688   7.824  0.00  0.00    -0.384 OA
ATOM     16  H   LIG    1       25.260 -22.031   8.457  0.00  0.00    +0.211 HD
ENDBRANCH   1  15
BRANCH   1  17
ATOM     17  C   LIG    1       25.181 -22.904   5.857  0.00  0.00    +0.055 C 
BRANCH  17  18
ATOM     18  C   LIG    1       25.816 -24.096   6.601  0.00  0.00    +0.087 C 
BRANCH  18  19
ATOM     19  N   LIG    1       26.188 -25.208   5.701  0.00  0.00    -0.302 NA
ATOM     20  C   LIG    1       26.759 -26.359   6.423  0.00  0.00    +0.084 C 
ATOM     21  C   LIG    1       25.730 -27.212   7.172  0.00  0.00    +0.015 C 
ATOM     22  C   LIG    1       24.587 -27.648   6.260  0.00  0.00    +0.002 C 
ATOM     23  C   LIG    1       24.011 -26.458   5.502  0.00  0.00    +0.015 C 
ATOM     24  C   LIG    1       25.113 -25.659   4.805  0.00  0.00    +0.084 C 
ENDBRANCH  18  19
ENDBRANCH  17  18
ENDBRANCH   1  17
TORSDOF 6
ENDMDL
MODEL 6
REMARK VINA RESULT:      -8.4      1.635      5.809
REMARK  Name = *****
REMARK                            x       y       z     vdW  Elec       q    Type
REMARK                         _______ _______ _______ _____ _____    ______ ____
ROOT
ATOM      1  C   LIG    1       25.431 -21.385   6.663  0.00  0.00    +0.095 C 
ENDROOT
BRANCH   1   2
ATOM      2  C   LIG    1       24.563 -20.414   5.804  0.00  0.00    +0.033 C 
ATOM      3  C   LIG    1       23.056 -20.292   6.200  0.00  0.00    +0.018 C 
ATOM      4  C   LIG    1       22.353 -21.277   5.259  0.00  0.00    +0.015 C 
ATOM      5  C   LIG    1       22.940 -20.648   3.996  0.00  0.00    +0.012 C 
ATOM      6  C   LIG    1       22.524 -19.216   4.237  0.00  0.00    -0.027 C 
ATOM      7  C   LIG    1       22.565 -19.006   5.554  0.00  0.00    -0.027 C 
ATOM      8  C   LIG    1       24.448 -20.788   4.285  0.00  0.00    +0.015 C 
ENDBRANCH   1   2
BRANCH   1   9
ATOM      9  C   LIG    1       26.893 -20.910   6.815  0.00  0.00    -0.016 A 
ATOM     10  C   LIG    1       27.717 -21.383   7.852  0.00  0.00    +0.006 A 
ATOM     11  C   LIG    1       29.067 -21.028   7.938  0.00  0.00    +0.000 A 
ATOM     12  C   LIG    1       29.628 -20.182   6.990  0.00  0.00    +0.000 A 
ATOM     13  C   LIG    1       28.829 -19.661   5.978  0.00  0.00    +0.000 A 
ATOM     14  C   LIG    1       27.472 -20.004   5.902  0.00  0.00    +0.006 A 
ENDBRANCH   1   9
BRANCH   1  15
ATOM     15  O   LIG    1       24.836 -21.445   7.976  0.00  0.00    -0.384 OA
ATOM     16  H   LIG    1       23.871 -21.398   7.871  0.00  0.00    +0.211 HD
ENDBRANCH   1  15
BRANCH   1  17
ATOM     17  C   LIG    1       25.355 -22.843   6.119  0.00  0.00    +0.055 C 
BRANCH  17  18
ATOM     18  C   LIG    1       25.970 -23.948   7.001  0.00  0.00    +0.087 C 
BRANCH  18  19
ATOM     19  N   LIG    1       25.191 -25.204   6.981  0.00  0.00    -0.302 NA
ATOM     20  C   LIG    1       24.293 -25.299   5.816  0.00  0.00    +0.084 C 
ATOM     21  C   LIG    1       24.999 -25.630   4.497  0.00  0.00    +0.015 C 
ATOM     22  C   LIG    1       25.872 -26.875   4.620  0.00  0.00    +0.002 C 
ATOM     23  C   LIG    1       26.787 -26.781   5.836  0.00  0.00    +0.015 C 
ATOM     24  C   LIG    1       25.996 -26.428   7.097  0.00  0.00    +0.084 C 
ENDBRANCH  18  19
ENDBRANCH  17  18
ENDBRANCH   1  17
TORSDOF 6
ENDMDL
MODEL 7
REMARK VINA RESULT:      -8.4      2.337      4.757
REMARK  Name = *****
REMARK                            x       y       z     vdW  Elec       q    Type
REMARK                         _______ _______ _______ _____ _____    ______ ____
ROOT
ATOM      1  C   LIG    1       24.658 -23.120   6.144  0.00  0.00    +0.095 C 
ENDROOT
BRANCH   1   2
ATOM      2  C   LIG    1       24.804 -24.592   6.639  0.00  0.00    +0.033 C 
ATOM      3  C   LIG    1       26.066 -25.372   6.147  0.00  0.00    +0.018 C 
ATOM      4  C   LIG    1       25.560 -26.147   4.925  0.00  0.00    +0.015 C 
ATOM      5  C   LIG    1       24.414 -26.808   5.690  0.00  0.00    +0.012 C 
ATOM      6  C   LIG    1       25.209 -27.394   6.834  0.00  0.00    -0.027 C 
ATOM      7  C   LIG    1       26.213 -26.553   7.092  0.00  0.00    -0.027 C 
ATOM      8  C   LIG    1       23.655 -25.563   6.193  0.00  0.00    +0.015 C 
ENDBRANCH   1   2
BRANCH   1   9
ATOM      9  C   LIG    1       25.675 -22.161   6.801  0.00  0.00    -0.016 A 
ATOM     10  C   LIG    1       26.540 -21.363   6.029  0.00  0.00    +0.006 A 
ATOM     11  C   LIG    1       27.395 -20.426   6.617  0.00  0.00    +0.000 A 
ATOM     12  C   LIG    1       27.413 -20.266   7.996  0.00  0.00    +0.000 A 
ATOM     13  C   LIG    1       26.603 -21.071   8.791  0.00  0.00    +0.000 A 
ATOM     14  C   LIG    1       25.759 -22.023   8.202  0.00  0.00    +0.006 A 
ENDBRANCH   1   9
BRANCH   1  15
ATOM     15  O   LIG    1       24.894 -23.122   4.720  0.00  0.00    -0.384 OA
ATOM     16  H   LIG    1       25.417 -22.333   4.501  0.00  0.00    +0.211 HD
ENDBRANCH   1  15
BRANCH   1  17
ATOM     17  C   LIG    1       23.196 -22.609   6.311  0.00  0.00    +0.055 C 
BRANCH  17  18
ATOM     18  C   LIG    1       22.943 -21.116   6.019  0.00  0.00    +0.087 C 
BRANCH  18  19
ATOM     19  N   LIG    1       22.601 -20.853   4.605  0.00  0.00    -0.302 NA
ATOM     20  C   LIG    1       21.671 -19.721   4.445  0.00  0.00    +0.084 C 
ATOM     21  C   LIG    1       22.314 -18.342   4.622  0.00  0.00    +0.015 C 
ATOM     22  C   LIG    1       23.543 -18.173   3.733  0.00  0.00    +0.002 C 
ATOM     23  C   LIG    1       24.494 -19.354   3.889  0.00  0.00    +0.015 C 
ATOM     24  C   LIG    1       23.758 -20.684   3.715  0.00  0.00    +0.084 C 
ENDBRANCH  18  19
ENDBRANCH  17  18
ENDBRANCH   1  17
TORSDOF 6
ENDMDL
MODEL 8
REMARK VINA RESULT:      -8.1      1.207      3.966
REMARK  Name = *****
REMARK                            x       y       z     vdW  Elec       q    Type
REMARK                         _______ _______ _______ _____ _____    ______ ____
ROOT
ATOM      1  C   LIG    1       25.753 -21.453   6.507  0.00  0.00    +0.095 C 
ENDROOT
BRANCH   1   2
ATOM      2  C   LIG    1       24.841 -20.368   5.853  0.00  0.00    +0.033 C 
ATOM      3  C   LIG    1       23.503 -20.872   5.221  0.00  0.00    +0.018 C 
ATOM      4  C   LIG    1       23.849 -21.050   3.738  0.00  0.00    +0.015 C 
ATOM      5  C   LIG    1       24.362 -19.620   3.580  0.00  0.00    +0.012 C 
ATOM      6  C   LIG    1       23.159 -18.881   4.118  0.00  0.00    -0.027 C 
ATOM      7  C   LIG    1       22.626 -19.638   5.080  0.00  0.00    -0.027 C 
ATOM      8  C   LIG    1       25.479 -19.602   4.642  0.00  0.00    +0.015 C 
ENDBRANCH   1   2
BRANCH   1   9
ATOM      9  C   LIG    1       25.097 -22.851   6.538  0.00  0.00    -0.016 A 
ATOM     10  C   LIG    1       23.728 -23.016   6.816  0.00  0.00    +0.006 A 
ATOM     11  C   LIG    1       23.111 -24.270   6.751  0.00  0.00    +0.000 A 
ATOM     12  C   LIG    1       23.852 -25.395   6.414  0.00  0.00    +0.000 A 
ATOM     13  C   LIG    1       25.216 -25.273   6.177  0.00  0.00    +0.000 A 
ATOM     14  C   LIG    1       25.838 -24.018   6.258  0.00  0.00    +0.006 A 
ENDBRANCH   1   9
BRANCH   1  15
ATOM     15  O   LIG    1       26.956 -21.535   5.715  0.00  0.00    -0.384 OA
ATOM     16  H   LIG    1       26.912 -22.350   5.186  0.00  0.00    +0.211 HD
ENDBRANCH   1  15
BRANCH   1  17
ATOM     17  C   LIG    1       26.230 -21.011   7.923  0.00  0.00    +0.055 C 
BRANCH  17  18
ATOM     18  C   LIG    1       27.465 -20.089   7.985  0.00  0.00    +0.087 C 
BRANCH  18  19
ATOM     19  N   LIG    1       28.606 -20.596   7.192  0.00  0.00    -0.302 NA
ATOM     20  C   LIG    1       29.159 -19.581   6.277  0.00  0.00    +0.084 C 
ATOM     21  C   LIG    1       30.015 -18.510   6.961  0.00  0.00    +0.015 C 
ATOM     22  C   LIG    1       31.112 -19.130   7.822  0.00  0.00    +0.002 C 
ATOM     23  C   LIG    1       30.538 -20.191   8.755  0.00  0.00    +0.015 C 
ATOM     24  C   LIG    1       29.685 -21.201   7.985  0.00  0.00    +0.084 C 
ENDBRANCH  18  19
ENDBRANCH  17  18
ENDBRANCH   1  17
TORSDOF 6
ENDMDL
MODEL 9
REMARK VINA RESULT:      -7.4      2.223      6.341
REMARK  Name = *****
REMARK                            x       y       z     vdW  Elec       q    Type
REMARK                         _______ _______ _______ _____ _____    ______ ____
ROOT
ATOM      1  C   LIG    1       24.376 -22.837   6.165  0.00  0.00    +0.095 C 
ENDROOT
BRANCH   1   2
ATOM      2  C   LIG    1       23.778 -21.906   5.065  0.00  0.00    +0.033 C 
ATOM      3  C   LIG    1       24.791 -20.995   4.297  0.00  0.00    +0.018 C 
ATOM      4  C   LIG    1       24.718 -19.661   5.046  0.00  0.00    +0.015 C 
ATOM      5  C   LIG    1       23.202 -19.540   4.894  0.00  0.00    +0.012 C 
ATOM      6  C   LIG    1       23.106 -19.712   3.396  0.00  0.00    -0.027 C 
ATOM      7  C   LIG    1       24.071 -20.559   3.031  0.00  0.00    -0.027 C 
ATOM      8  C   LIG    1       22.745 -20.843   5.579  0.00  0.00    +0.015 C 
ENDBRANCH   1   2
BRANCH   1   9
ATOM      9  C   LIG    1       25.425 -22.126   7.049  0.00  0.00    -0.016 A 
ATOM     10  C   LIG    1       26.805 -22.322   6.856  0.00  0.00    +0.006 A 
ATOM     11  C   LIG    1       27.758 -21.610   7.590  0.00  0.00    +0.000 A 
ATOM     12  C   LIG    1       27.355 -20.685   8.544  0.00  0.00    +0.000 A 
ATOM     13  C   LIG    1       25.999 -20.500   8.791  0.00  0.00    +0.000 A 
ATOM     14  C   LIG    1       25.044 -21.227   8.066  0.00  0.00    +0.006 A 
ENDBRANCH   1   9
BRANCH   1  15
ATOM     15  O   LIG    1       23.284 -23.257   7.010  0.00  0.00    -0.384 OA
ATOM     16  H   LIG    1       22.911 -24.072   6.634  0.00  0.00    +0.211 HD
ENDBRANCH   1  15
BRANCH   1  17
ATOM     17  C   LIG    1       24.940 -24.151   5.549  0.00  0.00    +0.055 C 
BRANCH  17  18
ATOM     18  C   LIG    1       24.809 -25.431   6.399  0.00  0.00    +0.087 C 
BRANCH  18  19
ATOM     19  N   LIG    1       25.938 -26.367   6.213  0.00  0.00    -0.302 NA
ATOM     20  C   LIG    1       26.087 -27.310   7.337  0.00  0.00    +0.084 C 
ATOM     21  C   LIG    1       25.056 -28.443   7.354  0.00  0.00    +0.015 C 
ATOM     22  C   LIG    1       25.004 -29.181   6.020  0.00  0.00    +0.002 C 
ATOM     23  C   LIG    1       24.868 -28.201   4.860  0.00  0.00    +0.015 C 
ATOM     24  C   LIG    1       25.926 -27.099   4.939  0.00  0.00    +0.084 C 
ENDBRANCH  18  19
ENDBRANCH  17  18
ENDBRANCH   1  17
TORSDOF 6
ENDMDL
