MODEL 1
REMARK VINA RESULT:       0.1      0.000      0.000
REMARK  Name = *****
REMARK                            x       y       z     vdW  Elec       q    Type
REMARK                         _______ _______ _______ _____ _____    ______ ____
ROOT
ATOM      1  C   LIG    1       26.250 -16.235   3.580  0.00  0.00    +0.060 A 
ATOM      2  C   LIG    1       25.800 -17.551   3.885  0.00  0.00    +0.040 A 
ATOM      3  I   LIG    1       23.773 -18.021   3.330  0.00  0.00    -0.042 I 
ATOM      4  C   LIG    1       26.656 -18.522   4.494  0.00  0.00    -0.018 A 
ATOM      5  C   LIG    1       27.961 -18.089   4.830  0.00  0.00    +0.019 A 
ATOM      6  I   LIG    1       29.465 -19.347   5.620  0.00  0.00    -0.043 I 
ATOM      7  C   LIG    1       28.364 -16.758   4.644  0.00  0.00    +0.030 A 
ATOM      8  C   LIG    1       27.513 -15.835   4.039  0.00  0.00    +0.037 A 
ATOM      9  I   LIG    1       28.162 -13.820   4.073  0.00  0.00    -0.042 I 
ENDROOT
BRANCH   1  11
ATOM     10  C   LIG    1       24.612 -14.428   3.433  0.00  0.00    +0.217 C 
ATOM     11  N   LIG    1       25.430 -15.365   2.805  0.00  0.00    -0.284 N 
ATOM     12  H   LIG    1       25.833 -15.037   1.932  0.00  0.00    +0.155 HD
ATOM     13  O   LIG    1       24.554 -14.248   4.646  0.00  0.00    -0.276 OA
BRANCH  10  14
ATOM     14  C   LIG    1       23.813 -13.567   2.475  0.00  0.00    +0.096 C 
BRANCH  14  16
ATOM     15  C   LIG    1       23.804 -11.448   3.828  0.00  0.00    +0.004 C 
ATOM     16  C   LIG    1       24.243 -12.106   2.526  0.00  0.00    +0.006 C 
ENDBRANCH  14  16
ENDBRANCH  10  14
ENDBRANCH   1  11
BRANCH   4  17
ATOM     17  C   LIG    1       26.223 -19.974   4.707  0.00  0.00    +0.052 C 
BRANCH  17  18
ATOM     18  C   LIG    1       25.074 -20.251   5.707  0.00  0.00    +0.102 C 
BRANCH  18  19
ATOM     19  C   LIG    1       25.608 -20.790   7.062  0.00  0.00    +0.011 C 
ATOM     20  C   LIG    1       26.923 -21.563   7.001  0.00  0.00    +0.004 C 
ENDBRANCH  18  19
BRANCH  18  21
ATOM     21  C   LIG    1       23.988 -21.179   5.155  0.00  0.00    +0.308 C 
ATOM     22  O   LIG    1       22.995 -21.556   5.748  0.00  0.00    -0.251 OA
BRANCH  21  23
ATOM     23  O   LIG    1       24.230 -21.571   3.879  0.00  0.00    -0.480 OA
ATOM     24  H   LIG    1       23.514 -21.380   3.255  0.00  0.00    +0.295 HD
ENDBRANCH  21  23
ENDBRANCH  18  21
ENDBRANCH  17  18
ENDBRANCH   4  17
TORSDOF 8
ENDMDL
MODEL 2
REMARK VINA RESULT:       0.2      2.286      3.575
REMARK  Name = *****
REMARK                            x       y       z     vdW  Elec       q    Type
REMARK                         _______ _______ _______ _____ _____    ______ ____
ROOT
ATOM      1  C   LIG    1       25.564 -15.573   3.958  0.00  0.00    +0.060 A 
ATOM      2  C   LIG    1       25.629 -16.993   3.890  0.00  0.00    +0.040 A 
ATOM      3  I   LIG    1       27.600 -17.859   3.822  0.00  0.00    -0.042 I 
ATOM      4  C   LIG    1       24.453 -17.807   3.902  0.00  0.00    -0.018 A 
ATOM      5  C   LIG    1       23.214 -17.123   3.930  0.00  0.00    +0.019 A 
ATOM      6  I   LIG    1       21.332 -18.074   4.081  0.00  0.00    -0.043 I 
ATOM      7  C   LIG    1       23.147 -15.723   3.870  0.00  0.00    +0.030 A 
ATOM      8  C   LIG    1       24.310 -14.954   3.869  0.00  0.00    +0.037 A 
ATOM      9  I   LIG    1       24.048 -12.884   3.507  0.00  0.00    -0.042 I 
ENDROOT
BRANCH   1  11
ATOM     10  C   LIG    1       27.402 -14.253   3.032  0.00  0.00    +0.217 C 
ATOM     11  N   LIG    1       26.757 -14.813   4.134  0.00  0.00    -0.284 N 
ATOM     12  H   LIG    1       26.796 -14.236   4.968  0.00  0.00    +0.155 HD
ATOM     13  O   LIG    1       27.001 -14.324   1.874  0.00  0.00    -0.276 OA
BRANCH  10  14
ATOM     14  C   LIG    1       28.647 -13.464   3.382  0.00  0.00    +0.096 C 
BRANCH  14  16
ATOM     15  C   LIG    1       28.494 -12.445   5.676  0.00  0.00    +0.004 C 
ATOM     16  C   LIG    1       28.320 -12.208   4.182  0.00  0.00    +0.006 C 
ENDBRANCH  14  16
ENDBRANCH  10  14
ENDBRANCH   1  11
BRANCH   4  17
ATOM     17  C   LIG    1       24.517 -19.335   3.961  0.00  0.00    +0.052 C 
BRANCH  17  18
ATOM     18  C   LIG    1       24.540 -20.009   5.354  0.00  0.00    +0.102 C 
BRANCH  18  19
ATOM     19  C   LIG    1       25.916 -20.664   5.652  0.00  0.00    +0.011 C 
ATOM     20  C   LIG    1       26.485 -20.417   7.048  0.00  0.00    +0.004 C 
ENDBRANCH  18  19
BRANCH  18  21
ATOM     21  C   LIG    1       23.411 -21.020   5.568  0.00  0.00    +0.308 C 
ATOM     22  O   LIG    1       22.952 -21.369   6.639  0.00  0.00    -0.251 OA
BRANCH  21  23
ATOM     23  O   LIG    1       22.931 -21.527   4.405  0.00  0.00    -0.480 OA
ATOM     24  H   LIG    1       22.732 -22.475   4.429  0.00  0.00    +0.295 HD
ENDBRANCH  21  23
ENDBRANCH  18  21
ENDBRANCH  17  18
ENDBRANCH   4  17
TORSDOF 8
ENDMDL
MODEL 3
REMARK VINA RESULT:       1.3      2.001      6.572
REMARK  Name = *****
REMARK                            x       y       z     vdW  Elec       q    Type
REMARK                         _______ _______ _______ _____ _____    ______ ____
ROOT
ATOM      1  C   LIG    1       26.697 -18.445   4.415  0.00  0.00    +0.060 A 
ATOM      2  C   LIG    1       25.879 -17.549   3.671  0.00  0.00    +0.040 A 
ATOM      3  I   LIG    1       24.040 -18.356   2.892  0.00  0.00    -0.042 I 
ATOM      4  C   LIG    1       26.237 -16.178   3.480  0.00  0.00    -0.018 A 
ATOM      5  C   LIG    1       27.478 -15.769   4.023  0.00  0.00    +0.019 A 
ATOM      6  I   LIG    1       28.191 -13.779   3.997  0.00  0.00    -0.043 I 
ATOM      7  C   LIG    1       28.342 -16.681   4.647  0.00  0.00    +0.030 A 
ATOM      8  C   LIG    1       27.964 -18.010   4.829  0.00  0.00    +0.037 A 
ATOM      9  I   LIG    1       29.475 -19.312   5.541  0.00  0.00    -0.042 I 
ENDROOT
BRANCH   1  11
ATOM     10  C   LIG    1       26.189 -20.173   6.068  0.00  0.00    +0.217 C 
ATOM     11  N   LIG    1       26.215 -19.746   4.741  0.00  0.00    -0.284 N 
ATOM     12  H   LIG    1       25.431 -20.080   4.188  0.00  0.00    +0.155 HD
ATOM     13  O   LIG    1       26.523 -19.490   7.031  0.00  0.00    -0.276 OA
BRANCH  10  14
ATOM     14  C   LIG    1       25.637 -21.571   6.254  0.00  0.00    +0.096 C 
BRANCH  14  16
ATOM     15  C   LIG    1       23.347 -20.562   6.501  0.00  0.00    +0.004 C 
ATOM     16  C   LIG    1       24.342 -21.572   7.058  0.00  0.00    +0.006 C 
ENDBRANCH  14  16
ENDBRANCH  10  14
ENDBRANCH   1  11
BRANCH   4  17
ATOM     17  C   LIG    1       25.303 -15.177   2.795  0.00  0.00    +0.052 C 
BRANCH  17  18
ATOM     18  C   LIG    1       25.039 -13.826   3.502  0.00  0.00    +0.102 C 
BRANCH  18  19
ATOM     19  C   LIG    1       23.870 -13.928   4.519  0.00  0.00    +0.011 C 
ATOM     20  C   LIG    1       23.125 -15.260   4.549  0.00  0.00    +0.004 C 
ENDBRANCH  18  19
BRANCH  18  21
ATOM     21  C   LIG    1       24.805 -12.661   2.537  0.00  0.00    +0.308 C 
ATOM     22  O   LIG    1       25.649 -12.117   1.849  0.00  0.00    -0.251 OA
BRANCH  21  23
ATOM     23  O   LIG    1       23.511 -12.258   2.502  0.00  0.00    -0.480 OA
ATOM     24  H   LIG    1       23.044 -12.469   1.680  0.00  0.00    +0.295 HD
ENDBRANCH  21  23
ENDBRANCH  18  21
ENDBRANCH  17  18
ENDBRANCH   4  17
TORSDOF 8
ENDMDL
MODEL 4
REMARK VINA RESULT:       1.4      2.580      3.836
REMARK  Name = *****
REMARK                            x       y       z     vdW  Elec       q    Type
REMARK                         _______ _______ _______ _____ _____    ______ ____
ROOT
ATOM      1  C   LIG    1       25.408 -15.861   3.979  0.00  0.00    +0.060 A 
ATOM      2  C   LIG    1       25.628 -17.259   3.832  0.00  0.00    +0.040 A 
ATOM      3  I   LIG    1       27.680 -17.894   3.684  0.00  0.00    -0.042 I 
ATOM      4  C   LIG    1       24.549 -18.198   3.818  0.00  0.00    -0.018 A 
ATOM      5  C   LIG    1       23.243 -17.660   3.903  0.00  0.00    +0.019 A 
ATOM      6  I   LIG    1       21.482 -18.822   4.031  0.00  0.00    -0.043 I 
ATOM      7  C   LIG    1       23.020 -16.274   3.922  0.00  0.00    +0.030 A 
ATOM      8  C   LIG    1       24.091 -15.381   3.945  0.00  0.00    +0.037 A 
ATOM      9  I   LIG    1       23.593 -13.337   3.703  0.00  0.00    -0.042 I 
ENDROOT
BRANCH   1  11
ATOM     10  C   LIG    1       27.109 -14.348   3.090  0.00  0.00    +0.217 C 
ATOM     11  N   LIG    1       26.513 -14.983   4.178  0.00  0.00    -0.284 N 
ATOM     12  H   LIG    1       26.481 -14.413   5.018  0.00  0.00    +0.155 HD
ATOM     13  O   LIG    1       26.733 -14.448   1.926  0.00  0.00    -0.276 OA
BRANCH  10  14
ATOM     14  C   LIG    1       28.261 -13.437   3.464  0.00  0.00    +0.096 C 
BRANCH  14  16
ATOM     15  C   LIG    1       29.147 -11.815   5.169  0.00  0.00    +0.004 C 
ATOM     16  C   LIG    1       28.142 -12.925   4.895  0.00  0.00    +0.006 C 
ENDBRANCH  14  16
ENDBRANCH  10  14
ENDBRANCH   1  11
BRANCH   4  17
ATOM     17  C   LIG    1       24.783 -19.711   3.790  0.00  0.00    +0.052 C 
BRANCH  17  18
ATOM     18  C   LIG    1       24.828 -20.464   5.142  0.00  0.00    +0.102 C 
BRANCH  18  19
ATOM     19  C   LIG    1       23.670 -20.029   6.081  0.00  0.00    +0.011 C 
ATOM     20  C   LIG    1       23.165 -21.093   7.054  0.00  0.00    +0.004 C 
ENDBRANCH  18  19
BRANCH  18  21
ATOM     21  C   LIG    1       26.172 -20.350   5.865  0.00  0.00    +0.308 C 
ATOM     22  O   LIG    1       26.334 -20.201   7.061  0.00  0.00    -0.251 OA
BRANCH  21  23
ATOM     23  O   LIG    1       27.232 -20.435   5.023  0.00  0.00    -0.480 OA
ATOM     24  H   LIG    1       27.396 -19.637   4.499  0.00  0.00    +0.295 HD
ENDBRANCH  21  23
ENDBRANCH  18  21
ENDBRANCH  17  18
ENDBRANCH   4  17
TORSDOF 8
ENDMDL
MODEL 5
REMARK VINA RESULT:       2.1      2.730      7.149
REMARK  Name = *****
REMARK                            x       y       z     vdW  Elec       q    Type
REMARK                         _______ _______ _______ _____ _____    ______ ____
ROOT
ATOM      1  C   LIG    1       24.943 -17.606   4.063  0.00  0.00    +0.060 A 
ATOM      2  C   LIG    1       26.134 -16.835   3.951  0.00  0.00    +0.040 A 
ATOM      3  I   LIG    1       27.979 -17.855   4.393  0.00  0.00    -0.042 I 
ATOM      4  C   LIG    1       26.114 -15.467   3.534  0.00  0.00    -0.018 A 
ATOM      5  C   LIG    1       24.841 -14.900   3.291  0.00  0.00    +0.019 A 
ATOM      6  I   LIG    1       24.529 -12.947   2.546  0.00  0.00    -0.043 I 
ATOM      7  C   LIG    1       23.660 -15.623   3.522  0.00  0.00    +0.030 A 
ATOM      8  C   LIG    1       23.708 -16.958   3.919  0.00  0.00    +0.037 A 
ATOM      9  I   LIG    1       21.859 -17.822   4.480  0.00  0.00    -0.042 I 
ENDROOT
BRANCH   1  11
ATOM     10  C   LIG    1       24.396 -19.902   3.429  0.00  0.00    +0.217 C 
ATOM     11  N   LIG    1       25.023 -19.010   4.296  0.00  0.00    -0.284 N 
ATOM     12  H   LIG    1       25.907 -19.348   4.663  0.00  0.00    +0.155 HD
ATOM     13  O   LIG    1       23.782 -19.581   2.415  0.00  0.00    -0.276 OA
BRANCH  10  14
ATOM     14  C   LIG    1       24.583 -21.358   3.802  0.00  0.00    +0.096 C 
BRANCH  14  16
ATOM     15  C   LIG    1       23.118 -21.418   5.844  0.00  0.00    +0.004 C 
ATOM     16  C   LIG    1       24.536 -21.572   5.311  0.00  0.00    +0.006 C 
ENDBRANCH  14  16
ENDBRANCH  10  14
ENDBRANCH   1  11
BRANCH   4  17
ATOM     17  C   LIG    1       27.397 -14.669   3.287  0.00  0.00    +0.052 C 
BRANCH  17  18
ATOM     18  C   LIG    1       27.968 -13.829   4.455  0.00  0.00    +0.102 C 
BRANCH  18  19
ATOM     19  C   LIG    1       26.839 -13.204   5.319  0.00  0.00    +0.011 C 
ATOM     20  C   LIG    1       26.709 -13.746   6.741  0.00  0.00    +0.004 C 
ENDBRANCH  18  19
BRANCH  18  21
ATOM     21  C   LIG    1       28.958 -12.750   4.009  0.00  0.00    +0.308 C 
ATOM     22  O   LIG    1       29.474 -12.656   2.912  0.00  0.00    -0.251 OA
BRANCH  21  23
ATOM     23  O   LIG    1       29.232 -11.851   4.988  0.00  0.00    -0.480 OA
ATOM     24  H   LIG    1       28.456 -11.536   5.476  0.00  0.00    +0.295 HD
ENDBRANCH  21  23
ENDBRANCH  18  21
ENDBRANCH  17  18
ENDBRANCH   4  17
TORSDOF 8
ENDMDL
MODEL 6
REMARK VINA RESULT:       2.6      2.212      3.077
REMARK  Name = *****
REMARK                            x       y       z     vdW  Elec       q    Type
REMARK                         _______ _______ _______ _____ _____    ______ ____
ROOT
ATOM      1  C   LIG    1       24.698 -15.326   3.928  0.00  0.00    +0.060 A 
ATOM      2  C   LIG    1       23.758 -16.290   4.390  0.00  0.00    +0.040 A 
ATOM      3  I   LIG    1       22.049 -15.526   5.455  0.00  0.00    -0.042 I 
ATOM      4  C   LIG    1       23.917 -17.688   4.131  0.00  0.00    -0.018 A 
ATOM      5  C   LIG    1       25.089 -18.071   3.438  0.00  0.00    +0.019 A 
ATOM      6  I   LIG    1       25.513 -20.047   2.816  0.00  0.00    -0.043 I 
ATOM      7  C   LIG    1       26.077 -17.136   3.093  0.00  0.00    +0.030 A 
ATOM      8  C   LIG    1       25.892 -15.778   3.348  0.00  0.00    +0.037 A 
ATOM      9  I   LIG    1       27.575 -14.537   3.014  0.00  0.00    -0.042 I 
ENDROOT
BRANCH   1  11
ATOM     10  C   LIG    1       24.980 -13.179   5.062  0.00  0.00    +0.217 C 
ATOM     11  N   LIG    1       24.406 -13.936   4.042  0.00  0.00    -0.284 N 
ATOM     12  H   LIG    1       24.303 -13.432   3.166  0.00  0.00    +0.155 HD
ATOM     13  O   LIG    1       25.779 -13.608   5.889  0.00  0.00    -0.276 OA
BRANCH  10  14
ATOM     14  C   LIG    1       24.585 -11.717   5.041  0.00  0.00    +0.096 C 
BRANCH  14  16
ATOM     15  C   LIG    1       23.858 -11.447   2.649  0.00  0.00    +0.004 C 
ATOM     16  C   LIG    1       23.410 -11.457   4.104  0.00  0.00    +0.006 C 
ENDBRANCH  14  16
ENDBRANCH  10  14
ENDBRANCH   1  11
BRANCH   4  17
ATOM     17  C   LIG    1       22.848 -18.716   4.510  0.00  0.00    +0.052 C 
BRANCH  17  18
ATOM     18  C   LIG    1       23.303 -20.169   4.788  0.00  0.00    +0.102 C 
BRANCH  18  19
ATOM     19  C   LIG    1       22.145 -21.183   4.581  0.00  0.00    +0.011 C 
ATOM     20  C   LIG    1       20.758 -20.580   4.369  0.00  0.00    +0.004 C 
ENDBRANCH  18  19
BRANCH  18  21
ATOM     21  C   LIG    1       23.939 -20.360   6.167  0.00  0.00    +0.308 C 
ATOM     22  O   LIG    1       25.073 -20.054   6.484  0.00  0.00    -0.251 OA
BRANCH  21  23
ATOM     23  O   LIG    1       23.095 -20.931   7.062  0.00  0.00    -0.480 OA
ATOM     24  H   LIG    1       23.532 -21.427   7.770  0.00  0.00    +0.295 HD
ENDBRANCH  21  23
ENDBRANCH  18  21
ENDBRANCH  17  18
ENDBRANCH   4  17
TORSDOF 8
ENDMDL
MODEL 7
REMARK VINA RESULT:       2.6      1.834      6.560
REMARK  Name = *****
REMARK                            x       y       z     vdW  Elec       q    Type
REMARK                         _______ _______ _______ _____ _____    ______ ____
ROOT
ATOM      1  C   LIG    1       26.335 -18.114   4.548  0.00  0.00    +0.060 A 
ATOM      2  C   LIG    1       25.485 -17.169   3.907  0.00  0.00    +0.040 A 
ATOM      3  I   LIG    1       23.466 -17.808   3.517  0.00  0.00    -0.042 I 
ATOM      4  C   LIG    1       25.933 -15.852   3.572  0.00  0.00    -0.018 A 
ATOM      5  C   LIG    1       27.286 -15.555   3.860  0.00  0.00    +0.019 A 
ATOM      6  I   LIG    1       28.172 -13.654   3.587  0.00  0.00    -0.043 I 
ATOM      7  C   LIG    1       28.158 -16.526   4.376  0.00  0.00    +0.030 A 
ATOM      8  C   LIG    1       27.692 -17.799   4.703  0.00  0.00    +0.037 A 
ATOM      9  I   LIG    1       29.175 -19.221   5.214  0.00  0.00    -0.042 I 
ENDROOT
BRANCH   1  11
ATOM     10  C   LIG    1       25.367 -20.321   4.140  0.00  0.00    +0.217 C 
ATOM     11  N   LIG    1       25.797 -19.341   5.033  0.00  0.00    -0.284 N 
ATOM     12  H   LIG    1       26.230 -19.714   5.873  0.00  0.00    +0.155 HD
ATOM     13  O   LIG    1       25.445 -20.239   2.918  0.00  0.00    -0.276 OA
BRANCH  10  14
ATOM     14  C   LIG    1       24.834 -21.572   4.808  0.00  0.00    +0.096 C 
BRANCH  14  16
ATOM     15  C   LIG    1       22.581 -20.877   5.682  0.00  0.00    +0.004 C 
ATOM     16  C   LIG    1       24.011 -21.249   6.050  0.00  0.00    +0.006 C 
ENDBRANCH  14  16
ENDBRANCH  10  14
ENDBRANCH   1  11
BRANCH   4  17
ATOM     17  C   LIG    1       24.991 -14.789   3.003  0.00  0.00    +0.052 C 
BRANCH  17  18
ATOM     18  C   LIG    1       24.744 -13.512   3.843  0.00  0.00    +0.102 C 
BRANCH  18  19
ATOM     19  C   LIG    1       23.817 -13.793   5.056  0.00  0.00    +0.011 C 
ATOM     20  C   LIG    1       22.763 -14.880   4.854  0.00  0.00    +0.004 C 
ENDBRANCH  18  19
BRANCH  18  21
ATOM     21  C   LIG    1       24.210 -12.333   3.026  0.00  0.00    +0.308 C 
ATOM     22  O   LIG    1       24.367 -12.155   1.833  0.00  0.00    -0.251 OA
BRANCH  21  23
ATOM     23  O   LIG    1       23.505 -11.449   3.776  0.00  0.00    -0.480 OA
ATOM     24  H   LIG    1       22.561 -11.651   3.857  0.00  0.00    +0.295 HD
ENDBRANCH  21  23
ENDBRANCH  18  21
ENDBRANCH  17  18
ENDBRANCH   4  17
TORSDOF 8
ENDMDL
MODEL 8
REMARK VINA RESULT:       2.9      3.006      6.976
REMARK  Name = *****
REMARK                            x       y       z     vdW  Elec       q    Type
REMARK                         _______ _______ _______ _____ _____    ______ ____
ROOT
ATOM      1  C   LIG    1       23.524 -16.738   4.465  0.00  0.00    +0.060 A 
ATOM      2  C   LIG    1       24.732 -16.415   3.784  0.00  0.00    +0.040 A 
ATOM      3  I   LIG    1       26.056 -18.058   3.354  0.00  0.00    -0.042 I 
ATOM      4  C   LIG    1       25.037 -15.079   3.375  0.00  0.00    -0.018 A 
ATOM      5  C   LIG    1       24.099 -14.081   3.732  0.00  0.00    +0.019 A 
ATOM      6  I   LIG    1       24.236 -12.054   3.147  0.00  0.00    -0.043 I 
ATOM      7  C   LIG    1       22.970 -14.379   4.511  0.00  0.00    +0.030 A 
ATOM      8  C   LIG    1       22.692 -15.692   4.887  0.00  0.00    +0.037 A 
ATOM      9  I   LIG    1       21.112 -15.940   6.275  0.00  0.00    -0.042 I 
ENDROOT
BRANCH   1  11
ATOM     10  C   LIG    1       22.026 -18.635   4.099  0.00  0.00    +0.217 C 
ATOM     11  N   LIG    1       23.174 -18.102   4.684  0.00  0.00    -0.284 N 
ATOM     12  H   LIG    1       23.949 -18.756   4.736  0.00  0.00    +0.155 HD
ATOM     13  O   LIG    1       21.273 -18.023   3.348  0.00  0.00    -0.276 OA
BRANCH  10  14
ATOM     14  C   LIG    1       21.797 -20.099   4.415  0.00  0.00    +0.096 C 
BRANCH  14  16
ATOM     15  C   LIG    1       23.865 -21.414   4.978  0.00  0.00    +0.004 C 
ATOM     16  C   LIG    1       22.710 -20.591   5.532  0.00  0.00    +0.006 C 
ENDBRANCH  14  16
ENDBRANCH  10  14
ENDBRANCH   1  11
BRANCH   4  17
ATOM     17  C   LIG    1       26.269 -14.743   2.531  0.00  0.00    +0.052 C 
BRANCH  17  18
ATOM     18  C   LIG    1       27.600 -14.461   3.268  0.00  0.00    +0.102 C 
BRANCH  18  19
ATOM     19  C   LIG    1       27.479 -14.720   4.795  0.00  0.00    +0.011 C 
ATOM     20  C   LIG    1       27.037 -13.528   5.641  0.00  0.00    +0.004 C 
ENDBRANCH  18  19
BRANCH  18  21
ATOM     21  C   LIG    1       28.162 -13.061   3.009  0.00  0.00    +0.308 C 
ATOM     22  O   LIG    1       27.546 -12.110   2.564  0.00  0.00    -0.251 OA
BRANCH  21  23
ATOM     23  O   LIG    1       29.475 -12.952   3.331  0.00  0.00    -0.480 OA
ATOM     24  H   LIG    1       29.970 -13.784   3.292  0.00  0.00    +0.295 HD
ENDBRANCH  21  23
ENDBRANCH  18  21
ENDBRANCH  17  18
ENDBRANCH   4  17
TORSDOF 8
ENDMDL
