MODEL 1
REMARK VINA RESULT:      -6.9      0.000      0.000
REMARK  Name = *****
REMARK                            x       y       z     vdW  Elec       q    Type
REMARK                         _______ _______ _______ _____ _____    ______ ____
ROOT
ATOM      1  C   LIG    1       24.669 -30.432   6.973  0.00  0.00    +0.170 C 
ATOM      2  N   LIG    1       24.844 -30.644   8.418  0.00  0.00    -0.233 N 
ATOM      3  C   LIG    1       26.017 -31.231   8.979  0.00  0.00    +0.269 C 
ATOM      4  O   LIG    1       25.600 -32.163   9.968  0.00  0.00    -0.298 OA
ATOM      5  C   LIG    1       24.209 -31.954  10.273  0.00  0.00    +0.220 C 
ATOM      6  C   LIG    1       26.932 -31.886   7.910  0.00  0.00    +0.156 C 
ATOM      7  N   LIG    1       26.215 -32.352   6.729  0.00  0.00    -0.290 N 
ATOM      8  C   LIG    1       26.800 -33.551   6.166  0.00  0.00    +0.108 C 
ATOM      9  C   LIG    1       28.069 -33.765   6.986  0.00  0.00    +0.021 C 
ATOM     10  C   LIG    1       27.734 -33.118   8.332  0.00  0.00    +0.031 C 
ATOM     11  C   LIG    1       23.743 -30.985   9.180  0.00  0.00    +0.271 C 
ATOM     12  O   LIG    1       22.590 -30.637   8.940  0.00  0.00    -0.270 OA
ATOM     13  C   LIG    1       25.189 -31.639   6.147  0.00  0.00    +0.237 C 
ATOM     14  O   LIG    1       24.770 -31.896   5.020  0.00  0.00    -0.274 OA
ENDROOT
BRANCH   5  15
ATOM     15  N   LIG    1       24.180 -31.361  11.589  0.00  0.00    -0.280 N 
ATOM     16  H   LIG    1       23.657 -30.495  11.685  0.00  0.00    +0.152 HD
ATOM     17  C   LIG    1       25.018 -31.706  12.617  0.00  0.00    +0.220 C 
ATOM     18  O   LIG    1       25.879 -32.577  12.524  0.00  0.00    -0.275 OA
BRANCH  17  19
ATOM     19  C   LIG    1       24.778 -30.990  13.948  0.00  0.00    +0.090 C 
ATOM     20  C   LIG    1       25.521 -29.655  14.033  0.00  0.00    +0.097 C 
ATOM     21  N   LIG    1       24.930 -28.608  13.173  0.00  0.00    -0.301 NA
ATOM     22  C   LIG    1       25.643 -27.348  13.373  0.00  0.00    +0.105 C 
ATOM     23  C   LIG    1       23.434 -28.531  13.264  0.00  0.00    +0.068 C 
ATOM     24  C   LIG    1       22.845 -29.385  14.466  0.00  0.00    +0.038 C 
ATOM     25  C   LIG    1       21.340 -29.243  14.617  0.00  0.00    -0.033 C 
ATOM     26  C   LIG    1       20.729 -28.136  14.019  0.00  0.00    +0.006 C 
ATOM     27  C   LIG    1       19.376 -27.878  14.125  0.00  0.00    +0.047 C 
ATOM     28  N   LIG    1       19.152 -26.725  13.404  0.00  0.00    -0.360 NA
ATOM     29  H   LIG    1       18.250 -26.283  13.296  0.00  0.00    +0.165 HD
ATOM     30  C   LIG    1       20.338 -26.242  12.891  0.00  0.00    +0.087 C 
ATOM     31  C   LIG    1       18.533 -28.704  14.867  0.00  0.00    +0.026 C 
ATOM     32  C   LIG    1       19.130 -29.805  15.500  0.00  0.00    +0.002 C 
ATOM     33  C   LIG    1       21.338 -27.104  13.279  0.00  0.00    -0.021 C 
ATOM     34  C   LIG    1       20.504 -30.072  15.381  0.00  0.00    +0.005 C 
ATOM     35  C   LIG    1       22.817 -27.092  13.105  0.00  0.00    +0.056 C 
ATOM     36  C   LIG    1       23.281 -30.852  14.269  0.00  0.00    +0.023 C 
ENDBRANCH  17  19
ENDBRANCH   5  15
BRANCH   1  38
ATOM     37  C   LIG    1       24.206 -28.530   5.350  0.00  0.00    +0.009 C 
ATOM     38  C   LIG    1       25.145 -29.065   6.435  0.00  0.00    +0.013 C 
ATOM     39  C   LIG    1       25.384 -27.987   7.490  0.00  0.00    +0.009 C 
ENDBRANCH   1  38
BRANCH   5  40
ATOM     40  C   LIG    1       23.471 -33.319  10.157  0.00  0.00    +0.043 C 
ATOM     41  C   LIG    1       22.042 -33.268  10.729  0.00  0.00    +0.012 C 
ATOM     42  C   LIG    1       23.371 -33.825   8.712  0.00  0.00    +0.012 C 
ENDBRANCH   5  40
BRANCH   3  43
ATOM     43  O   LIG    1       26.704 -30.187   9.639  0.00  0.00    -0.348 OA
ATOM     44  H   LIG    1       27.616 -30.222   9.314  0.00  0.00    +0.214 HD
ENDBRANCH   3  43
TORSDOF 5
ENDMDL
MODEL 2
REMARK VINA RESULT:      -6.8      2.034      2.939
REMARK  Name = *****
REMARK                            x       y       z     vdW  Elec       q    Type
REMARK                         _______ _______ _______ _____ _____    ______ ____
ROOT
ATOM      1  C   LIG    1       24.849 -30.288   6.871  0.00  0.00    +0.170 C 
ATOM      2  N   LIG    1       25.093 -30.678   8.269  0.00  0.00    -0.233 N 
ATOM      3  C   LIG    1       26.258 -31.389   8.683  0.00  0.00    +0.269 C 
ATOM      4  O   LIG    1       25.842 -32.406   9.584  0.00  0.00    -0.298 OA
ATOM      5  C   LIG    1       24.487 -32.160   9.998  0.00  0.00    +0.220 C 
ATOM      6  C   LIG    1       27.069 -31.961   7.490  0.00  0.00    +0.156 C 
ATOM      7  N   LIG    1       26.259 -32.247   6.311  0.00  0.00    -0.290 N 
ATOM      8  C   LIG    1       26.737 -33.402   5.579  0.00  0.00    +0.108 C 
ATOM      9  C   LIG    1       28.035 -33.778   6.287  0.00  0.00    +0.021 C 
ATOM     10  C   LIG    1       27.818 -33.276   7.717  0.00  0.00    +0.031 C 
ATOM     11  C   LIG    1       24.019 -31.046   9.055  0.00  0.00    +0.271 C 
ATOM     12  O   LIG    1       22.877 -30.611   8.931  0.00  0.00    -0.270 OA
ATOM     13  C   LIG    1       25.246 -31.416   5.881  0.00  0.00    +0.237 C 
ATOM     14  O   LIG    1       24.749 -31.516   4.761  0.00  0.00    -0.274 OA
ENDROOT
BRANCH   5  15
ATOM     15  N   LIG    1       24.570 -31.724  11.373  0.00  0.00    -0.280 N 
ATOM     16  H   LIG    1       24.311 -30.760  11.559  0.00  0.00    +0.152 HD
ATOM     17  C   LIG    1       25.227 -32.402  12.366  0.00  0.00    +0.220 C 
ATOM     18  O   LIG    1       25.808 -33.469  12.186  0.00  0.00    -0.275 OA
BRANCH  17  19
ATOM     19  C   LIG    1       25.142 -31.790  13.766  0.00  0.00    +0.090 C 
ATOM     20  C   LIG    1       26.512 -31.684  14.440  0.00  0.00    +0.097 C 
ATOM     21  N   LIG    1       27.367 -30.632  13.850  0.00  0.00    -0.301 NA
ATOM     22  C   LIG    1       28.618 -30.540  14.598  0.00  0.00    +0.105 C 
ATOM     23  C   LIG    1       26.648 -29.334  13.622  0.00  0.00    +0.068 C 
ATOM     24  C   LIG    1       25.224 -29.287  14.322  0.00  0.00    +0.038 C 
ATOM     25  C   LIG    1       24.527 -27.945  14.167  0.00  0.00    -0.033 C 
ATOM     26  C   LIG    1       25.316 -26.839  13.835  0.00  0.00    +0.006 C 
ATOM     27  C   LIG    1       24.803 -25.563  13.710  0.00  0.00    +0.047 C 
ATOM     28  N   LIG    1       25.867 -24.757  13.365  0.00  0.00    -0.360 NA
ATOM     29  H   LIG    1       25.804 -23.762  13.204  0.00  0.00    +0.165 HD
ATOM     30  C   LIG    1       27.031 -25.497  13.315  0.00  0.00    +0.087 C 
ATOM     31  C   LIG    1       23.454 -25.294  13.938  0.00  0.00    +0.026 C 
ATOM     32  C   LIG    1       22.650 -26.386  14.302  0.00  0.00    +0.002 C 
ATOM     33  C   LIG    1       26.708 -26.799  13.621  0.00  0.00    -0.021 C 
ATOM     34  C   LIG    1       23.171 -27.685  14.417  0.00  0.00    +0.005 C 
ATOM     35  C   LIG    1       27.519 -28.035  13.798  0.00  0.00    +0.056 C 
ATOM     36  C   LIG    1       24.381 -30.455  13.769  0.00  0.00    +0.023 C 
ENDBRANCH  17  19
ENDBRANCH   5  15
BRANCH   1  38
ATOM     37  C   LIG    1       24.422 -28.197   5.489  0.00  0.00    +0.009 C 
ATOM     38  C   LIG    1       25.376 -28.895   6.463  0.00  0.00    +0.013 C 
ATOM     39  C   LIG    1       25.718 -27.955   7.616  0.00  0.00    +0.009 C 
ENDBRANCH   1  38
BRANCH   5  40
ATOM     40  C   LIG    1       23.662 -33.460   9.776  0.00  0.00    +0.043 C 
ATOM     41  C   LIG    1       22.248 -33.373  10.379  0.00  0.00    +0.012 C 
ATOM     42  C   LIG    1       23.508 -33.825   8.293  0.00  0.00    +0.012 C 
ENDBRANCH   5  40
BRANCH   3  43
ATOM     43  O   LIG    1       27.044 -30.467   9.412  0.00  0.00    -0.348 OA
ATOM     44  H   LIG    1       27.831 -30.956   9.698  0.00  0.00    +0.214 HD
ENDBRANCH   3  43
TORSDOF 5
ENDMDL
MODEL 3
REMARK VINA RESULT:      -6.3      1.730      3.516
REMARK  Name = *****
REMARK                            x       y       z     vdW  Elec       q    Type
REMARK                         _______ _______ _______ _____ _____    ______ ____
ROOT
ATOM      1  C   LIG    1       25.103 -32.565   7.320  0.00  0.00    +0.170 C 
ATOM      2  N   LIG    1       24.746 -31.859   8.561  0.00  0.00    -0.233 N 
ATOM      3  C   LIG    1       24.071 -30.602   8.570  0.00  0.00    +0.269 C 
ATOM      4  O   LIG    1       24.709 -29.780   9.538  0.00  0.00    -0.298 OA
ATOM      5  C   LIG    1       25.566 -30.585  10.366  0.00  0.00    +0.220 C 
ATOM      6  C   LIG    1       24.030 -29.931   7.170  0.00  0.00    +0.156 C 
ATOM      7  N   LIG    1       25.143 -30.305   6.306  0.00  0.00    -0.290 N 
ATOM      8  C   LIG    1       25.557 -29.221   5.440  0.00  0.00    +0.108 C 
ATOM      9  C   LIG    1       24.522 -28.129   5.691  0.00  0.00    +0.021 C 
ATOM     10  C   LIG    1       24.059 -28.402   7.125  0.00  0.00    +0.031 C 
ATOM     11  C   LIG    1       25.603 -31.935   9.641  0.00  0.00    +0.271 C 
ATOM     12  O   LIG    1       26.328 -32.893   9.894  0.00  0.00    -0.270 OA
ATOM     13  C   LIG    1       25.636 -31.591   6.235  0.00  0.00    +0.237 C 
ATOM     14  O   LIG    1       26.383 -31.957   5.330  0.00  0.00    -0.274 OA
ENDROOT
BRANCH   5  15
ATOM     15  N   LIG    1       24.910 -30.663  11.651  0.00  0.00    -0.280 N 
ATOM     16  H   LIG    1       25.081 -31.503  12.196  0.00  0.00    +0.152 HD
ATOM     17  C   LIG    1       23.879 -29.853  12.049  0.00  0.00    +0.220 C 
ATOM     18  O   LIG    1       23.412 -28.959  11.349  0.00  0.00    -0.275 OA
BRANCH  17  19
ATOM     19  C   LIG    1       23.367 -30.070  13.475  0.00  0.00    +0.090 C 
ATOM     20  C   LIG    1       23.744 -28.920  14.411  0.00  0.00    +0.097 C 
ATOM     21  N   LIG    1       22.979 -27.684  14.146  0.00  0.00    -0.301 NA
ATOM     22  C   LIG    1       23.337 -26.664  15.129  0.00  0.00    +0.105 C 
ATOM     23  C   LIG    1       21.508 -27.918  13.958  0.00  0.00    +0.068 C 
ATOM     24  C   LIG    1       21.060 -29.386  14.366  0.00  0.00    +0.038 C 
ATOM     25  C   LIG    1       19.561 -29.603  14.259  0.00  0.00    -0.033 C 
ATOM     26  C   LIG    1       18.741 -28.470  14.239  0.00  0.00    +0.006 C 
ATOM     27  C   LIG    1       17.362 -28.543  14.189  0.00  0.00    +0.047 C 
ATOM     28  N   LIG    1       16.913 -27.241  14.169  0.00  0.00    -0.360 NA
ATOM     29  H   LIG    1       15.940 -26.970  14.133  0.00  0.00    +0.165 HD
ATOM     30  C   LIG    1       17.978 -26.366  14.248  0.00  0.00    +0.087 C 
ATOM     31  C   LIG    1       16.697 -29.769  14.183  0.00  0.00    +0.026 C 
ATOM     32  C   LIG    1       17.501 -30.919  14.233  0.00  0.00    +0.002 C 
ATOM     33  C   LIG    1       19.128 -27.118  14.308  0.00  0.00    -0.021 C 
ATOM     34  C   LIG    1       18.903 -30.842  14.272  0.00  0.00    +0.005 C 
ATOM     35  C   LIG    1       20.565 -26.768  14.473  0.00  0.00    +0.056 C 
ATOM     36  C   LIG    1       21.863 -30.386  13.508  0.00  0.00    +0.023 C 
ENDBRANCH  17  19
ENDBRANCH   5  15
BRANCH   1  38
ATOM     37  C   LIG    1       22.953 -33.825   7.829  0.00  0.00    +0.009 C 
ATOM     38  C   LIG    1       24.048 -33.561   6.790  0.00  0.00    +0.013 C 
ATOM     39  C   LIG    1       23.413 -33.200   5.450  0.00  0.00    +0.009 C 
ENDBRANCH   1  38
BRANCH   5  40
ATOM     40  C   LIG    1       26.977 -29.930  10.395  0.00  0.00    +0.043 C 
ATOM     41  C   LIG    1       27.009 -28.566   9.682  0.00  0.00    +0.012 C 
ATOM     42  C   LIG    1       27.510 -29.718  11.819  0.00  0.00    +0.012 C 
ENDBRANCH   5  40
BRANCH   3  43
ATOM     43  O   LIG    1       22.759 -30.862   9.028  0.00  0.00    -0.348 OA
ATOM     44  H   LIG    1       22.375 -29.998   9.240  0.00  0.00    +0.214 HD
ENDBRANCH   3  43
TORSDOF 5
ENDMDL
MODEL 4
REMARK VINA RESULT:      -6.3      2.506      7.529
REMARK  Name = *****
REMARK                            x       y       z     vdW  Elec       q    Type
REMARK                         _______ _______ _______ _____ _____    ______ ____
ROOT
ATOM      1  C   LIG    1       21.092 -28.740  13.901  0.00  0.00    +0.170 C 
ATOM      2  N   LIG    1       22.178 -29.262  13.057  0.00  0.00    -0.233 N 
ATOM      3  C   LIG    1       21.992 -30.328  12.127  0.00  0.00    +0.269 C 
ATOM      4  O   LIG    1       23.101 -31.208  12.256  0.00  0.00    -0.298 OA
ATOM      5  C   LIG    1       24.141 -30.566  13.016  0.00  0.00    +0.220 C 
ATOM      6  C   LIG    1       20.638 -31.063  12.317  0.00  0.00    +0.156 C 
ATOM      7  N   LIG    1       20.128 -31.011  13.682  0.00  0.00    -0.290 N 
ATOM      8  C   LIG    1       19.414 -32.217  14.050  0.00  0.00    +0.108 C 
ATOM      9  C   LIG    1       19.358 -33.024  12.757  0.00  0.00    +0.021 C 
ATOM     10  C   LIG    1       20.600 -32.557  11.993  0.00  0.00    +0.031 C 
ATOM     11  C   LIG    1       23.458 -29.312  13.573  0.00  0.00    +0.271 C 
ATOM     12  O   LIG    1       23.909 -28.531  14.406  0.00  0.00    -0.270 OA
ATOM     13  C   LIG    1       20.203 -29.880  14.466  0.00  0.00    +0.237 C 
ATOM     14  O   LIG    1       19.549 -29.756  15.500  0.00  0.00    -0.274 OA
ENDROOT
BRANCH   5  15
ATOM     15  N   LIG    1       25.185 -30.255  12.068  0.00  0.00    -0.280 N 
ATOM     16  H   LIG    1       25.229 -30.836  11.236  0.00  0.00    +0.152 HD
ATOM     17  C   LIG    1       26.265 -29.456  12.334  0.00  0.00    +0.220 C 
ATOM     18  O   LIG    1       26.449 -28.904  13.416  0.00  0.00    -0.275 OA
BRANCH  17  19
ATOM     19  C   LIG    1       27.225 -29.213  11.167  0.00  0.00    +0.090 C 
ATOM     20  C   LIG    1       27.727 -30.517  10.544  0.00  0.00    +0.097 C 
ATOM     21  N   LIG    1       26.689 -31.223   9.763  0.00  0.00    -0.301 NA
ATOM     22  C   LIG    1       27.268 -32.410   9.138  0.00  0.00    +0.105 C 
ATOM     23  C   LIG    1       25.909 -30.321   8.851  0.00  0.00    +0.068 C 
ATOM     24  C   LIG    1       26.554 -28.877   8.713  0.00  0.00    +0.038 C 
ATOM     25  C   LIG    1       25.818 -27.987   7.726  0.00  0.00    -0.033 C 
ATOM     26  C   LIG    1       24.985 -28.608   6.789  0.00  0.00    +0.006 C 
ATOM     27  C   LIG    1       24.300 -27.907   5.815  0.00  0.00    +0.047 C 
ATOM     28  N   LIG    1       23.587 -28.847   5.102  0.00  0.00    -0.360 NA
ATOM     29  H   LIG    1       22.985 -28.636   4.319  0.00  0.00    +0.165 HD
ATOM     30  C   LIG    1       23.847 -30.113   5.586  0.00  0.00    +0.087 C 
ATOM     31  C   LIG    1       24.422 -26.524   5.690  0.00  0.00    +0.026 C 
ATOM     32  C   LIG    1       25.276 -25.885   6.602  0.00  0.00    +0.002 C 
ATOM     33  C   LIG    1       24.732 -29.984   6.631  0.00  0.00    -0.021 C 
ATOM     34  C   LIG    1       25.963 -26.597   7.599  0.00  0.00    +0.005 C 
ATOM     35  C   LIG    1       25.435 -30.970   7.498  0.00  0.00    +0.056 C 
ATOM     36  C   LIG    1       26.633 -28.253  10.122  0.00  0.00    +0.023 C 
ENDBRANCH  17  19
ENDBRANCH   5  15
BRANCH   1  38
ATOM     37  C   LIG    1       19.152 -27.130  14.239  0.00  0.00    +0.009 C 
ATOM     38  C   LIG    1       20.285 -27.566  13.304  0.00  0.00    +0.013 C 
ATOM     39  C   LIG    1       21.104 -26.350  12.882  0.00  0.00    +0.009 C 
ENDBRANCH   1  38
BRANCH   5  40
ATOM     40  C   LIG    1       24.569 -31.523  14.166  0.00  0.00    +0.043 C 
ATOM     41  C   LIG    1       23.374 -32.010  15.006  0.00  0.00    +0.012 C 
ATOM     42  C   LIG    1       25.315 -32.767  13.663  0.00  0.00    +0.012 C 
ENDBRANCH   5  40
BRANCH   3  43
ATOM     43  O   LIG    1       22.057 -29.744  10.841  0.00  0.00    -0.348 OA
ATOM     44  H   LIG    1       22.238 -28.803  10.985  0.00  0.00    +0.214 HD
ENDBRANCH   3  43
TORSDOF 5
ENDMDL
MODEL 5
REMARK VINA RESULT:      -5.9      2.689      4.809
REMARK  Name = *****
REMARK                            x       y       z     vdW  Elec       q    Type
REMARK                         _______ _______ _______ _____ _____    ______ ____
ROOT
ATOM      1  C   LIG    1       24.867 -30.279   7.221  0.00  0.00    +0.170 C 
ATOM      2  N   LIG    1       25.027 -30.617   8.644  0.00  0.00    -0.233 N 
ATOM      3  C   LIG    1       26.158 -31.325   9.149  0.00  0.00    +0.269 C 
ATOM      4  O   LIG    1       25.678 -32.302  10.063  0.00  0.00    -0.298 OA
ATOM      5  C   LIG    1       24.305 -32.024  10.391  0.00  0.00    +0.220 C 
ATOM      6  C   LIG    1       27.026 -31.953   8.027  0.00  0.00    +0.156 C 
ATOM      7  N   LIG    1       26.279 -32.274   6.816  0.00  0.00    -0.290 N 
ATOM      8  C   LIG    1       26.782 -33.461   6.157  0.00  0.00    +0.108 C 
ATOM      9  C   LIG    1       28.033 -33.825   6.950  0.00  0.00    +0.021 C 
ATOM     10  C   LIG    1       27.743 -33.266   8.346  0.00  0.00    +0.031 C 
ATOM     11  C   LIG    1       23.906 -30.942   9.381  0.00  0.00    +0.271 C 
ATOM     12  O   LIG    1       22.779 -30.499   9.176  0.00  0.00    -0.270 OA
ATOM     13  C   LIG    1       25.304 -31.449   6.298  0.00  0.00    +0.237 C 
ATOM     14  O   LIG    1       24.869 -31.586   5.157  0.00  0.00    -0.274 OA
ENDROOT
BRANCH   5  15
ATOM     15  N   LIG    1       24.316 -31.537  11.751  0.00  0.00    -0.280 N 
ATOM     16  H   LIG    1       23.962 -32.171  12.462  0.00  0.00    +0.152 HD
ATOM     17  C   LIG    1       24.487 -30.225  12.107  0.00  0.00    +0.220 C 
ATOM     18  O   LIG    1       24.665 -29.322  11.294  0.00  0.00    -0.275 OA
BRANCH  17  19
ATOM     19  C   LIG    1       24.522 -29.936  13.610  0.00  0.00    +0.090 C 
ATOM     20  C   LIG    1       25.093 -31.106  14.414  0.00  0.00    +0.097 C 
ATOM     21  N   LIG    1       26.552 -31.269  14.243  0.00  0.00    -0.301 NA
ATOM     22  C   LIG    1       27.029 -32.349  15.103  0.00  0.00    +0.105 C 
ATOM     23  C   LIG    1       27.314 -29.979  14.334  0.00  0.00    +0.068 C 
ATOM     24  C   LIG    1       26.429 -28.777  14.875  0.00  0.00    +0.038 C 
ATOM     25  C   LIG    1       27.216 -27.489  15.050  0.00  0.00    -0.033 C 
ATOM     26  C   LIG    1       28.609 -27.586  15.133  0.00  0.00    +0.006 C 
ATOM     27  C   LIG    1       29.426 -26.491  15.336  0.00  0.00    +0.047 C 
ATOM     28  N   LIG    1       30.716 -26.975  15.346  0.00  0.00    -0.360 NA
ATOM     29  H   LIG    1       31.540 -26.407  15.476  0.00  0.00    +0.165 HD
ATOM     30  C   LIG    1       30.713 -28.347  15.196  0.00  0.00    +0.087 C 
ATOM     31  C   LIG    1       28.900 -25.210  15.500  0.00  0.00    +0.026 C 
ATOM     32  C   LIG    1       27.502 -25.095  15.451  0.00  0.00    +0.002 C 
ATOM     33  C   LIG    1       29.402 -28.749  15.076  0.00  0.00    -0.021 C 
ATOM     34  C   LIG    1       26.674 -26.208  15.232  0.00  0.00    +0.005 C 
ATOM     35  C   LIG    1       28.753 -30.083  14.964  0.00  0.00    +0.056 C 
ATOM     36  C   LIG    1       25.224 -28.606  13.927  0.00  0.00    +0.023 C 
ENDBRANCH  17  19
ENDBRANCH   5  15
BRANCH   1  38
ATOM     37  C   LIG    1       24.455 -28.152   5.889  0.00  0.00    +0.009 C 
ATOM     38  C   LIG    1       25.436 -28.909   6.790  0.00  0.00    +0.013 C 
ATOM     39  C   LIG    1       25.900 -28.001   7.926  0.00  0.00    +0.009 C 
ENDBRANCH   1  38
BRANCH   5  40
ATOM     40  C   LIG    1       23.476 -33.323  10.172  0.00  0.00    +0.043 C 
ATOM     41  C   LIG    1       22.080 -33.248  10.816  0.00  0.00    +0.012 C 
ATOM     42  C   LIG    1       23.280 -33.665   8.688  0.00  0.00    +0.012 C 
ENDBRANCH   5  40
BRANCH   3  43
ATOM     43  O   LIG    1       26.914 -30.385   9.887  0.00  0.00    -0.348 OA
ATOM     44  H   LIG    1       27.123 -29.668   9.268  0.00  0.00    +0.214 HD
ENDBRANCH   3  43
TORSDOF 5
ENDMDL
MODEL 6
REMARK VINA RESULT:      -5.8      2.834      8.082
REMARK  Name = *****
REMARK                            x       y       z     vdW  Elec       q    Type
REMARK                         _______ _______ _______ _____ _____    ______ ____
ROOT
ATOM      1  C   LIG    1       19.404 -29.075  14.352  0.00  0.00    +0.170 C 
ATOM      2  N   LIG    1       20.476 -29.774  13.627  0.00  0.00    -0.233 N 
ATOM      3  C   LIG    1       20.240 -30.543  12.449  0.00  0.00    +0.269 C 
ATOM      4  O   LIG    1       20.983 -31.749  12.567  0.00  0.00    -0.298 OA
ATOM      5  C   LIG    1       21.932 -31.627  13.642  0.00  0.00    +0.220 C 
ATOM      6  C   LIG    1       18.732 -30.810  12.196  0.00  0.00    +0.156 C 
ATOM      7  N   LIG    1       17.927 -30.827  13.411  0.00  0.00    -0.290 N 
ATOM      8  C   LIG    1       16.832 -31.772  13.334  0.00  0.00    +0.108 C 
ATOM      9  C   LIG    1       16.882 -32.281  11.898  0.00  0.00    +0.021 C 
ATOM     10  C   LIG    1       18.357 -32.130  11.518  0.00  0.00    +0.031 C 
ATOM     11  C   LIG    1       21.514 -30.333  14.347  0.00  0.00    +0.271 C 
ATOM     12  O   LIG    1       21.939 -29.899  15.414  0.00  0.00    -0.270 OA
ATOM     13  C   LIG    1       18.115 -29.935  14.446  0.00  0.00    +0.237 C 
ATOM     14  O   LIG    1       17.282 -29.780  15.336  0.00  0.00    -0.274 OA
ENDROOT
BRANCH   5  15
ATOM     15  N   LIG    1       23.228 -31.523  13.012  0.00  0.00    -0.280 N 
ATOM     16  H   LIG    1       23.791 -32.368  12.992  0.00  0.00    +0.152 HD
ATOM     17  C   LIG    1       23.855 -30.342  12.712  0.00  0.00    +0.220 C 
ATOM     18  O   LIG    1       23.364 -29.239  12.940  0.00  0.00    -0.275 OA
BRANCH  17  19
ATOM     19  C   LIG    1       25.201 -30.460  11.994  0.00  0.00    +0.090 C 
ATOM     20  C   LIG    1       25.503 -31.894  11.554  0.00  0.00    +0.097 C 
ATOM     21  N   LIG    1       24.668 -32.339  10.418  0.00  0.00    -0.301 NA
ATOM     22  C   LIG    1       25.073 -33.682  10.008  0.00  0.00    +0.105 C 
ATOM     23  C   LIG    1       24.567 -31.325   9.316  0.00  0.00    +0.068 C 
ATOM     24  C   LIG    1       25.599 -30.130   9.480  0.00  0.00    +0.038 C 
ATOM     25  C   LIG    1       25.560 -29.145   8.324  0.00  0.00    -0.033 C 
ATOM     26  C   LIG    1       24.988 -29.577   7.123  0.00  0.00    +0.006 C 
ATOM     27  C   LIG    1       24.936 -28.787   5.991  0.00  0.00    +0.047 C 
ATOM     28  N   LIG    1       24.297 -29.541   5.031  0.00  0.00    -0.360 NA
ATOM     29  H   LIG    1       24.110 -29.229   4.088  0.00  0.00    +0.165 HD
ATOM     30  C   LIG    1       23.991 -30.791   5.529  0.00  0.00    +0.087 C 
ATOM     31  C   LIG    1       25.482 -27.504   5.972  0.00  0.00    +0.026 C 
ATOM     32  C   LIG    1       26.088 -27.062   7.158  0.00  0.00    +0.002 C 
ATOM     33  C   LIG    1       24.430 -30.837   6.832  0.00  0.00    -0.021 C 
ATOM     34  C   LIG    1       26.130 -27.863   8.312  0.00  0.00    +0.005 C 
ATOM     35  C   LIG    1       24.456 -31.913   7.860  0.00  0.00    +0.056 C 
ATOM     36  C   LIG    1       25.331 -29.452  10.841  0.00  0.00    +0.023 C 
ENDBRANCH  17  19
ENDBRANCH   5  15
BRANCH   1  38
ATOM     37  C   LIG    1       18.635 -26.763  15.082  0.00  0.00    +0.009 C 
ATOM     38  C   LIG    1       19.142 -27.616  13.915  0.00  0.00    +0.013 C 
ATOM     39  C   LIG    1       20.310 -26.913  13.230  0.00  0.00    +0.009 C 
ENDBRANCH   1  38
BRANCH   5  40
ATOM     40  C   LIG    1       21.765 -32.854  14.585  0.00  0.00    +0.043 C 
ATOM     41  C   LIG    1       22.993 -33.078  15.486  0.00  0.00    +0.012 C 
ATOM     42  C   LIG    1       20.537 -32.742  15.500  0.00  0.00    +0.012 C 
ENDBRANCH   5  40
BRANCH   3  43
ATOM     43  O   LIG    1       20.794 -29.804  11.378  0.00  0.00    -0.348 OA
ATOM     44  H   LIG    1       21.717 -30.091  11.306  0.00  0.00    +0.214 HD
ENDBRANCH   3  43
TORSDOF 5
ENDMDL
MODEL 7
REMARK VINA RESULT:      -5.7      2.651      7.527
REMARK  Name = *****
REMARK                            x       y       z     vdW  Elec       q    Type
REMARK                         _______ _______ _______ _____ _____    ______ ____
ROOT
ATOM      1  C   LIG    1       19.986 -31.022  11.841  0.00  0.00    +0.170 C 
ATOM      2  N   LIG    1       21.449 -30.879  11.783  0.00  0.00    -0.233 N 
ATOM      3  C   LIG    1       22.343 -31.812  12.387  0.00  0.00    +0.269 C 
ATOM      4  O   LIG    1       23.359 -31.068  13.046  0.00  0.00    -0.298 OA
ATOM      5  C   LIG    1       23.313 -29.697  12.610  0.00  0.00    +0.220 C 
ATOM      6  C   LIG    1       21.626 -32.797  13.349  0.00  0.00    +0.156 C 
ATOM      7  N   LIG    1       20.412 -32.254  13.948  0.00  0.00    -0.290 N 
ATOM      8  C   LIG    1       20.201 -32.734  15.298  0.00  0.00    +0.108 C 
ATOM      9  C   LIG    1       21.302 -33.770  15.500  0.00  0.00    +0.021 C 
ATOM     10  C   LIG    1       22.415 -33.292  14.562  0.00  0.00    +0.031 C 
ATOM     11  C   LIG    1       21.998 -29.612  11.827  0.00  0.00    +0.271 C 
ATOM     12  O   LIG    1       21.457 -28.599  11.394  0.00  0.00    -0.270 OA
ATOM     13  C   LIG    1       19.508 -31.488  13.243  0.00  0.00    +0.237 C 
ATOM     14  O   LIG    1       18.377 -31.258  13.664  0.00  0.00    -0.274 OA
ENDROOT
BRANCH   5  15
ATOM     15  N   LIG    1       24.472 -29.513  11.769  0.00  0.00    -0.280 N 
ATOM     16  H   LIG    1       24.325 -29.607  10.768  0.00  0.00    +0.152 HD
ATOM     17  C   LIG    1       25.767 -29.512  12.217  0.00  0.00    +0.220 C 
ATOM     18  O   LIG    1       26.074 -29.656  13.397  0.00  0.00    -0.275 OA
BRANCH  17  19
ATOM     19  C   LIG    1       26.843 -29.243  11.162  0.00  0.00    +0.090 C 
ATOM     20  C   LIG    1       27.391 -30.533  10.548  0.00  0.00    +0.097 C 
ATOM     21  N   LIG    1       26.431 -31.196   9.641  0.00  0.00    -0.301 NA
ATOM     22  C   LIG    1       27.058 -32.369   9.035  0.00  0.00    +0.105 C 
ATOM     23  C   LIG    1       25.758 -30.253   8.687  0.00  0.00    +0.068 C 
ATOM     24  C   LIG    1       26.428 -28.814   8.666  0.00  0.00    +0.038 C 
ATOM     25  C   LIG    1       25.806 -27.881   7.642  0.00  0.00    -0.033 C 
ATOM     26  C   LIG    1       25.066 -28.457   6.604  0.00  0.00    +0.006 C 
ATOM     27  C   LIG    1       24.492 -27.714   5.591  0.00  0.00    +0.047 C 
ATOM     28  N   LIG    1       23.844 -28.618   4.777  0.00  0.00    -0.360 NA
ATOM     29  H   LIG    1       23.327 -28.372   3.945  0.00  0.00    +0.165 HD
ATOM     30  C   LIG    1       24.041 -29.904   5.239  0.00  0.00    +0.087 C 
ATOM     31  C   LIG    1       24.640 -26.329   5.529  0.00  0.00    +0.026 C 
ATOM     32  C   LIG    1       25.404 -25.733   6.545  0.00  0.00    +0.002 C 
ATOM     33  C   LIG    1       24.816 -29.823   6.373  0.00  0.00    -0.021 C 
ATOM     34  C   LIG    1       25.978 -26.489   7.580  0.00  0.00    +0.005 C 
ATOM     35  C   LIG    1       25.416 -30.848   7.270  0.00  0.00    +0.056 C 
ATOM     36  C   LIG    1       26.371 -28.240  10.098  0.00  0.00    +0.023 C 
ENDBRANCH  17  19
ENDBRANCH   5  15
BRANCH   1  38
ATOM     37  C   LIG    1       19.097 -33.272  11.057  0.00  0.00    +0.009 C 
ATOM     38  C   LIG    1       19.343 -31.808  10.678  0.00  0.00    +0.013 C 
ATOM     39  C   LIG    1       18.068 -31.203  10.098  0.00  0.00    +0.009 C 
ENDBRANCH   1  38
BRANCH   5  40
ATOM     40  C   LIG    1       23.270 -28.783  13.869  0.00  0.00    +0.043 C 
ATOM     41  C   LIG    1       23.258 -27.286  13.512  0.00  0.00    +0.012 C 
ATOM     42  C   LIG    1       22.052 -29.053  14.764  0.00  0.00    +0.012 C 
ENDBRANCH   5  40
BRANCH   3  43
ATOM     43  O   LIG    1       22.952 -32.520  11.326  0.00  0.00    -0.348 OA
ATOM     44  H   LIG    1       22.677 -32.068  10.513  0.00  0.00    +0.214 HD
ENDBRANCH   3  43
TORSDOF 5
ENDMDL
MODEL 8
REMARK VINA RESULT:      -5.4      3.819      8.253
REMARK  Name = *****
REMARK                            x       y       z     vdW  Elec       q    Type
REMARK                         _______ _______ _______ _____ _____    ______ ____
ROOT
ATOM      1  C   LIG    1       27.800 -29.169  13.755  0.00  0.00    +0.170 C 
ATOM      2  N   LIG    1       27.328 -28.649  12.463  0.00  0.00    -0.233 N 
ATOM      3  C   LIG    1       26.051 -28.035  12.295  0.00  0.00    +0.269 C 
ATOM      4  O   LIG    1       25.485 -28.544  11.095  0.00  0.00    -0.298 OA
ATOM      5  C   LIG    1       26.499 -29.222  10.332  0.00  0.00    +0.220 C 
ATOM      6  C   LIG    1       25.116 -28.246  13.516  0.00  0.00    +0.156 C 
ATOM      7  N   LIG    1       25.394 -29.467  14.264  0.00  0.00    -0.290 N 
ATOM      8  C   LIG    1       24.194 -30.060  14.818  0.00  0.00    +0.108 C 
ATOM      9  C   LIG    1       23.100 -29.045  14.503  0.00  0.00    +0.021 C 
ATOM     10  C   LIG    1       23.615 -28.348  13.241  0.00  0.00    +0.031 C 
ATOM     11  C   LIG    1       27.679 -29.318  11.307  0.00  0.00    +0.271 C 
ATOM     12  O   LIG    1       28.718 -29.952  11.152  0.00  0.00    -0.270 OA
ATOM     13  C   LIG    1       26.674 -29.910  14.525  0.00  0.00    +0.237 C 
ATOM     14  O   LIG    1       26.908 -30.776  15.365  0.00  0.00    -0.274 OA
ENDROOT
BRANCH   5  15
ATOM     15  N   LIG    1       26.780 -28.367   9.203  0.00  0.00    -0.280 N 
ATOM     16  H   LIG    1       27.504 -27.666   9.334  0.00  0.00    +0.152 HD
ATOM     17  C   LIG    1       25.971 -28.237   8.105  0.00  0.00    +0.220 C 
ATOM     18  O   LIG    1       24.919 -28.855   7.962  0.00  0.00    -0.275 OA
BRANCH  17  19
ATOM     19  C   LIG    1       26.487 -27.316   6.996  0.00  0.00    +0.090 C 
ATOM     20  C   LIG    1       25.654 -27.421   5.717  0.00  0.00    +0.097 C 
ATOM     21  N   LIG    1       24.320 -26.797   5.843  0.00  0.00    -0.301 NA
ATOM     22  C   LIG    1       23.622 -26.867   4.561  0.00  0.00    +0.105 C 
ATOM     23  C   LIG    1       24.349 -25.446   6.496  0.00  0.00    +0.068 C 
ATOM     24  C   LIG    1       25.819 -24.864   6.643  0.00  0.00    +0.038 C 
ATOM     25  C   LIG    1       25.849 -23.461   7.225  0.00  0.00    -0.033 C 
ATOM     26  C   LIG    1       24.671 -22.710   7.170  0.00  0.00    +0.006 C 
ATOM     27  C   LIG    1       24.589 -21.409   7.626  0.00  0.00    +0.047 C 
ATOM     28  N   LIG    1       23.285 -21.015   7.418  0.00  0.00    -0.360 NA
ATOM     29  H   LIG    1       22.917 -20.104   7.653  0.00  0.00    +0.165 HD
ATOM     30  C   LIG    1       22.571 -22.025   6.808  0.00  0.00    +0.087 C 
ATOM     31  C   LIG    1       25.700 -20.749   8.151  0.00  0.00    +0.026 C 
ATOM     32  C   LIG    1       26.901 -21.475   8.188  0.00  0.00    +0.002 C 
ATOM     33  C   LIG    1       23.426 -23.089   6.630  0.00  0.00    -0.021 C 
ATOM     34  C   LIG    1       26.979 -22.802   7.734  0.00  0.00    +0.005 C 
ATOM     35  C   LIG    1       23.276 -24.418   5.977  0.00  0.00    +0.056 C 
ATOM     36  C   LIG    1       26.647 -25.865   7.477  0.00  0.00    +0.023 C 
ENDBRANCH  17  19
ENDBRANCH   5  15
BRANCH   1  38
ATOM     37  C   LIG    1       27.659 -27.324  15.500  0.00  0.00    +0.009 C 
ATOM     38  C   LIG    1       28.592 -28.172  14.629  0.00  0.00    +0.013 C 
ATOM     39  C   LIG    1       29.693 -28.781  15.493  0.00  0.00    +0.009 C 
ENDBRANCH   1  38
BRANCH   5  40
ATOM     40  C   LIG    1       25.968 -30.637   9.961  0.00  0.00    +0.043 C 
ATOM     41  C   LIG    1       27.009 -31.476   9.197  0.00  0.00    +0.012 C 
ATOM     42  C   LIG    1       25.529 -31.452  11.185  0.00  0.00    +0.012 C 
ENDBRANCH   5  40
BRANCH   3  43
ATOM     43  O   LIG    1       26.299 -26.657  12.100  0.00  0.00    -0.348 OA
ATOM     44  H   LIG    1       26.690 -26.580  11.217  0.00  0.00    +0.214 HD
ENDBRANCH   3  43
TORSDOF 5
ENDMDL
MODEL 9
REMARK VINA RESULT:      -5.2      1.567      3.331
REMARK  Name = *****
REMARK                            x       y       z     vdW  Elec       q    Type
REMARK                         _______ _______ _______ _____ _____    ______ ____
ROOT
ATOM      1  C   LIG    1       25.466 -32.435   6.857  0.00  0.00    +0.170 C 
ATOM      2  N   LIG    1       25.117 -31.856   8.163  0.00  0.00    -0.233 N 
ATOM      3  C   LIG    1       24.295 -30.699   8.303  0.00  0.00    +0.269 C 
ATOM      4  O   LIG    1       24.896 -29.861   9.281  0.00  0.00    -0.298 OA
ATOM      5  C   LIG    1       25.905 -30.599   9.994  0.00  0.00    +0.220 C 
ATOM      6  C   LIG    1       24.067 -29.957   6.959  0.00  0.00    +0.156 C 
ATOM      7  N   LIG    1       25.151 -30.132   6.000  0.00  0.00    -0.290 N 
ATOM      8  C   LIG    1       25.362 -28.954   5.184  0.00  0.00    +0.108 C 
ATOM      9  C   LIG    1       24.221 -28.021   5.578  0.00  0.00    +0.021 C 
ATOM     10  C   LIG    1       23.904 -28.437   7.017  0.00  0.00    +0.031 C 
ATOM     11  C   LIG    1       26.055 -31.887   9.177  0.00  0.00    +0.271 C 
ATOM     12  O   LIG    1       26.910 -32.757   9.315  0.00  0.00    -0.270 OA
ATOM     13  C   LIG    1       25.792 -31.338   5.808  0.00  0.00    +0.237 C 
ATOM     14  O   LIG    1       26.510 -31.550   4.833  0.00  0.00    -0.274 OA
ENDROOT
BRANCH   5  15
ATOM     15  N   LIG    1       25.361 -30.837  11.311  0.00  0.00    -0.280 N 
ATOM     16  H   LIG    1       25.789 -30.324  12.077  0.00  0.00    +0.152 HD
ATOM     17  C   LIG    1       24.538 -31.883  11.636  0.00  0.00    +0.220 C 
ATOM     18  O   LIG    1       24.164 -32.726  10.825  0.00  0.00    -0.275 OA
BRANCH  17  19
ATOM     19  C   LIG    1       24.031 -31.915  13.080  0.00  0.00    +0.090 C 
ATOM     20  C   LIG    1       24.753 -30.904  13.973  0.00  0.00    +0.097 C 
ATOM     21  N   LIG    1       24.369 -29.505  13.693  0.00  0.00    -0.301 NA
ATOM     22  C   LIG    1       25.037 -28.613  14.638  0.00  0.00    +0.105 C 
ATOM     23  C   LIG    1       22.888 -29.307  13.548  0.00  0.00    +0.068 C 
ATOM     24  C   LIG    1       22.049 -30.575  14.008  0.00  0.00    +0.038 C 
ATOM     25  C   LIG    1       20.548 -30.351  13.944  0.00  0.00    -0.033 C 
ATOM     26  C   LIG    1       20.090 -29.030  13.912  0.00  0.00    +0.006 C 
ATOM     27  C   LIG    1       18.747 -28.703  13.898  0.00  0.00    +0.047 C 
ATOM     28  N   LIG    1       18.693 -27.326  13.853  0.00  0.00    -0.360 NA
ATOM     29  H   LIG    1       17.839 -26.787  13.834  0.00  0.00    +0.165 HD
ATOM     30  C   LIG    1       19.967 -26.795  13.881  0.00  0.00    +0.087 C 
ATOM     31  C   LIG    1       17.758 -29.683  13.942  0.00  0.00    +0.026 C 
ATOM     32  C   LIG    1       18.196 -31.015  14.005  0.00  0.00    +0.002 C 
ATOM     33  C   LIG    1       20.853 -27.846  13.934  0.00  0.00    -0.021 C 
ATOM     34  C   LIG    1       19.561 -31.346  14.008  0.00  0.00    +0.005 C 
ATOM     35  C   LIG    1       22.334 -27.924  14.053  0.00  0.00    +0.056 C 
ATOM     36  C   LIG    1       22.502 -31.781  13.158  0.00  0.00    +0.023 C 
ENDBRANCH  17  19
ENDBRANCH   5  15
BRANCH   1  38
ATOM     37  C   LIG    1       23.054 -33.230   6.719  0.00  0.00    +0.009 C 
ATOM     38  C   LIG    1       24.506 -33.525   6.330  0.00  0.00    +0.013 C 
ATOM     39  C   LIG    1       24.592 -33.813   4.834  0.00  0.00    +0.009 C 
ENDBRANCH   1  38
BRANCH   5  40
ATOM     40  C   LIG    1       27.223 -29.770   9.974  0.00  0.00    +0.043 C 
ATOM     41  C   LIG    1       26.994 -28.309   9.548  0.00  0.00    +0.012 C 
ATOM     42  C   LIG    1       27.936 -29.748  11.333  0.00  0.00    +0.012 C 
ENDBRANCH   5  40
BRANCH   3  43
ATOM     43  O   LIG    1       23.063 -31.153   8.828  0.00  0.00    -0.348 OA
ATOM     44  H   LIG    1       22.716 -31.786   8.181  0.00  0.00    +0.214 HD
ENDBRANCH   3  43
TORSDOF 5
ENDMDL
