MODEL 1
REMARK VINA RESULT:      -6.8      0.000      0.000
REMARK  Name = *****
REMARK                            x       y       z     vdW  Elec       q    Type
REMARK                         _______ _______ _______ _____ _____    ______ ____
ROOT
ATOM      1  C   LIG    1       24.155 -21.589   6.774  0.00  0.00    +0.161 C 
ENDROOT
BRANCH   1   2
ATOM      2  C   LIG    1       23.920 -20.546   5.690  0.00  0.00    -0.018 A 
ATOM      3  C   LIG    1       24.872 -20.261   4.704  0.00  0.00    +0.006 A 
ATOM      4  C   LIG    1       24.610 -19.326   3.699  0.00  0.00    +0.000 A 
ATOM      5  C   LIG    1       23.381 -18.669   3.659  0.00  0.00    +0.000 A 
ATOM      6  C   LIG    1       22.415 -18.953   4.617  0.00  0.00    +0.000 A 
ATOM      7  C   LIG    1       22.676 -19.890   5.621  0.00  0.00    +0.006 A 
ENDBRANCH   1   2
BRANCH   1   9
ATOM      8  C   LIG    1       22.628 -23.629   6.787  0.00  0.00    +0.027 C 
ATOM      9  C   LIG    1       24.020 -23.108   6.370  0.00  0.00    +0.086 C 
BRANCH   9  10
ATOM     10  N   LIG    1       25.135 -23.981   6.825  0.00  0.00    -0.303 NA
ATOM     11  C   LIG    1       26.311 -23.220   7.253  0.00  0.00    +0.105 C 
ATOM     12  C   LIG    1       25.524 -25.001   5.854  0.00  0.00    +0.105 C 
ENDBRANCH   9  10
ENDBRANCH   1   9
BRANCH   1  13
ATOM     13  O   LIG    1       23.232 -21.312   7.841  0.00  0.00    -0.386 OA
ATOM     14  H   LIG    1       22.588 -20.664   7.505  0.00  0.00    +0.210 HD
ENDBRANCH   1  13
TORSDOF 4
ENDMDL
MODEL 2
REMARK VINA RESULT:      -6.6      1.439      1.940
REMARK  Name = *****
REMARK                            x       y       z     vdW  Elec       q    Type
REMARK                         _______ _______ _______ _____ _____    ______ ____
ROOT
ATOM      1  C   LIG    1       25.470 -21.697   5.892  0.00  0.00    +0.161 C 
ENDROOT
BRANCH   1   2
ATOM      2  C   LIG    1       24.573 -20.630   5.281  0.00  0.00    -0.018 A 
ATOM      3  C   LIG    1       24.943 -19.899   4.146  0.00  0.00    +0.006 A 
ATOM      4  C   LIG    1       24.080 -18.953   3.586  0.00  0.00    +0.000 A 
ATOM      5  C   LIG    1       22.823 -18.732   4.149  0.00  0.00    +0.000 A 
ATOM      6  C   LIG    1       22.430 -19.463   5.264  0.00  0.00    +0.000 A 
ATOM      7  C   LIG    1       23.292 -20.411   5.823  0.00  0.00    +0.006 A 
ENDBRANCH   1   2
BRANCH   1   9
ATOM      8  C   LIG    1       25.968 -21.982   8.376  0.00  0.00    +0.027 C 
ATOM      9  C   LIG    1       24.995 -22.367   7.240  0.00  0.00    +0.086 C 
BRANCH   9  10
ATOM     10  N   LIG    1       24.738 -23.830   7.157  0.00  0.00    -0.303 NA
ATOM     11  C   LIG    1       25.768 -24.545   6.401  0.00  0.00    +0.105 C 
ATOM     12  C   LIG    1       23.412 -24.170   6.643  0.00  0.00    +0.105 C 
ENDBRANCH   9  10
ENDBRANCH   1   9
BRANCH   1  13
ATOM     13  O   LIG    1       26.760 -21.101   6.104  0.00  0.00    -0.386 OA
ATOM     14  H   LIG    1       26.993 -21.240   7.039  0.00  0.00    +0.210 HD
ENDBRANCH   1  13
TORSDOF 4
ENDMDL
MODEL 3
REMARK VINA RESULT:      -6.6      1.978      2.549
REMARK  Name = *****
REMARK                            x       y       z     vdW  Elec       q    Type
REMARK                         _______ _______ _______ _____ _____    ______ ____
ROOT
ATOM      1  C   LIG    1       24.582 -22.170   5.751  0.00  0.00    +0.161 C 
ENDROOT
BRANCH   1   2
ATOM      2  C   LIG    1       24.049 -20.880   5.144  0.00  0.00    -0.018 A 
ATOM      3  C   LIG    1       24.667 -20.252   4.056  0.00  0.00    +0.006 A 
ATOM      4  C   LIG    1       24.130 -19.088   3.497  0.00  0.00    +0.000 A 
ATOM      5  C   LIG    1       22.957 -18.540   4.014  0.00  0.00    +0.000 A 
ATOM      6  C   LIG    1       22.318 -19.161   5.081  0.00  0.00    +0.000 A 
ATOM      7  C   LIG    1       22.853 -20.326   5.639  0.00  0.00    +0.006 A 
ENDBRANCH   1   2
BRANCH   1   9
ATOM      8  C   LIG    1       25.955 -23.220   7.624  0.00  0.00    +0.027 C 
ATOM      9  C   LIG    1       25.929 -22.093   6.569  0.00  0.00    +0.086 C 
BRANCH   9  10
ATOM     10  N   LIG    1       26.245 -20.752   7.133  0.00  0.00    -0.303 NA
ATOM     11  C   LIG    1       27.607 -20.313   6.821  0.00  0.00    +0.105 C 
ATOM     12  C   LIG    1       25.997 -20.640   8.569  0.00  0.00    +0.105 C 
ENDBRANCH   9  10
ENDBRANCH   1   9
BRANCH   1  13
ATOM     13  O   LIG    1       24.750 -23.110   4.676  0.00  0.00    -0.386 OA
ATOM     14  H   LIG    1       23.866 -23.298   4.315  0.00  0.00    +0.210 HD
ENDBRANCH   1  13
TORSDOF 4
ENDMDL
MODEL 4
REMARK VINA RESULT:      -6.6      1.503      2.484
REMARK  Name = *****
REMARK                            x       y       z     vdW  Elec       q    Type
REMARK                         _______ _______ _______ _____ _____    ______ ____
ROOT
ATOM      1  C   LIG    1       24.360 -21.813   6.935  0.00  0.00    +0.161 C 
ENDROOT
BRANCH   1   2
ATOM      2  C   LIG    1       24.011 -20.833   5.825  0.00  0.00    -0.018 A 
ATOM      3  C   LIG    1       22.805 -20.122   5.804  0.00  0.00    +0.006 A 
ATOM      4  C   LIG    1       22.530 -19.199   4.791  0.00  0.00    +0.000 A 
ATOM      5  C   LIG    1       23.468 -18.963   3.787  0.00  0.00    +0.000 A 
ATOM      6  C   LIG    1       24.680 -19.644   3.801  0.00  0.00    +0.000 A 
ATOM      7  C   LIG    1       24.956 -20.566   4.816  0.00  0.00    +0.006 A 
ENDBRANCH   1   2
BRANCH   1   9
ATOM      8  C   LIG    1       25.749 -23.948   7.050  0.00  0.00    +0.027 C 
ATOM      9  C   LIG    1       25.822 -22.409   6.953  0.00  0.00    +0.086 C 
BRANCH   9  10
ATOM     10  N   LIG    1       26.736 -21.798   7.955  0.00  0.00    -0.303 NA
ATOM     11  C   LIG    1       26.130 -20.665   8.658  0.00  0.00    +0.105 C 
ATOM     12  C   LIG    1       28.038 -21.413   7.412  0.00  0.00    +0.105 C 
ENDBRANCH   9  10
ENDBRANCH   1   9
BRANCH   1  13
ATOM     13  O   LIG    1       23.422 -22.900   6.857  0.00  0.00    -0.386 OA
ATOM     14  H   LIG    1       22.852 -22.735   6.085  0.00  0.00    +0.210 HD
ENDBRANCH   1  13
TORSDOF 4
ENDMDL
MODEL 5
REMARK VINA RESULT:      -6.4      1.521      4.567
REMARK  Name = *****
REMARK                            x       y       z     vdW  Elec       q    Type
REMARK                         _______ _______ _______ _____ _____    ______ ____
ROOT
ATOM      1  C   LIG    1       23.705 -21.342   7.085  0.00  0.00    +0.161 C 
ENDROOT
BRANCH   1   2
ATOM      2  C   LIG    1       24.166 -22.784   6.927  0.00  0.00    -0.018 A 
ATOM      3  C   LIG    1       23.303 -23.807   6.516  0.00  0.00    +0.006 A 
ATOM      4  C   LIG    1       23.767 -25.114   6.341  0.00  0.00    +0.000 A 
ATOM      5  C   LIG    1       25.110 -25.415   6.565  0.00  0.00    +0.000 A 
ATOM      6  C   LIG    1       25.987 -24.409   6.955  0.00  0.00    +0.000 A 
ATOM      7  C   LIG    1       25.524 -23.101   7.127  0.00  0.00    +0.006 A 
ENDBRANCH   1   2
BRANCH   1   9
ATOM      8  C   LIG    1       22.354 -20.237   5.227  0.00  0.00    +0.027 C 
ATOM      9  C   LIG    1       23.772 -20.408   5.814  0.00  0.00    +0.086 C 
BRANCH   9  10
ATOM     10  N   LIG    1       24.786 -20.802   4.800  0.00  0.00    -0.303 NA
ATOM     11  C   LIG    1       26.062 -20.105   4.974  0.00  0.00    +0.105 C 
ATOM     12  C   LIG    1       24.325 -20.668   3.419  0.00  0.00    +0.105 C 
ENDBRANCH   9  10
ENDBRANCH   1   9
BRANCH   1  13
ATOM     13  O   LIG    1       24.495 -20.753   8.131  0.00  0.00    -0.386 OA
ATOM     14  H   LIG    1       24.647 -19.822   7.890  0.00  0.00    +0.210 HD
ENDBRANCH   1  13
TORSDOF 4
ENDMDL
MODEL 6
REMARK VINA RESULT:      -6.4      4.711      5.885
REMARK  Name = *****
REMARK                            x       y       z     vdW  Elec       q    Type
REMARK                         _______ _______ _______ _____ _____    ______ ____
ROOT
ATOM      1  C   LIG    1       28.620 -20.515   7.764  0.00  0.00    +0.161 C 
ENDROOT
BRANCH   1   2
ATOM      2  C   LIG    1       27.161 -20.555   7.334  0.00  0.00    -0.018 A 
ATOM      3  C   LIG    1       26.771 -20.450   5.993  0.00  0.00    +0.006 A 
ATOM      4  C   LIG    1       25.425 -20.531   5.626  0.00  0.00    +0.000 A 
ATOM      5  C   LIG    1       24.446 -20.730   6.599  0.00  0.00    +0.000 A 
ATOM      6  C   LIG    1       24.815 -20.856   7.933  0.00  0.00    +0.000 A 
ATOM      7  C   LIG    1       26.161 -20.779   8.300  0.00  0.00    +0.006 A 
ENDBRANCH   1   2
BRANCH   1   9
ATOM      8  C   LIG    1       30.099 -18.864   6.505  0.00  0.00    +0.027 C 
ATOM      9  C   LIG    1       29.328 -19.104   7.820  0.00  0.00    +0.086 C 
BRANCH   9  10
ATOM     10  N   LIG    1       30.148 -18.862   9.037  0.00  0.00    -0.303 NA
ATOM     11  C   LIG    1       30.192 -17.449   9.419  0.00  0.00    +0.105 C 
ATOM     12  C   LIG    1       31.504 -19.402   8.955  0.00  0.00    +0.105 C 
ENDBRANCH   9  10
ENDBRANCH   1   9
BRANCH   1  13
ATOM     13  O   LIG    1       29.355 -21.362   6.866  0.00  0.00    -0.386 OA
ATOM     14  H   LIG    1       30.246 -21.478   7.241  0.00  0.00    +0.210 HD
ENDBRANCH   1  13
TORSDOF 4
ENDMDL
MODEL 7
REMARK VINA RESULT:      -6.2      3.296      4.552
REMARK  Name = *****
REMARK                            x       y       z     vdW  Elec       q    Type
REMARK                         _______ _______ _______ _____ _____    ______ ____
ROOT
ATOM      1  C   LIG    1       24.389 -25.455   5.890  0.00  0.00    +0.161 C 
ENDROOT
BRANCH   1   2
ATOM      2  C   LIG    1       24.488 -24.130   6.632  0.00  0.00    -0.018 A 
ATOM      3  C   LIG    1       25.693 -23.656   7.164  0.00  0.00    +0.006 A 
ATOM      4  C   LIG    1       25.758 -22.416   7.806  0.00  0.00    +0.000 A 
ATOM      5  C   LIG    1       24.616 -21.624   7.916  0.00  0.00    +0.000 A 
ATOM      6  C   LIG    1       23.414 -22.068   7.377  0.00  0.00    +0.000 A 
ATOM      7  C   LIG    1       23.349 -23.307   6.732  0.00  0.00    +0.006 A 
ENDBRANCH   1   2
BRANCH   1   9
ATOM      8  C   LIG    1       26.555 -26.761   5.570  0.00  0.00    +0.027 C 
ATOM      9  C   LIG    1       25.268 -26.656   6.417  0.00  0.00    +0.086 C 
BRANCH   9  10
ATOM     10  N   LIG    1       24.546 -27.949   6.553  0.00  0.00    -0.303 NA
ATOM     11  C   LIG    1       25.167 -28.844   7.533  0.00  0.00    +0.105 C 
ATOM     12  C   LIG    1       24.345 -28.652   5.288  0.00  0.00    +0.105 C 
ENDBRANCH   9  10
ENDBRANCH   1   9
BRANCH   1  13
ATOM     13  O   LIG    1       24.731 -25.202   4.517  0.00  0.00    -0.386 OA
ATOM     14  H   LIG    1       25.229 -24.366   4.492  0.00  0.00    +0.210 HD
ENDBRANCH   1  13
TORSDOF 4
ENDMDL
MODEL 8
REMARK VINA RESULT:      -6.2      2.638      5.044
REMARK  Name = *****
REMARK                            x       y       z     vdW  Elec       q    Type
REMARK                         _______ _______ _______ _____ _____    ______ ____
ROOT
ATOM      1  C   LIG    1       25.988 -21.618   7.720  0.00  0.00    +0.161 C 
ENDROOT
BRANCH   1   2
ATOM      2  C   LIG    1       25.215 -22.851   7.275  0.00  0.00    -0.018 A 
ATOM      3  C   LIG    1       23.826 -22.842   7.097  0.00  0.00    +0.006 A 
ATOM      4  C   LIG    1       23.150 -23.981   6.649  0.00  0.00    +0.000 A 
ATOM      5  C   LIG    1       23.858 -25.147   6.361  0.00  0.00    +0.000 A 
ATOM      6  C   LIG    1       25.240 -25.169   6.513  0.00  0.00    +0.000 A 
ATOM      7  C   LIG    1       25.917 -24.030   6.958  0.00  0.00    +0.006 A 
ENDBRANCH   1   2
BRANCH   1   9
ATOM      8  C   LIG    1       28.511 -21.294   7.879  0.00  0.00    +0.027 C 
ATOM      9  C   LIG    1       27.300 -21.250   6.923  0.00  0.00    +0.086 C 
BRANCH   9  10
ATOM     10  N   LIG    1       27.221 -19.994   6.131  0.00  0.00    -0.303 NA
ATOM     11  C   LIG    1       26.269 -20.083   5.022  0.00  0.00    +0.105 C 
ATOM     12  C   LIG    1       28.514 -19.517   5.645  0.00  0.00    +0.105 C 
ENDBRANCH   9  10
ENDBRANCH   1   9
BRANCH   1  13
ATOM     13  O   LIG    1       26.327 -21.803   9.105  0.00  0.00    -0.386 OA
ATOM     14  H   LIG    1       26.400 -22.761   9.260  0.00  0.00    +0.210 HD
ENDBRANCH   1  13
TORSDOF 4
ENDMDL
MODEL 9
REMARK VINA RESULT:      -6.2      3.446      4.732
REMARK  Name = *****
REMARK                            x       y       z     vdW  Elec       q    Type
REMARK                         _______ _______ _______ _____ _____    ______ ____
ROOT
ATOM      1  C   LIG    1       27.099 -20.335   7.782  0.00  0.00    +0.161 C 
ENDROOT
BRANCH   1   2
ATOM      2  C   LIG    1       25.834 -20.518   6.955  0.00  0.00    -0.018 A 
ATOM      3  C   LIG    1       24.581 -20.737   7.540  0.00  0.00    +0.006 A 
ATOM      4  C   LIG    1       23.432 -20.863   6.754  0.00  0.00    +0.000 A 
ATOM      5  C   LIG    1       23.519 -20.758   5.366  0.00  0.00    +0.000 A 
ATOM      6  C   LIG    1       24.751 -20.521   4.768  0.00  0.00    +0.000 A 
ATOM      7  C   LIG    1       25.900 -20.393   5.554  0.00  0.00    +0.006 A 
ENDBRANCH   1   2
BRANCH   1   9
ATOM      8  C   LIG    1       29.342 -21.541   7.684  0.00  0.00    +0.027 C 
ATOM      9  C   LIG    1       28.484 -20.436   7.032  0.00  0.00    +0.086 C 
BRANCH   9  10
ATOM     10  N   LIG    1       29.207 -19.146   6.873  0.00  0.00    -0.303 NA
ATOM     11  C   LIG    1       29.118 -18.610   5.513  0.00  0.00    +0.105 C 
ATOM     12  C   LIG    1       30.603 -19.192   7.304  0.00  0.00    +0.105 C 
ENDBRANCH   9  10
ENDBRANCH   1   9
BRANCH   1  13
ATOM     13  O   LIG    1       27.070 -21.317   8.830  0.00  0.00    -0.386 OA
ATOM     14  H   LIG    1       27.103 -22.193   8.407  0.00  0.00    +0.210 HD
ENDBRANCH   1  13
TORSDOF 4
ENDMDL
