MODEL 1
REMARK VINA RESULT:      -5.7      0.000      0.000
REMARK  Name = *****
REMARK                            x       y       z     vdW  Elec       q    Type
REMARK                         _______ _______ _______ _____ _____    ______ ____
ROOT
ATOM      1  CA  PRO A  1       30.585 -20.652   8.478  0.00  0.00    +0.163 C 
ATOM      2  N   PRO A  1       31.482 -20.124   7.435  0.00  0.00    -0.304 NA
ATOM      3  H   PRO A  1       32.296 -19.675   7.851  0.00  0.00    +0.123 HD
ATOM      4  CD  PRO A  1       30.669 -19.211   6.649  0.00  0.00    +0.082 C 
ATOM      5  CG  PRO A  1       29.356 -19.962   6.504  0.00  0.00    +0.017 C 
ATOM      6  CB  PRO A  1       29.315 -20.931   7.683  0.00  0.00    +0.031 C 
ENDROOT
BRANCH   1   8
ATOM      7  O   PRO A  1       30.782 -22.348  10.231  0.00  0.00    -0.249 OA
ATOM      8  C   PRO A  1       31.206 -21.862   9.189  0.00  0.00    +0.322 C 
BRANCH   8   9
ATOM      9  OXT PRO A  1       32.214 -22.453   8.501  0.00  0.00    -0.479 OA
ATOM     10  HXT PRO A  1       32.607 -21.907   7.798  0.00  0.00    +0.295 HD
ENDBRANCH   8   9
ENDBRANCH   1   8
TORSDOF 2
ENDMDL
MODEL 2
REMARK VINA RESULT:      -5.4      3.468      3.801
REMARK  Name = *****
REMARK                            x       y       z     vdW  Elec       q    Type
REMARK                         _______ _______ _______ _____ _____    ______ ____
ROOT
ATOM      1  CA  PRO A  1       31.736 -18.353   8.510  0.00  0.00    +0.163 C 
ATOM      2  N   PRO A  1       31.806 -19.691   9.124  0.00  0.00    -0.304 NA
ATOM      3  H   PRO A  1       32.769 -20.020   9.166  0.00  0.00    +0.123 HD
ATOM      4  CD  PRO A  1       30.952 -20.537   8.307  0.00  0.00    +0.082 C 
ATOM      5  CG  PRO A  1       29.742 -19.655   8.050  0.00  0.00    +0.017 C 
ATOM      6  CB  PRO A  1       30.247 -18.223   8.216  0.00  0.00    +0.031 C 
ENDROOT
BRANCH   1   8
ATOM      7  O   PRO A  1       32.626 -17.469  10.611  0.00  0.00    -0.249 OA
ATOM      8  C   PRO A  1       32.329 -17.282   9.437  0.00  0.00    +0.322 C 
BRANCH   8   9
ATOM      9  OXT PRO A  1       32.626 -16.113   8.817  0.00  0.00    -0.479 OA
ATOM     10  HXT PRO A  1       31.891 -15.713   8.320  0.00  0.00    +0.295 HD
ENDBRANCH   8   9
ENDBRANCH   1   8
TORSDOF 2
ENDMDL
MODEL 3
REMARK VINA RESULT:      -5.2      3.517      4.020
REMARK  Name = *****
REMARK                            x       y       z     vdW  Elec       q    Type
REMARK                         _______ _______ _______ _____ _____    ______ ____
ROOT
ATOM      1  CA  PRO A  1       31.621 -18.293   8.868  0.00  0.00    +0.163 C 
ATOM      2  N   PRO A  1       32.281 -17.010   8.568  0.00  0.00    -0.304 NA
ATOM      3  H   PRO A  1       33.198 -17.163   8.151  0.00  0.00    +0.123 HD
ATOM      4  CD  PRO A  1       32.345 -16.300   9.834  0.00  0.00    +0.082 C 
ATOM      5  CG  PRO A  1       30.978 -16.563  10.442  0.00  0.00    +0.017 C 
ATOM      6  CB  PRO A  1       30.487 -17.851   9.785  0.00  0.00    +0.031 C 
ENDROOT
BRANCH   1   8
ATOM      7  O   PRO A  1       30.608 -18.485   6.650  0.00  0.00    -0.249 OA
ATOM      8  C   PRO A  1       31.197 -19.017   7.583  0.00  0.00    +0.322 C 
BRANCH   8   9
ATOM      9  OXT PRO A  1       31.640 -20.295   7.493  0.00  0.00    -0.479 OA
ATOM     10  HXT PRO A  1       30.979 -20.975   7.713  0.00  0.00    +0.295 HD
ENDBRANCH   8   9
ENDBRANCH   1   8
TORSDOF 2
ENDMDL
MODEL 4
REMARK VINA RESULT:      -5.1      3.116      3.649
REMARK  Name = *****
REMARK                            x       y       z     vdW  Elec       q    Type
REMARK                         _______ _______ _______ _____ _____    ______ ____
ROOT
ATOM      1  CA  PRO A  1       30.960 -18.683   9.194  0.00  0.00    +0.163 C 
ATOM      2  N   PRO A  1       30.776 -18.741  10.656  0.00  0.00    -0.304 NA
ATOM      3  H   PRO A  1       30.053 -19.414  10.903  0.00  0.00    +0.123 HD
ATOM      4  CD  PRO A  1       30.451 -17.383  11.060  0.00  0.00    +0.082 C 
ATOM      5  CG  PRO A  1       31.415 -16.542  10.241  0.00  0.00    +0.017 C 
ATOM      6  CB  PRO A  1       31.777 -17.407   9.035  0.00  0.00    +0.031 C 
ENDROOT
BRANCH   1   8
ATOM      7  O   PRO A  1       32.117 -20.832   9.369  0.00  0.00    -0.249 OA
ATOM      8  C   PRO A  1       31.616 -19.965   8.663  0.00  0.00    +0.322 C 
BRANCH   8   9
ATOM      9  OXT PRO A  1       31.490 -20.140   7.324  0.00  0.00    -0.479 OA
ATOM     10  HXT PRO A  1       32.196 -20.668   6.911  0.00  0.00    +0.295 HD
ENDBRANCH   8   9
ENDBRANCH   1   8
TORSDOF 2
ENDMDL
MODEL 5
REMARK VINA RESULT:      -5.1      2.458      2.753
REMARK  Name = *****
REMARK                            x       y       z     vdW  Elec       q    Type
REMARK                         _______ _______ _______ _____ _____    ______ ____
ROOT
ATOM      1  CA  PRO A  1       30.227 -18.758   7.787  0.00  0.00    +0.163 C 
ATOM      2  N   PRO A  1       30.333 -18.435   6.353  0.00  0.00    -0.304 NA
ATOM      3  H   PRO A  1       30.496 -17.439   6.217  0.00  0.00    +0.123 HD
ATOM      4  CD  PRO A  1       29.088 -18.893   5.758  0.00  0.00    +0.082 C 
ATOM      5  CG  PRO A  1       28.862 -20.236   6.431  0.00  0.00    +0.017 C 
ATOM      6  CB  PRO A  1       29.636 -20.162   7.746  0.00  0.00    +0.031 C 
ENDROOT
BRANCH   1   8
ATOM      7  O   PRO A  1       32.087 -19.492   9.197  0.00  0.00    -0.249 OA
ATOM      8  C   PRO A  1       31.584 -18.626   8.491  0.00  0.00    +0.322 C 
BRANCH   8   9
ATOM      9  OXT PRO A  1       32.269 -17.500   8.171  0.00  0.00    -0.479 OA
ATOM     10  HXT PRO A  1       32.324 -17.310   7.217  0.00  0.00    +0.295 HD
ENDBRANCH   8   9
ENDBRANCH   1   8
TORSDOF 2
ENDMDL
MODEL 6
REMARK VINA RESULT:      -5.0      2.313      2.869
REMARK  Name = *****
REMARK                            x       y       z     vdW  Elec       q    Type
REMARK                         _______ _______ _______ _____ _____    ______ ____
ROOT
ATOM      1  CA  PRO A  1       30.679 -19.744   7.371  0.00  0.00    +0.163 C 
ATOM      2  N   PRO A  1       29.785 -20.587   8.185  0.00  0.00    -0.304 NA
ATOM      3  H   PRO A  1       30.310 -21.322   8.657  0.00  0.00    +0.123 HD
ATOM      4  CD  PRO A  1       28.791 -21.104   7.260  0.00  0.00    +0.082 C 
ATOM      5  CG  PRO A  1       28.461 -19.895   6.402  0.00  0.00    +0.017 C 
ATOM      6  CB  PRO A  1       29.684 -18.985   6.502  0.00  0.00    +0.031 C 
ENDROOT
BRANCH   1   8
ATOM      7  O   PRO A  1       31.766 -17.676   8.100  0.00  0.00    -0.249 OA
ATOM      8  C   PRO A  1       31.587 -18.878   8.256  0.00  0.00    +0.322 C 
BRANCH   8   9
ATOM      9  OXT PRO A  1       32.099 -19.527   9.331  0.00  0.00    -0.479 OA
ATOM     10  HXT PRO A  1       31.460 -20.070   9.825  0.00  0.00    +0.295 HD
ENDBRANCH   8   9
ENDBRANCH   1   8
TORSDOF 2
ENDMDL
MODEL 7
REMARK VINA RESULT:      -4.7      7.097      7.684
REMARK  Name = *****
REMARK                            x       y       z     vdW  Elec       q    Type
REMARK                         _______ _______ _______ _____ _____    ______ ____
ROOT
ATOM      1  CA  PRO A  1       24.754 -23.949   5.935  0.00  0.00    +0.163 C 
ATOM      2  N   PRO A  1       24.685 -22.911   4.890  0.00  0.00    -0.304 NA
ATOM      3  H   PRO A  1       25.576 -22.827   4.404  0.00  0.00    +0.123 HD
ATOM      4  CD  PRO A  1       24.297 -21.692   5.579  0.00  0.00    +0.082 C 
ATOM      5  CG  PRO A  1       23.220 -22.170   6.538  0.00  0.00    +0.017 C 
ATOM      6  CB  PRO A  1       23.497 -23.658   6.745  0.00  0.00    +0.031 C 
ENDROOT
BRANCH   1   8
ATOM      7  O   PRO A  1       25.877 -25.874   4.924  0.00  0.00    -0.249 OA
ATOM      8  C   PRO A  1       24.842 -25.353   5.321  0.00  0.00    +0.322 C 
BRANCH   8   9
ATOM      9  OXT PRO A  1       23.679 -26.050   5.361  0.00  0.00    -0.479 OA
ATOM     10  HXT PRO A  1       23.288 -26.145   6.248  0.00  0.00    +0.295 HD
ENDBRANCH   8   9
ENDBRANCH   1   8
TORSDOF 2
ENDMDL
MODEL 8
REMARK VINA RESULT:      -4.7      7.077      7.566
REMARK  Name = *****
REMARK                            x       y       z     vdW  Elec       q    Type
REMARK                         _______ _______ _______ _____ _____    ______ ____
ROOT
ATOM      1  CA  PRO A  1       24.189 -22.310   6.210  0.00  0.00    +0.163 C 
ATOM      2  N   PRO A  1       23.978 -22.057   4.774  0.00  0.00    -0.304 NA
ATOM      3  H   PRO A  1       24.733 -22.459   4.221  0.00  0.00    +0.123 HD
ATOM      4  CD  PRO A  1       23.886 -20.612   4.644  0.00  0.00    +0.082 C 
ATOM      5  CG  PRO A  1       23.024 -20.216   5.830  0.00  0.00    +0.017 C 
ATOM      6  CB  PRO A  1       23.194 -21.346   6.845  0.00  0.00    +0.031 C 
ENDROOT
BRANCH   1   8
ATOM      7  O   PRO A  1       24.894 -24.568   6.836  0.00  0.00    -0.249 OA
ATOM      8  C   PRO A  1       23.989 -23.794   6.551  0.00  0.00    +0.322 C 
BRANCH   8   9
ATOM      9  OXT PRO A  1       22.690 -24.174   6.637  0.00  0.00    -0.479 OA
ATOM     10  HXT PRO A  1       22.205 -23.808   7.398  0.00  0.00    +0.295 HD
ENDBRANCH   8   9
ENDBRANCH   1   8
TORSDOF 2
ENDMDL
MODEL 9
REMARK VINA RESULT:      -4.6      5.131      5.871
REMARK  Name = *****
REMARK                            x       y       z     vdW  Elec       q    Type
REMARK                         _______ _______ _______ _____ _____    ______ ____
ROOT
ATOM      1  CA  PRO A  1       25.348 -20.704   7.016  0.00  0.00    +0.163 C 
ATOM      2  N   PRO A  1       25.663 -21.812   6.096  0.00  0.00    -0.304 NA
ATOM      3  H   PRO A  1       26.594 -21.698   5.698  0.00  0.00    +0.123 HD
ATOM      4  CD  PRO A  1       24.611 -21.795   5.093  0.00  0.00    +0.082 C 
ATOM      5  CG  PRO A  1       23.358 -21.551   5.916  0.00  0.00    +0.017 C 
ATOM      6  CB  PRO A  1       23.843 -20.867   7.193  0.00  0.00    +0.031 C 
ENDROOT
BRANCH   1   8
ATOM      7  O   PRO A  1       27.250 -20.212   8.474  0.00  0.00    -0.249 OA
ATOM      8  C   PRO A  1       26.184 -20.790   8.300  0.00  0.00    +0.322 C 
BRANCH   8   9
ATOM      9  OXT PRO A  1       25.586 -21.473   9.308  0.00  0.00    -0.479 OA
ATOM     10  HXT PRO A  1       26.197 -21.893   9.939  0.00  0.00    +0.295 HD
ENDBRANCH   8   9
ENDBRANCH   1   8
TORSDOF 2
ENDMDL
