MODEL 1
REMARK VINA RESULT:      -4.6      0.000      0.000
REMARK  Name = *****
REMARK                            x       y       z     vdW  Elec       q    Type
REMARK                         _______ _______ _______ _____ _____    ______ ____
ROOT
ATOM      1  C   LIG    1       24.359 -18.861   3.812  0.00  0.00    +0.087 C 
ATOM      2  N   LIG    1       23.153 -19.324   3.990  0.00  0.00    -0.089 NA
ENDROOT
BRANCH   1   3
ATOM      3  C   LIG    1       24.534 -17.374   3.775  0.00  0.00    -0.001 A 
ATOM      4  C   LIG    1       25.720 -16.773   3.342  0.00  0.00    +0.010 A 
ATOM      5  C   LIG    1       25.815 -15.377   3.272  0.00  0.00    +0.013 A 
ATOM      6  C   LIG    1       24.729 -14.565   3.635  0.00  0.00    +0.055 A 
ATOM      7  C   LIG    1       23.549 -15.174   4.081  0.00  0.00    +0.013 A 
ATOM      8  C   LIG    1       23.452 -16.565   4.147  0.00  0.00    +0.010 A 
BRANCH   6   9
ATOM      9  C   LIG    1       24.830 -13.062   3.529  0.00  0.00    +0.417 C 
ATOM     10  F   LIG    1       25.810 -12.665   2.669  0.00  0.00    -0.166 F 
ATOM     11  F   LIG    1       25.119 -12.473   4.722  0.00  0.00    -0.166 F 
ATOM     12  F   LIG    1       23.686 -12.468   3.087  0.00  0.00    -0.166 F 
ENDBRANCH   6   9
ENDBRANCH   1   3
BRANCH   1  13
ATOM     13  C   LIG    1       25.581 -19.751   3.634  0.00  0.00    +0.059 C 
BRANCH  13  14
ATOM     14  C   LIG    1       26.001 -20.380   4.960  0.00  0.00    +0.009 C 
BRANCH  14  15
ATOM     15  C   LIG    1       27.427 -19.972   5.338  0.00  0.00    +0.028 C 
BRANCH  15  16
ATOM     16  C   LIG    1       27.775 -20.381   6.765  0.00  0.00    +0.159 C 
BRANCH  16  18
ATOM     17  C   LIG    1       29.475 -18.778   6.455  0.00  0.00    +0.193 C 
ATOM     18  O   LIG    1       29.134 -20.033   7.026  0.00  0.00    -0.383 OA
ENDBRANCH  16  18
ENDBRANCH  15  16
ENDBRANCH  14  15
ENDBRANCH  13  14
ENDBRANCH   1  13
BRANCH   2  19
ATOM     19  O   LIG    1       23.113 -20.723   4.007  0.00  0.00    -0.392 OA
BRANCH  19  20
ATOM     20  C   LIG    1       22.023 -21.136   4.837  0.00  0.00    +0.277 C 
BRANCH  20  21
ATOM     21  C   LIG    1       22.551 -21.571   6.207  0.00  0.00    +0.121 C 
BRANCH  21  22
ATOM     22  N   LIG    1       23.146 -20.466   6.962  0.00  0.00    -0.327 NA
ATOM     23  H   LIG    1       23.143 -19.629   6.381  0.00  0.00    +0.118 HD
ATOM     24  H   LIG    1       22.574 -20.255   7.777  0.00  0.00    +0.118 HD
ENDBRANCH  21  22
ENDBRANCH  20  21
ENDBRANCH  19  20
ENDBRANCH   2  19
TORSDOF 11
ENDMDL
MODEL 2
REMARK VINA RESULT:      -4.3      1.689      2.235
REMARK  Name = *****
REMARK                            x       y       z     vdW  Elec       q    Type
REMARK                         _______ _______ _______ _____ _____    ______ ____
ROOT
ATOM      1  C   LIG    1       25.409 -19.076   3.835  0.00  0.00    +0.087 C 
ATOM      2  N   LIG    1       24.201 -19.300   3.399  0.00  0.00    -0.089 NA
ENDROOT
BRANCH   1   3
ATOM      3  C   LIG    1       25.941 -17.680   3.723  0.00  0.00    -0.001 A 
ATOM      4  C   LIG    1       25.139 -16.605   3.330  0.00  0.00    +0.010 A 
ATOM      5  C   LIG    1       25.670 -15.309   3.296  0.00  0.00    +0.013 A 
ATOM      6  C   LIG    1       27.007 -15.071   3.651  0.00  0.00    +0.055 A 
ATOM      7  C   LIG    1       27.808 -16.156   4.030  0.00  0.00    +0.013 A 
ATOM      8  C   LIG    1       27.279 -17.447   4.069  0.00  0.00    +0.010 A 
BRANCH   6   9
ATOM      9  C   LIG    1       27.562 -13.667   3.639  0.00  0.00    +0.417 C 
ATOM     10  F   LIG    1       28.909 -13.642   3.436  0.00  0.00    -0.166 F 
ATOM     11  F   LIG    1       27.349 -13.012   4.814  0.00  0.00    -0.166 F 
ATOM     12  F   LIG    1       27.025 -12.876   2.668  0.00  0.00    -0.166 F 
ENDBRANCH   6   9
ENDBRANCH   1   3
BRANCH   1  13
ATOM     13  C   LIG    1       26.298 -20.156   4.435  0.00  0.00    +0.059 C 
BRANCH  13  14
ATOM     14  C   LIG    1       25.952 -20.398   5.902  0.00  0.00    +0.009 C 
BRANCH  14  15
ATOM     15  C   LIG    1       27.144 -20.083   6.809  0.00  0.00    +0.028 C 
BRANCH  15  16
ATOM     16  C   LIG    1       28.147 -21.231   6.851  0.00  0.00    +0.159 C 
BRANCH  16  18
ATOM     17  C   LIG    1       29.475 -19.321   6.473  0.00  0.00    +0.193 C 
ATOM     18  O   LIG    1       29.467 -20.691   6.847  0.00  0.00    -0.383 OA
ENDBRANCH  16  18
ENDBRANCH  15  16
ENDBRANCH  14  15
ENDBRANCH  13  14
ENDBRANCH   1  13
BRANCH   2  19
ATOM     19  O   LIG    1       23.813 -20.635   3.555  0.00  0.00    -0.392 OA
BRANCH  19  20
ATOM     20  C   LIG    1       22.725 -20.688   4.483  0.00  0.00    +0.277 C 
BRANCH  20  21
ATOM     21  C   LIG    1       22.406 -19.277   4.986  0.00  0.00    +0.121 C 
BRANCH  21  22
ATOM     22  N   LIG    1       21.507 -18.546   4.091  0.00  0.00    -0.327 NA
ATOM     23  H   LIG    1       21.037 -17.813   4.621  0.00  0.00    +0.118 HD
ATOM     24  H   LIG    1       22.046 -18.078   3.365  0.00  0.00    +0.118 HD
ENDBRANCH  21  22
ENDBRANCH  20  21
ENDBRANCH  19  20
ENDBRANCH   2  19
TORSDOF 11
ENDMDL
MODEL 3
REMARK VINA RESULT:      -4.1      4.970      7.546
REMARK  Name = *****
REMARK                            x       y       z     vdW  Elec       q    Type
REMARK                         _______ _______ _______ _____ _____    ______ ____
ROOT
ATOM      1  C   LIG    1       25.639 -15.337   3.309  0.00  0.00    +0.087 C 
ATOM      2  N   LIG    1       26.916 -15.210   3.083  0.00  0.00    -0.089 NA
ENDROOT
BRANCH   1   3
ATOM      3  C   LIG    1       25.103 -16.720   3.519  0.00  0.00    -0.001 A 
ATOM      4  C   LIG    1       25.882 -17.861   3.308  0.00  0.00    +0.010 A 
ATOM      5  C   LIG    1       25.352 -19.131   3.572  0.00  0.00    +0.013 A 
ATOM      6  C   LIG    1       24.040 -19.277   4.047  0.00  0.00    +0.055 A 
ATOM      7  C   LIG    1       23.260 -18.129   4.242  0.00  0.00    +0.013 A 
ATOM      8  C   LIG    1       23.789 -16.863   3.983  0.00  0.00    +0.010 A 
BRANCH   6   9
ATOM      9  C   LIG    1       23.487 -20.648   4.356  0.00  0.00    +0.417 C 
ATOM     10  F   LIG    1       23.795 -21.563   3.395  0.00  0.00    -0.166 F 
ATOM     11  F   LIG    1       22.128 -20.652   4.453  0.00  0.00    -0.166 F 
ATOM     12  F   LIG    1       23.947 -21.169   5.528  0.00  0.00    -0.166 F 
ENDBRANCH   6   9
ENDBRANCH   1   3
BRANCH   1  13
ATOM     13  C   LIG    1       24.675 -14.160   3.361  0.00  0.00    +0.059 C 
BRANCH  13  14
ATOM     14  C   LIG    1       24.632 -13.427   2.021  0.00  0.00    +0.009 C 
BRANCH  14  15
ATOM     15  C   LIG    1       24.601 -11.910   2.223  0.00  0.00    +0.028 C 
BRANCH  15  16
ATOM     16  C   LIG    1       23.639 -11.504   3.335  0.00  0.00    +0.159 C 
BRANCH  16  18
ATOM     17  C   LIG    1       23.393 -11.447   5.678  0.00  0.00    +0.193 C 
ATOM     18  O   LIG    1       24.211 -11.860   4.592  0.00  0.00    -0.383 OA
ENDBRANCH  16  18
ENDBRANCH  15  16
ENDBRANCH  14  15
ENDBRANCH  13  14
ENDBRANCH   1  13
BRANCH   2  19
ATOM     19  O   LIG    1       27.300 -13.876   2.904  0.00  0.00    -0.392 OA
BRANCH  19  20
ATOM     20  C   LIG    1       28.421 -13.607   3.751  0.00  0.00    +0.277 C 
BRANCH  20  21
ATOM     21  C   LIG    1       27.998 -12.673   4.889  0.00  0.00    +0.121 C 
BRANCH  21  22
ATOM     22  N   LIG    1       29.103 -11.856   5.393  0.00  0.00    -0.327 NA
ATOM     23  H   LIG    1       29.584 -11.426   4.603  0.00  0.00    +0.118 HD
ATOM     24  H   LIG    1       28.740 -11.093   5.960  0.00  0.00    +0.118 HD
ENDBRANCH  21  22
ENDBRANCH  20  21
ENDBRANCH  19  20
ENDBRANCH   2  19
TORSDOF 11
ENDMDL
MODEL 4
REMARK VINA RESULT:      -3.9      2.232      4.297
REMARK  Name = *****
REMARK                            x       y       z     vdW  Elec       q    Type
REMARK                         _______ _______ _______ _____ _____    ______ ____
ROOT
ATOM      1  C   LIG    1       27.074 -17.357   3.919  0.00  0.00    +0.087 C 
ATOM      2  N   LIG    1       28.144 -17.404   4.662  0.00  0.00    -0.089 NA
ENDROOT
BRANCH   1   3
ATOM      3  C   LIG    1       26.469 -16.013   3.654  0.00  0.00    -0.001 A 
ATOM      4  C   LIG    1       27.244 -14.900   3.314  0.00  0.00    +0.010 A 
ATOM      5  C   LIG    1       26.625 -13.678   3.020  0.00  0.00    +0.013 A 
ATOM      6  C   LIG    1       25.228 -13.551   3.064  0.00  0.00    +0.055 A 
ATOM      7  C   LIG    1       24.459 -14.668   3.420  0.00  0.00    +0.013 A 
ATOM      8  C   LIG    1       25.074 -15.887   3.708  0.00  0.00    +0.010 A 
BRANCH   6   9
ATOM      9  C   LIG    1       24.568 -12.237   2.719  0.00  0.00    +0.417 C 
ATOM     10  F   LIG    1       23.407 -12.405   2.025  0.00  0.00    -0.166 F 
ATOM     11  F   LIG    1       25.358 -11.447   1.940  0.00  0.00    -0.166 F 
ATOM     12  F   LIG    1       24.246 -11.486   3.809  0.00  0.00    -0.166 F 
ENDBRANCH   6   9
ENDBRANCH   1   3
BRANCH   1  13
ATOM     13  C   LIG    1       26.413 -18.592   3.322  0.00  0.00    +0.059 C 
BRANCH  13  14
ATOM     14  C   LIG    1       25.578 -19.327   4.369  0.00  0.00    +0.009 C 
BRANCH  14  15
ATOM     15  C   LIG    1       24.150 -19.563   3.869  0.00  0.00    +0.028 C 
BRANCH  15  16
ATOM     16  C   LIG    1       23.262 -20.168   4.951  0.00  0.00    +0.159 C 
BRANCH  16  18
ATOM     17  C   LIG    1       22.071 -18.202   4.430  0.00  0.00    +0.193 C 
ATOM     18  O   LIG    1       22.372 -19.163   5.432  0.00  0.00    -0.383 OA
ENDBRANCH  16  18
ENDBRANCH  15  16
ENDBRANCH  14  15
ENDBRANCH  13  14
ENDBRANCH   1  13
BRANCH   2  19
ATOM     19  O   LIG    1       28.618 -18.708   4.840  0.00  0.00    -0.392 OA
BRANCH  19  20
ATOM     20  C   LIG    1       29.475 -18.729   5.985  0.00  0.00    +0.277 C 
BRANCH  20  21
ATOM     21  C   LIG    1       28.966 -19.765   6.993  0.00  0.00    +0.121 C 
BRANCH  21  22
ATOM     22  N   LIG    1       29.105 -21.141   6.511  0.00  0.00    -0.327 NA
ATOM     23  H   LIG    1       29.283 -21.123   5.507  0.00  0.00    +0.118 HD
ATOM     24  H   LIG    1       29.917 -21.579   6.941  0.00  0.00    +0.118 HD
ENDBRANCH  21  22
ENDBRANCH  20  21
ENDBRANCH  19  20
ENDBRANCH   2  19
TORSDOF 11
ENDMDL
MODEL 5
REMARK VINA RESULT:      -3.3      2.016      3.764
REMARK  Name = *****
REMARK                            x       y       z     vdW  Elec       q    Type
REMARK                         _______ _______ _______ _____ _____    ______ ____
ROOT
ATOM      1  C   LIG    1       25.819 -19.052   4.072  0.00  0.00    +0.087 C 
ATOM      2  N   LIG    1       26.629 -19.425   5.022  0.00  0.00    -0.089 NA
ENDROOT
BRANCH   1   3
ATOM      3  C   LIG    1       25.705 -17.586   3.791  0.00  0.00    -0.001 A 
ATOM      4  C   LIG    1       24.475 -16.920   3.784  0.00  0.00    +0.010 A 
ATOM      5  C   LIG    1       24.427 -15.536   3.572  0.00  0.00    +0.013 A 
ATOM      6  C   LIG    1       25.604 -14.800   3.361  0.00  0.00    +0.055 A 
ATOM      7  C   LIG    1       26.832 -15.477   3.355  0.00  0.00    +0.013 A 
ATOM      8  C   LIG    1       26.881 -16.855   3.571  0.00  0.00    +0.010 A 
BRANCH   6   9
ATOM      9  C   LIG    1       25.545 -13.305   3.162  0.00  0.00    +0.417 C 
ATOM     10  F   LIG    1       25.125 -12.647   4.278  0.00  0.00    -0.166 F 
ATOM     11  F   LIG    1       24.685 -12.945   2.170  0.00  0.00    -0.166 F 
ATOM     12  F   LIG    1       26.746 -12.751   2.834  0.00  0.00    -0.166 F 
ENDBRANCH   6   9
ENDBRANCH   1   3
BRANCH   1  13
ATOM     13  C   LIG    1       24.985 -20.025   3.250  0.00  0.00    +0.059 C 
BRANCH  13  14
ATOM     14  C   LIG    1       24.137 -20.919   4.152  0.00  0.00    +0.009 C 
BRANCH  14  15
ATOM     15  C   LIG    1       22.769 -20.289   4.425  0.00  0.00    +0.028 C 
BRANCH  15  16
ATOM     16  C   LIG    1       22.714 -19.621   5.795  0.00  0.00    +0.159 C 
BRANCH  16  18
ATOM     17  C   LIG    1       23.099 -21.571   7.062  0.00  0.00    +0.193 C 
ATOM     18  O   LIG    1       23.606 -20.302   6.676  0.00  0.00    -0.383 OA
ENDBRANCH  16  18
ENDBRANCH  15  16
ENDBRANCH  14  15
ENDBRANCH  13  14
ENDBRANCH   1  13
BRANCH   2  19
ATOM     19  O   LIG    1       26.653 -20.814   5.193  0.00  0.00    -0.392 OA
BRANCH  19  20
ATOM     20  C   LIG    1       26.901 -21.099   6.573  0.00  0.00    +0.277 C 
BRANCH  20  21
ATOM     21  C   LIG    1       28.409 -21.230   6.810  0.00  0.00    +0.121 C 
BRANCH  21  22
ATOM     22  N   LIG    1       29.150 -20.027   6.425  0.00  0.00    -0.327 NA
ATOM     23  H   LIG    1       30.131 -20.149   6.672  0.00  0.00    +0.118 HD
ATOM     24  H   LIG    1       29.119 -19.910   5.414  0.00  0.00    +0.118 HD
ENDBRANCH  21  22
ENDBRANCH  20  21
ENDBRANCH  19  20
ENDBRANCH   2  19
TORSDOF 11
ENDMDL
MODEL 6
REMARK VINA RESULT:      -2.1      4.651      7.270
REMARK  Name = *****
REMARK                            x       y       z     vdW  Elec       q    Type
REMARK                         _______ _______ _______ _____ _____    ______ ____
ROOT
ATOM      1  C   LIG    1       26.570 -15.298   3.119  0.00  0.00    +0.087 C 
ATOM      2  N   LIG    1       27.739 -14.887   3.524  0.00  0.00    -0.089 NA
ENDROOT
BRANCH   1   3
ATOM      3  C   LIG    1       26.141 -16.676   3.519  0.00  0.00    -0.001 A 
ATOM      4  C   LIG    1       24.831 -17.131   3.339  0.00  0.00    +0.010 A 
ATOM      5  C   LIG    1       24.493 -18.448   3.678  0.00  0.00    +0.013 A 
ATOM      6  C   LIG    1       25.455 -19.324   4.202  0.00  0.00    +0.055 A 
ATOM      7  C   LIG    1       26.763 -18.856   4.393  0.00  0.00    +0.013 A 
ATOM      8  C   LIG    1       27.101 -17.546   4.052  0.00  0.00    +0.010 A 
BRANCH   6   9
ATOM      9  C   LIG    1       25.088 -20.750   4.538  0.00  0.00    +0.417 C 
ATOM     10  F   LIG    1       24.699 -21.459   3.442  0.00  0.00    -0.166 F 
ATOM     11  F   LIG    1       24.054 -20.828   5.420  0.00  0.00    -0.166 F 
ATOM     12  F   LIG    1       26.110 -21.459   5.096  0.00  0.00    -0.166 F 
ENDBRANCH   6   9
ENDBRANCH   1   3
BRANCH   1  13
ATOM     13  C   LIG    1       25.637 -14.457   2.260  0.00  0.00    +0.059 C 
BRANCH  13  14
ATOM     14  C   LIG    1       25.251 -13.163   2.973  0.00  0.00    +0.009 C 
BRANCH  14  15
ATOM     15  C   LIG    1       24.454 -13.452   4.247  0.00  0.00    +0.028 C 
BRANCH  15  16
ATOM     16  C   LIG    1       23.284 -14.394   3.984  0.00  0.00    +0.159 C 
BRANCH  16  18
ATOM     17  C   LIG    1       22.051 -16.140   4.976  0.00  0.00    +0.193 C 
ATOM     18  O   LIG    1       22.948 -15.062   5.199  0.00  0.00    -0.383 OA
ENDBRANCH  16  18
ENDBRANCH  15  16
ENDBRANCH  14  15
ENDBRANCH  13  14
ENDBRANCH   1  13
BRANCH   2  19
ATOM     19  O   LIG    1       28.032 -13.589   3.090  0.00  0.00    -0.392 OA
BRANCH  19  20
ATOM     20  C   LIG    1       29.123 -13.085   3.866  0.00  0.00    +0.277 C 
BRANCH  20  21
ATOM     21  C   LIG    1       28.586 -12.308   5.072  0.00  0.00    +0.121 C 
BRANCH  21  22
ATOM     22  N   LIG    1       27.508 -13.015   5.766  0.00  0.00    -0.327 NA
ATOM     23  H   LIG    1       26.880 -12.330   6.187  0.00  0.00    +0.118 HD
ATOM     24  H   LIG    1       26.952 -13.543   5.097  0.00  0.00    +0.118 HD
ENDBRANCH  21  22
ENDBRANCH  20  21
ENDBRANCH  19  20
ENDBRANCH   2  19
TORSDOF 11
ENDMDL
MODEL 7
REMARK VINA RESULT:      -2.1      2.015      3.827
REMARK  Name = *****
REMARK                            x       y       z     vdW  Elec       q    Type
REMARK                         _______ _______ _______ _____ _____    ______ ____
ROOT
ATOM      1  C   LIG    1       25.925 -19.313   4.166  0.00  0.00    +0.087 C 
ATOM      2  N   LIG    1       26.343 -19.797   5.303  0.00  0.00    -0.089 NA
ENDROOT
BRANCH   1   3
ATOM      3  C   LIG    1       26.156 -17.857   3.904  0.00  0.00    -0.001 A 
ATOM      4  C   LIG    1       25.135 -17.005   3.472  0.00  0.00    +0.010 A 
ATOM      5  C   LIG    1       25.389 -15.638   3.295  0.00  0.00    +0.013 A 
ATOM      6  C   LIG    1       26.664 -15.107   3.542  0.00  0.00    +0.055 A 
ATOM      7  C   LIG    1       27.686 -15.970   3.960  0.00  0.00    +0.013 A 
ATOM      8  C   LIG    1       27.433 -17.331   4.142  0.00  0.00    +0.010 A 
BRANCH   6   9
ATOM      9  C   LIG    1       26.921 -13.628   3.375  0.00  0.00    +0.417 C 
ATOM     10  F   LIG    1       26.538 -12.907   4.466  0.00  0.00    -0.166 F 
ATOM     11  F   LIG    1       26.245 -13.097   2.320  0.00  0.00    -0.166 F 
ATOM     12  F   LIG    1       28.233 -13.323   3.170  0.00  0.00    -0.166 F 
ENDBRANCH   6   9
ENDBRANCH   1   3
BRANCH   1  13
ATOM     13  C   LIG    1       25.214 -20.147   3.111  0.00  0.00    +0.059 C 
BRANCH  13  14
ATOM     14  C   LIG    1       23.822 -19.592   2.818  0.00  0.00    +0.009 C 
BRANCH  14  15
ATOM     15  C   LIG    1       22.814 -20.043   3.878  0.00  0.00    +0.028 C 
BRANCH  15  16
ATOM     16  C   LIG    1       21.815 -18.943   4.218  0.00  0.00    +0.159 C 
BRANCH  16  18
ATOM     17  C   LIG    1       21.915 -16.666   4.817  0.00  0.00    +0.193 C 
ATOM     18  O   LIG    1       22.467 -17.959   5.019  0.00  0.00    -0.383 OA
ENDBRANCH  16  18
ENDBRANCH  15  16
ENDBRANCH  14  15
ENDBRANCH  13  14
ENDBRANCH   1  13
BRANCH   2  19
ATOM     19  O   LIG    1       26.072 -21.163   5.436  0.00  0.00    -0.392 OA
BRANCH  19  20
ATOM     20  C   LIG    1       25.789 -21.439   6.811  0.00  0.00    +0.277 C 
BRANCH  20  21
ATOM     21  C   LIG    1       24.276 -21.566   7.013  0.00  0.00    +0.121 C 
BRANCH  21  22
ATOM     22  N   LIG    1       23.600 -20.267   7.060  0.00  0.00    -0.327 NA
ATOM     23  H   LIG    1       23.553 -19.884   6.117  0.00  0.00    +0.118 HD
ATOM     24  H   LIG    1       22.638 -20.389   7.371  0.00  0.00    +0.118 HD
ENDBRANCH  21  22
ENDBRANCH  20  21
ENDBRANCH  19  20
ENDBRANCH   2  19
TORSDOF 11
ENDMDL
MODEL 8
REMARK VINA RESULT:      -1.9      4.290      6.523
REMARK  Name = *****
REMARK                            x       y       z     vdW  Elec       q    Type
REMARK                         _______ _______ _______ _____ _____    ______ ____
ROOT
ATOM      1  C   LIG    1       26.641 -18.408   4.182  0.00  0.00    +0.087 C 
ATOM      2  N   LIG    1       27.521 -18.887   5.017  0.00  0.00    -0.089 NA
ENDROOT
BRANCH   1   3
ATOM      3  C   LIG    1       25.274 -19.019   4.185  0.00  0.00    -0.001 A 
ATOM      4  C   LIG    1       25.062 -20.373   4.460  0.00  0.00    +0.010 A 
ATOM      5  C   LIG    1       23.758 -20.884   4.507  0.00  0.00    +0.013 A 
ATOM      6  C   LIG    1       22.652 -20.052   4.278  0.00  0.00    +0.055 A 
ATOM      7  C   LIG    1       22.873 -18.698   3.988  0.00  0.00    +0.013 A 
ATOM      8  C   LIG    1       24.172 -18.187   3.946  0.00  0.00    +0.010 A 
BRANCH   6   9
ATOM      9  C   LIG    1       21.249 -20.605   4.358  0.00  0.00    +0.417 C 
ATOM     10  F   LIG    1       21.016 -21.571   3.426  0.00  0.00    -0.166 F 
ATOM     11  F   LIG    1       20.300 -19.651   4.153  0.00  0.00    -0.166 F 
ATOM     12  F   LIG    1       20.955 -21.172   5.562  0.00  0.00    -0.166 F 
ENDBRANCH   6   9
ENDBRANCH   1   3
BRANCH   1  13
ATOM     13  C   LIG    1       26.939 -17.277   3.208  0.00  0.00    +0.059 C 
BRANCH  13  14
ATOM     14  C   LIG    1       27.068 -15.943   3.939  0.00  0.00    +0.009 C 
BRANCH  14  15
ATOM     15  C   LIG    1       25.981 -14.962   3.493  0.00  0.00    +0.028 C 
BRANCH  15  16
ATOM     16  C   LIG    1       26.574 -13.701   2.873  0.00  0.00    +0.159 C 
BRANCH  16  18
ATOM     17  C   LIG    1       24.360 -12.904   3.004  0.00  0.00    +0.193 C 
ATOM     18  O   LIG    1       25.536 -12.980   2.211  0.00  0.00    -0.383 OA
ENDBRANCH  16  18
ENDBRANCH  15  16
ENDBRANCH  14  15
ENDBRANCH  13  14
ENDBRANCH   1  13
BRANCH   2  19
ATOM     19  O   LIG    1       28.758 -18.240   4.923  0.00  0.00    -0.392 OA
BRANCH  19  20
ATOM     20  C   LIG    1       29.474 -18.448   6.144  0.00  0.00    +0.277 C 
BRANCH  20  21
ATOM     21  C   LIG    1       28.827 -19.590   6.935  0.00  0.00    +0.121 C 
BRANCH  21  22
ATOM     22  N   LIG    1       29.442 -20.890   6.658  0.00  0.00    -0.327 NA
ATOM     23  H   LIG    1       28.706 -21.575   6.489  0.00  0.00    +0.118 HD
ATOM     24  H   LIG    1       29.991 -20.839   5.803  0.00  0.00    +0.118 HD
ENDBRANCH  21  22
ENDBRANCH  20  21
ENDBRANCH  19  20
ENDBRANCH   2  19
TORSDOF 11
ENDMDL
MODEL 9
REMARK VINA RESULT:      -1.8      4.872      6.996
REMARK  Name = *****
REMARK                            x       y       z     vdW  Elec       q    Type
REMARK                         _______ _______ _______ _____ _____    ______ ____
ROOT
ATOM      1  C   LIG    1       24.287 -15.181   3.795  0.00  0.00    +0.087 C 
ATOM      2  N   LIG    1       23.251 -14.488   3.411  0.00  0.00    -0.089 NA
ENDROOT
BRANCH   1   3
ATOM      3  C   LIG    1       24.116 -16.661   3.945  0.00  0.00    -0.001 A 
ATOM      4  C   LIG    1       22.899 -17.238   4.321  0.00  0.00    +0.010 A 
ATOM      5  C   LIG    1       22.776 -18.632   4.392  0.00  0.00    +0.013 A 
ATOM      6  C   LIG    1       23.864 -19.466   4.093  0.00  0.00    +0.055 A 
ATOM      7  C   LIG    1       25.085 -18.879   3.730  0.00  0.00    +0.013 A 
ATOM      8  C   LIG    1       25.207 -17.491   3.654  0.00  0.00    +0.010 A 
BRANCH   6   9
ATOM      9  C   LIG    1       23.714 -20.967   4.145  0.00  0.00    +0.417 C 
ATOM     10  F   LIG    1       24.730 -21.569   4.825  0.00  0.00    -0.166 F 
ATOM     11  F   LIG    1       23.706 -21.533   2.906  0.00  0.00    -0.166 F 
ATOM     12  F   LIG    1       22.565 -21.379   4.751  0.00  0.00    -0.166 F 
ENDBRANCH   6   9
ENDBRANCH   1   3
BRANCH   1  13
ATOM     13  C   LIG    1       25.642 -14.561   4.103  0.00  0.00    +0.059 C 
BRANCH  13  14
ATOM     14  C   LIG    1       25.521 -13.483   5.178  0.00  0.00    +0.009 C 
BRANCH  14  15
ATOM     15  C   LIG    1       26.827 -13.337   5.962  0.00  0.00    +0.028 C 
BRANCH  15  16
ATOM     16  C   LIG    1       28.042 -13.707   5.117  0.00  0.00    +0.159 C 
BRANCH  16  18
ATOM     17  C   LIG    1       29.303 -12.454   3.570  0.00  0.00    +0.193 C 
ATOM     18  O   LIG    1       28.832 -12.538   4.907  0.00  0.00    -0.383 OA
ENDBRANCH  16  18
ENDBRANCH  15  16
ENDBRANCH  14  15
ENDBRANCH  13  14
ENDBRANCH   1  13
BRANCH   2  19
ATOM     19  O   LIG    1       23.529 -13.120   3.306  0.00  0.00    -0.392 OA
BRANCH  19  20
ATOM     20  C   LIG    1       23.807 -12.816   1.936  0.00  0.00    +0.277 C 
BRANCH  20  21
ATOM     21  C   LIG    1       24.762 -11.621   1.855  0.00  0.00    +0.121 C 
BRANCH  21  22
ATOM     22  N   LIG    1       26.163 -11.999   2.049  0.00  0.00    -0.327 NA
ATOM     23  H   LIG    1       26.625 -11.283   2.608  0.00  0.00    +0.118 HD
ATOM     24  H   LIG    1       26.217 -12.863   2.585  0.00  0.00    +0.118 HD
ENDBRANCH  21  22
ENDBRANCH  20  21
ENDBRANCH  19  20
ENDBRANCH   2  19
TORSDOF 11
ENDMDL
