MODEL 1
REMARK VINA RESULT:      76.2      0.000      0.000
REMARK  Name = *****
REMARK                            x       y       z     vdW  Elec       q    Type
REMARK                         _______ _______ _______ _____ _____    ______ ____
ROOT
ATOM      1  C   LIG    1       24.299 -16.315   6.132  0.00  0.00    +0.007 C 
ENDROOT
BRANCH   1   2
ATOM      2  C   LIG    1       23.631 -17.297   4.949  0.00  0.00    +0.041 C 
BRANCH   2   3
ATOM      3  C   LIG    1       24.460 -18.095   3.761  0.00  0.00    +0.232 C 
BRANCH   3   4
ATOM      4  O   LIG    1       25.525 -19.103   4.064  0.00  0.00    -0.465 OA
BRANCH   4   5
ATOM      5  C   LIG    1       25.856 -20.324   3.625  0.00  0.00    +0.312 C 
ATOM      6  O   LIG    1       25.023 -21.200   3.519  0.00  0.00    -0.251 OA
BRANCH   5   7
ATOM      7  C   LIG    1       27.374 -20.583   3.443  0.00  0.00    +0.171 C 
BRANCH   7   8
ATOM      8  C   LIG    1       28.241 -21.120   4.558  0.00  0.00    +0.145 C 
BRANCH   8   9
ATOM      9  N   LIG    1       27.937 -20.505   5.942  0.00  0.00    +0.247 N 
ATOM     10  C   LIG    1       27.669 -21.564   7.054  0.00  0.00    +0.193 C 
ATOM     11  C   LIG    1       26.887 -19.412   5.839  0.00  0.00    +0.102 C 
ATOM     12  C   LIG    1       27.321 -18.317   4.803  0.00  0.00    +0.008 A 
ATOM     13  C   LIG    1       28.382 -17.426   5.200  0.00  0.00    -0.030 A 
ATOM     14  C   LIG    1       28.502 -15.574   4.999  0.00  0.00    +0.053 A 
ATOM     15  C   LIG    1       27.765 -14.816   3.766  0.00  0.00    +0.162 A 
ATOM     16  C   LIG    1       26.709 -16.021   2.934  0.00  0.00    +0.162 A 
ATOM     17  C   LIG    1       29.365 -18.495   5.522  0.00  0.00    +0.086 C 
ATOM     18  C   LIG    1       26.690 -17.741   3.545  0.00  0.00    +0.059 A 
ATOM     19  C   LIG    1       28.911 -19.635   6.390  0.00  0.00    +0.138 C 
BRANCH  15  20
ATOM     20  O   LIG    1       28.736 -13.895   3.297  0.00  0.00    -0.491 OA
ATOM     21  C   LIG    1       29.468 -13.249   4.291  0.00  0.00    +0.277 C 
ENDBRANCH  15  20
BRANCH  16  22
ATOM     22  O   LIG    1       25.899 -15.572   1.818  0.00  0.00    -0.491 OA
ATOM     23  C   LIG    1       25.631 -14.351   2.260  0.00  0.00    +0.277 C 
ENDBRANCH  16  22
BRANCH  11  24
ATOM     24  C   LIG    1       25.866 -19.179   7.018  0.00  0.00    +0.095 C 
BRANCH  24  25
ATOM     25  C   LIG    1       24.407 -18.963   6.800  0.00  0.00    -0.038 A 
ATOM     26  C   LIG    1       23.611 -20.053   6.801  0.00  0.00    +0.053 A 
ATOM     27  C   LIG    1       22.397 -20.178   6.092  0.00  0.00    +0.162 A 
ATOM     28  C   LIG    1       21.743 -18.980   5.748  0.00  0.00    +0.162 A 
ATOM     29  C   LIG    1       22.366 -17.812   6.198  0.00  0.00    +0.050 A 
ATOM     30  C   LIG    1       23.643 -17.860   6.775  0.00  0.00    +0.007 A 
BRANCH  28  31
ATOM     31  O   LIG    1       20.553 -18.661   5.150  0.00  0.00    -0.491 OA
ATOM     32  C   LIG    1       20.115 -17.314   5.116  0.00  0.00    +0.277 C 
ENDBRANCH  28  31
BRANCH  27  33
ATOM     33  O   LIG    1       22.002 -21.477   5.799  0.00  0.00    -0.491 OA
ATOM     34  C   LIG    1       20.727 -21.568   5.087  0.00  0.00    +0.277 C 
ENDBRANCH  27  33
ENDBRANCH  24  25
ENDBRANCH  11  24
ENDBRANCH   8   9
ENDBRANCH   7   8
ENDBRANCH   5   7
ENDBRANCH   4   5
ENDBRANCH   3   4
ENDBRANCH   2   3
ENDBRANCH   1   2
BRANCH   1  35
ATOM     35  C   LIG    1       23.430 -14.800   6.850  0.00  0.00    +0.041 C 
BRANCH  35  36
ATOM     36  C   LIG    1       24.218 -12.897   7.053  0.00  0.00    +0.232 C 
BRANCH  36  37
ATOM     37  O   LIG    1       23.431 -11.475   6.443  0.00  0.00    -0.465 OA
BRANCH  37  38
ATOM     38  C   LIG    1       22.348 -11.641   5.155  0.00  0.00    +0.312 C 
ATOM     39  O   LIG    1       22.432 -12.199   4.027  0.00  0.00    -0.251 OA
BRANCH  38  40
ATOM     40  C   LIG    1       21.401 -11.662   6.203  0.00  0.00    +0.171 C 
BRANCH  40  41
ATOM     41  C   LIG    1       21.542 -13.097   6.515  0.00  0.00    +0.145 C 
BRANCH  41  43
ATOM     42  C   LIG    1       22.177 -13.854   3.744  0.00  0.00    +0.102 C 
ATOM     43  N   LIG    1       21.262 -14.218   5.332  0.00  0.00    +0.247 N 
ATOM     44  C   LIG    1       19.465 -14.852   5.402  0.00  0.00    +0.193 C 
ATOM     45  C   LIG    1       21.827 -15.445   5.795  0.00  0.00    +0.138 C 
ATOM     46  C   LIG    1       23.316 -15.281   5.959  0.00  0.00    +0.086 C 
ATOM     47  C   LIG    1       24.077 -14.404   4.986  0.00  0.00    -0.030 A 
ATOM     48  C   LIG    1       25.415 -14.271   5.059  0.00  0.00    +0.053 A 
ATOM     49  C   LIG    1       26.125 -13.304   4.317  0.00  0.00    +0.162 A 
ATOM     50  C   LIG    1       25.461 -12.411   3.453  0.00  0.00    +0.162 A 
ATOM     51  C   LIG    1       24.119 -12.557   3.328  0.00  0.00    +0.059 A 
ATOM     52  C   LIG    1       23.521 -13.571   4.063  0.00  0.00    +0.008 A 
BRANCH  50  53
ATOM     53  O   LIG    1       26.095 -11.448   2.730  0.00  0.00    -0.491 OA
ATOM     54  C   LIG    1       27.535 -11.516   2.734  0.00  0.00    +0.277 C 
ENDBRANCH  50  53
BRANCH  49  55
ATOM     55  O   LIG    1       27.479 -13.225   4.499  0.00  0.00    -0.491 OA
ATOM     56  C   LIG    1       27.869 -13.241   5.882  0.00  0.00    +0.277 C 
ENDBRANCH  49  55
BRANCH  42  57
ATOM     57  C   LIG    1       22.091 -14.872   2.498  0.00  0.00    +0.095 C 
BRANCH  57  61
ATOM     58  C   LIG    1       21.923 -19.117   2.782  0.00  0.00    +0.162 A 
ATOM     59  C   LIG    1       20.760 -18.417   2.656  0.00  0.00    +0.162 A 
ATOM     60  C   LIG    1       20.834 -17.063   2.526  0.00  0.00    +0.053 A 
ATOM     61  C   LIG    1       21.979 -16.335   2.420  0.00  0.00    -0.038 A 
ATOM     62  C   LIG    1       23.129 -17.069   2.231  0.00  0.00    +0.007 A 
ATOM     63  C   LIG    1       23.106 -18.430   2.487  0.00  0.00    +0.050 A 
BRANCH  58  65
ATOM     64  C   LIG    1       23.206 -21.204   2.756  0.00  0.00    +0.277 C 
ATOM     65  O   LIG    1       22.038 -20.431   3.117  0.00  0.00    -0.491 OA
ENDBRANCH  58  65
BRANCH  59  66
ATOM     66  O   LIG    1       19.464 -18.826   2.740  0.00  0.00    -0.491 OA
ATOM     67  C   LIG    1       19.355 -20.224   2.822  0.00  0.00    +0.277 C 
ENDBRANCH  59  66
ENDBRANCH  57  61
ENDBRANCH  42  57
ENDBRANCH  41  43
ENDBRANCH  40  41
ENDBRANCH  38  40
ENDBRANCH  37  38
ENDBRANCH  36  37
ENDBRANCH  35  36
ENDBRANCH   1  35
TORSDOF 26
ENDMDL
