MODEL 1
REMARK VINA RESULT:      -3.8      0.000      0.000
REMARK  Name = *****
REMARK                            x       y       z     vdW  Elec       q    Type
REMARK                         _______ _______ _______ _____ _____    ______ ____
ROOT
ATOM      1  C   LIG    1       26.057 -14.087   4.172  0.00  0.00    +0.127 C 
ATOM      2  C   LIG    1       26.859 -13.883   2.903  0.00  0.00    +0.236 C 
ATOM      3  O   LIG    1       26.514 -14.340   1.812  0.00  0.00    -0.274 OA
ATOM      4  N   LIG    1       27.967 -13.094   2.990  0.00  0.00    -0.239 N 
ATOM      5  H   LIG    1       28.462 -12.907   2.129  0.00  0.00    +0.159 HD
ATOM      6  C   LIG    1       28.485 -12.540   4.120  0.00  0.00    +0.312 C 
ATOM      7  O   LIG    1       29.475 -11.826   4.091  0.00  0.00    -0.252 OA
ATOM      8  N   LIG    1       27.859 -12.845   5.289  0.00  0.00    -0.239 N 
ATOM      9  H   LIG    1       28.299 -12.506   6.135  0.00  0.00    +0.159 HD
ATOM     10  C   LIG    1       26.775 -13.662   5.439  0.00  0.00    +0.236 C 
ATOM     11  O   LIG    1       26.381 -13.955   6.568  0.00  0.00    -0.274 OA
ENDROOT
BRANCH   1  12
ATOM     12  C   LIG    1       24.790 -13.179   4.060  0.00  0.00    +0.052 C 
BRANCH  12  14
ATOM     13  C   LIG    1       23.887 -11.458   2.455  0.00  0.00    +0.004 C 
ATOM     14  C   LIG    1       24.506 -12.622   2.682  0.00  0.00    -0.033 C 
ENDBRANCH  12  14
ENDBRANCH   1  12
BRANCH   1  15
ATOM     15  C   LIG    1       25.599 -15.575   4.262  0.00  0.00    +0.028 C 
BRANCH  15  16
ATOM     16  C   LIG    1       26.398 -16.629   3.449  0.00  0.00    -0.016 C 
ATOM     17  C   LIG    1       25.524 -17.875   3.238  0.00  0.00    +0.007 C 
ATOM     18  C   LIG    1       27.710 -17.062   4.102  0.00  0.00    +0.007 C 
ENDBRANCH  15  16
ENDBRANCH   1  15
TORSDOF 4
ENDMDL
MODEL 2
REMARK VINA RESULT:      -3.7      1.904      2.408
REMARK  Name = *****
REMARK                            x       y       z     vdW  Elec       q    Type
REMARK                         _______ _______ _______ _____ _____    ______ ____
ROOT
ATOM      1  C   LIG    1       25.277 -14.341   4.080  0.00  0.00    +0.127 C 
ATOM      2  C   LIG    1       26.317 -15.244   3.448  0.00  0.00    +0.236 C 
ATOM      3  O   LIG    1       26.054 -16.364   3.006  0.00  0.00    -0.274 OA
ATOM      4  N   LIG    1       27.575 -14.737   3.309  0.00  0.00    -0.239 N 
ATOM      5  H   LIG    1       28.249 -15.316   2.827  0.00  0.00    +0.159 HD
ATOM      6  C   LIG    1       28.022 -13.534   3.762  0.00  0.00    +0.312 C 
ATOM      7  O   LIG    1       29.168 -13.159   3.567  0.00  0.00    -0.252 OA
ATOM      8  N   LIG    1       27.134 -12.782   4.468  0.00  0.00    -0.239 N 
ATOM      9  H   LIG    1       27.496 -11.932   4.880  0.00  0.00    +0.159 HD
ATOM     10  C   LIG    1       25.849 -13.122   4.777  0.00  0.00    +0.236 C 
ATOM     11  O   LIG    1       25.190 -12.405   5.530  0.00  0.00    -0.274 OA
ENDROOT
BRANCH   1  12
ATOM     12  C   LIG    1       24.377 -13.803   2.921  0.00  0.00    +0.052 C 
BRANCH  12  14
ATOM     13  C   LIG    1       24.356 -11.539   1.812  0.00  0.00    +0.004 C 
ATOM     14  C   LIG    1       24.979 -12.690   2.090  0.00  0.00    -0.033 C 
ENDBRANCH  12  14
ENDBRANCH   1  12
BRANCH   1  15
ATOM     15  C   LIG    1       24.389 -15.177   5.052  0.00  0.00    +0.028 C 
BRANCH  15  16
ATOM     16  C   LIG    1       22.949 -15.532   4.594  0.00  0.00    -0.016 C 
ATOM     17  C   LIG    1       21.972 -15.277   5.753  0.00  0.00    +0.007 C 
ATOM     18  C   LIG    1       22.777 -16.976   4.124  0.00  0.00    +0.007 C 
ENDBRANCH  15  16
ENDBRANCH   1  15
TORSDOF 4
ENDMDL
MODEL 3
REMARK VINA RESULT:      -3.6      1.103      4.209
REMARK  Name = *****
REMARK                            x       y       z     vdW  Elec       q    Type
REMARK                         _______ _______ _______ _____ _____    ______ ____
ROOT
ATOM      1  C   LIG    1       25.625 -14.122   4.158  0.00  0.00    +0.127 C 
ATOM      2  C   LIG    1       26.647 -13.819   5.235  0.00  0.00    +0.236 C 
ATOM      3  O   LIG    1       26.405 -13.928   6.439  0.00  0.00    -0.274 OA
ATOM      4  N   LIG    1       27.903 -13.487   4.822  0.00  0.00    -0.239 N 
ATOM      5  H   LIG    1       28.598 -13.351   5.543  0.00  0.00    +0.159 HD
ATOM      6  C   LIG    1       28.316 -13.307   3.539  0.00  0.00    +0.312 C 
ATOM      7  O   LIG    1       29.474 -13.030   3.268  0.00  0.00    -0.252 OA
ATOM      8  N   LIG    1       27.366 -13.425   2.572  0.00  0.00    -0.239 N 
ATOM      9  H   LIG    1       27.656 -13.202   1.629  0.00  0.00    +0.159 HD
ATOM     10  C   LIG    1       26.041 -13.690   2.765  0.00  0.00    +0.236 C 
ATOM     11  O   LIG    1       25.262 -13.647   1.812  0.00  0.00    -0.274 OA
ENDROOT
BRANCH   1  12
ATOM     12  C   LIG    1       25.465 -15.676   4.107  0.00  0.00    +0.052 C 
BRANCH  12  14
ATOM     13  C   LIG    1       27.211 -17.426   3.617  0.00  0.00    +0.004 C 
ATOM     14  C   LIG    1       26.446 -16.405   3.214  0.00  0.00    -0.033 C 
ENDBRANCH  12  14
ENDBRANCH   1  12
BRANCH   1  15
ATOM     15  C   LIG    1       24.255 -13.492   4.554  0.00  0.00    +0.028 C 
BRANCH  15  16
ATOM     16  C   LIG    1       24.116 -11.948   4.466  0.00  0.00    -0.016 C 
ATOM     17  C   LIG    1       23.270 -11.448   5.648  0.00  0.00    +0.007 C 
ATOM     18  C   LIG    1       23.481 -11.447   3.170  0.00  0.00    +0.007 C 
ENDBRANCH  15  16
ENDBRANCH   1  15
TORSDOF 4
ENDMDL
MODEL 4
REMARK VINA RESULT:      -3.5      0.660      3.842
REMARK  Name = *****
REMARK                            x       y       z     vdW  Elec       q    Type
REMARK                         _______ _______ _______ _____ _____    ______ ____
ROOT
ATOM      1  C   LIG    1       26.376 -14.419   4.186  0.00  0.00    +0.127 C 
ATOM      2  C   LIG    1       26.762 -13.782   5.506  0.00  0.00    +0.236 C 
ATOM      3  O   LIG    1       26.209 -14.061   6.571  0.00  0.00    -0.274 OA
ATOM      4  N   LIG    1       27.821 -12.924   5.493  0.00  0.00    -0.239 N 
ATOM      5  H   LIG    1       28.117 -12.553   6.386  0.00  0.00    +0.159 HD
ATOM      6  C   LIG    1       28.514 -12.504   4.401  0.00  0.00    +0.312 C 
ATOM      7  O   LIG    1       29.467 -11.746   4.496  0.00  0.00    -0.252 OA
ATOM      8  N   LIG    1       28.075 -12.950   3.193  0.00  0.00    -0.239 N 
ATOM      9  H   LIG    1       28.535 -12.564   2.378  0.00  0.00    +0.159 HD
ATOM     10  C   LIG    1       27.001 -13.763   2.970  0.00  0.00    +0.236 C 
ATOM     11  O   LIG    1       26.635 -13.991   1.817  0.00  0.00    -0.274 OA
ENDROOT
BRANCH   1  12
ATOM     12  C   LIG    1       26.909 -15.887   4.216  0.00  0.00    +0.052 C 
BRANCH  12  14
ATOM     13  C   LIG    1       25.709 -17.999   3.540  0.00  0.00    +0.004 C 
ATOM     14  C   LIG    1       26.277 -16.832   3.215  0.00  0.00    -0.033 C 
ENDBRANCH  12  14
ENDBRANCH   1  12
BRANCH   1  15
ATOM     15  C   LIG    1       24.821 -14.455   4.065  0.00  0.00    +0.028 C 
BRANCH  15  16
ATOM     16  C   LIG    1       24.075 -13.101   3.922  0.00  0.00    -0.016 C 
ATOM     17  C   LIG    1       24.237 -12.583   2.484  0.00  0.00    +0.007 C 
ATOM     18  C   LIG    1       24.553 -12.015   4.884  0.00  0.00    +0.007 C 
ENDBRANCH  15  16
ENDBRANCH   1  15
TORSDOF 4
ENDMDL
MODEL 5
REMARK VINA RESULT:      -2.9      5.381      7.392
REMARK  Name = *****
REMARK                            x       y       z     vdW  Elec       q    Type
REMARK                         _______ _______ _______ _____ _____    ______ ____
ROOT
ATOM      1  C   LIG    1       24.256 -20.049   4.951  0.00  0.00    +0.127 C 
ATOM      2  C   LIG    1       24.775 -20.691   6.222  0.00  0.00    +0.236 C 
ATOM      3  O   LIG    1       24.036 -21.208   7.062  0.00  0.00    -0.274 OA
ATOM      4  N   LIG    1       26.128 -20.751   6.378  0.00  0.00    -0.239 N 
ATOM      5  H   LIG    1       26.471 -21.239   7.195  0.00  0.00    +0.159 HD
ATOM      6  C   LIG    1       27.066 -20.211   5.554  0.00  0.00    +0.312 C 
ATOM      7  O   LIG    1       28.262 -20.338   5.770  0.00  0.00    -0.252 OA
ATOM      8  N   LIG    1       26.605 -19.498   4.491  0.00  0.00    -0.239 N 
ATOM      9  H   LIG    1       27.303 -19.023   3.933  0.00  0.00    +0.159 HD
ATOM     10  C   LIG    1       25.297 -19.260   4.181  0.00  0.00    +0.236 C 
ATOM     11  O   LIG    1       25.016 -18.493   3.259  0.00  0.00    -0.274 OA
ENDROOT
BRANCH   1  12
ATOM     12  C   LIG    1       23.799 -21.209   4.009  0.00  0.00    +0.052 C 
BRANCH  12  14
ATOM     13  C   LIG    1       21.601 -21.572   5.190  0.00  0.00    +0.004 C 
ATOM     14  C   LIG    1       22.326 -21.554   4.065  0.00  0.00    -0.033 C 
ENDBRANCH  12  14
ENDBRANCH   1  12
BRANCH   1  15
ATOM     15  C   LIG    1       23.018 -19.163   5.288  0.00  0.00    +0.028 C 
BRANCH  15  16
ATOM     16  C   LIG    1       22.520 -18.172   4.201  0.00  0.00    -0.016 C 
ATOM     17  C   LIG    1       22.416 -16.765   4.808  0.00  0.00    +0.007 C 
ATOM     18  C   LIG    1       21.168 -18.538   3.591  0.00  0.00    +0.007 C 
ENDBRANCH  15  16
ENDBRANCH   1  15
TORSDOF 4
ENDMDL
MODEL 6
REMARK VINA RESULT:      -2.8      5.803      7.364
REMARK  Name = *****
REMARK                            x       y       z     vdW  Elec       q    Type
REMARK                         _______ _______ _______ _____ _____    ______ ____
ROOT
ATOM      1  C   LIG    1       24.655 -20.243   5.326  0.00  0.00    +0.127 C 
ATOM      2  C   LIG    1       24.758 -19.107   4.328  0.00  0.00    +0.236 C 
ATOM      3  O   LIG    1       25.822 -18.766   3.809  0.00  0.00    -0.274 OA
ATOM      4  N   LIG    1       23.595 -18.505   3.953  0.00  0.00    -0.239 N 
ATOM      5  H   LIG    1       23.660 -17.793   3.238  0.00  0.00    +0.159 HD
ATOM      6  C   LIG    1       22.352 -18.755   4.448  0.00  0.00    +0.312 C 
ATOM      7  O   LIG    1       21.363 -18.175   4.028  0.00  0.00    -0.252 OA
ATOM      8  N   LIG    1       22.271 -19.665   5.456  0.00  0.00    -0.239 N 
ATOM      9  H   LIG    1       21.361 -19.781   5.884  0.00  0.00    +0.159 HD
ATOM     10  C   LIG    1       23.313 -20.338   6.027  0.00  0.00    +0.236 C 
ATOM     11  O   LIG    1       23.118 -21.043   7.018  0.00  0.00    -0.274 OA
ENDROOT
BRANCH   1  12
ATOM     12  C   LIG    1       24.826 -21.572   4.522  0.00  0.00    +0.052 C 
BRANCH  12  14
ATOM     13  C   LIG    1       23.349 -21.570   2.480  0.00  0.00    +0.004 C 
ATOM     14  C   LIG    1       24.562 -21.474   3.035  0.00  0.00    -0.033 C 
ENDBRANCH  12  14
ENDBRANCH   1  12
BRANCH   1  15
ATOM     15  C   LIG    1       25.818 -20.131   6.359  0.00  0.00    +0.028 C 
BRANCH  15  16
ATOM     16  C   LIG    1       27.221 -20.637   5.927  0.00  0.00    -0.016 C 
ATOM     17  C   LIG    1       27.828 -21.476   7.062  0.00  0.00    +0.007 C 
ATOM     18  C   LIG    1       28.206 -19.526   5.565  0.00  0.00    +0.007 C 
ENDBRANCH  15  16
ENDBRANCH   1  15
TORSDOF 4
ENDMDL
MODEL 7
REMARK VINA RESULT:      -2.7      2.517      4.280
REMARK  Name = *****
REMARK                            x       y       z     vdW  Elec       q    Type
REMARK                         _______ _______ _______ _____ _____    ______ ____
ROOT
ATOM      1  C   LIG    1       25.245 -14.401   3.585  0.00  0.00    +0.127 C 
ATOM      2  C   LIG    1       23.974 -14.908   4.237  0.00  0.00    +0.236 C 
ATOM      3  O   LIG    1       23.137 -14.159   4.744  0.00  0.00    -0.274 OA
ATOM      4  N   LIG    1       23.740 -16.249   4.178  0.00  0.00    -0.239 N 
ATOM      5  H   LIG    1       22.860 -16.575   4.555  0.00  0.00    +0.159 HD
ATOM      6  C   LIG    1       24.573 -17.199   3.674  0.00  0.00    +0.312 C 
ATOM      7  O   LIG    1       24.261 -18.379   3.646  0.00  0.00    -0.252 OA
ATOM      8  N   LIG    1       25.784 -16.770   3.227  0.00  0.00    -0.239 N 
ATOM      9  H   LIG    1       26.436 -17.489   2.938  0.00  0.00    +0.159 HD
ATOM     10  C   LIG    1       26.249 -15.486   3.248  0.00  0.00    +0.236 C 
ATOM     11  O   LIG    1       27.414 -15.251   2.928  0.00  0.00    -0.274 OA
ENDROOT
BRANCH   1  12
ATOM     12  C   LIG    1       24.831 -13.749   2.227  0.00  0.00    +0.052 C 
BRANCH  12  14
ATOM     13  C   LIG    1       23.836 -11.448   2.490  0.00  0.00    +0.004 C 
ATOM     14  C   LIG    1       24.873 -12.236   2.188  0.00  0.00    -0.033 C 
ENDBRANCH  12  14
ENDBRANCH   1  12
BRANCH   1  15
ATOM     15  C   LIG    1       25.888 -13.304   4.489  0.00  0.00    +0.028 C 
BRANCH  15  16
ATOM     16  C   LIG    1       27.320 -13.562   5.032  0.00  0.00    -0.016 C 
ATOM     17  C   LIG    1       27.269 -13.665   6.564  0.00  0.00    +0.007 C 
ATOM     18  C   LIG    1       28.338 -12.488   4.651  0.00  0.00    +0.007 C 
ENDBRANCH  15  16
ENDBRANCH   1  15
TORSDOF 4
ENDMDL
MODEL 8
REMARK VINA RESULT:      -2.5      4.383      5.838
REMARK  Name = *****
REMARK                            x       y       z     vdW  Elec       q    Type
REMARK                         _______ _______ _______ _____ _____    ______ ____
ROOT
ATOM      1  C   LIG    1       23.155 -18.387   4.173  0.00  0.00    +0.127 C 
ATOM      2  C   LIG    1       24.463 -19.003   3.719  0.00  0.00    +0.236 C 
ATOM      3  O   LIG    1       24.640 -20.220   3.642  0.00  0.00    -0.274 OA
ATOM      4  N   LIG    1       25.443 -18.147   3.315  0.00  0.00    -0.239 N 
ATOM      5  H   LIG    1       26.290 -18.563   2.951  0.00  0.00    +0.159 HD
ATOM      6  C   LIG    1       25.406 -16.788   3.361  0.00  0.00    +0.312 C 
ATOM      7  O   LIG    1       26.332 -16.105   2.952  0.00  0.00    -0.252 OA
ATOM      8  N   LIG    1       24.295 -16.228   3.912  0.00  0.00    -0.239 N 
ATOM      9  H   LIG    1       24.310 -15.223   4.027  0.00  0.00    +0.159 HD
ATOM     10  C   LIG    1       23.225 -16.895   4.434  0.00  0.00    +0.236 C 
ATOM     11  O   LIG    1       22.338 -16.270   5.016  0.00  0.00    -0.274 OA
ENDROOT
BRANCH   1  12
ATOM     12  C   LIG    1       22.132 -18.582   3.007  0.00  0.00    +0.052 C 
BRANCH  12  14
ATOM     13  C   LIG    1       19.644 -18.206   2.854  0.00  0.00    +0.004 C 
ATOM     14  C   LIG    1       20.695 -18.802   3.429  0.00  0.00    -0.033 C 
ENDBRANCH  12  14
ENDBRANCH   1  12
BRANCH   1  15
ATOM     15  C   LIG    1       22.631 -19.151   5.428  0.00  0.00    +0.028 C 
BRANCH  15  16
ATOM     16  C   LIG    1       23.099 -20.618   5.630  0.00  0.00    -0.016 C 
ATOM     17  C   LIG    1       21.968 -21.572   5.216  0.00  0.00    +0.007 C 
ATOM     18  C   LIG    1       23.515 -20.952   7.062  0.00  0.00    +0.007 C 
ENDBRANCH  15  16
ENDBRANCH   1  15
TORSDOF 4
ENDMDL
MODEL 9
REMARK VINA RESULT:      -2.2      2.546      4.676
REMARK  Name = *****
REMARK                            x       y       z     vdW  Elec       q    Type
REMARK                         _______ _______ _______ _____ _____    ______ ____
ROOT
ATOM      1  C   LIG    1       25.385 -14.570   3.768  0.00  0.00    +0.127 C 
ATOM      2  C   LIG    1       26.477 -15.456   3.204  0.00  0.00    +0.236 C 
ATOM      3  O   LIG    1       27.557 -15.016   2.806  0.00  0.00    -0.274 OA
ATOM      4  N   LIG    1       26.254 -16.800   3.218  0.00  0.00    -0.239 N 
ATOM      5  H   LIG    1       27.012 -17.391   2.902  0.00  0.00    +0.159 HD
ATOM      6  C   LIG    1       25.112 -17.431   3.603  0.00  0.00    +0.312 C 
ATOM      7  O   LIG    1       25.018 -18.649   3.601  0.00  0.00    -0.252 OA
ATOM      8  N   LIG    1       24.070 -16.635   3.966  0.00  0.00    -0.239 N 
ATOM      9  H   LIG    1       23.195 -17.104   4.164  0.00  0.00    +0.159 HD
ATOM     10  C   LIG    1       24.054 -15.270   3.966  0.00  0.00    +0.236 C 
ATOM     11  O   LIG    1       23.004 -14.670   4.197  0.00  0.00    -0.274 OA
ENDROOT
BRANCH   1  12
ATOM     12  C   LIG    1       25.856 -14.114   5.187  0.00  0.00    +0.052 C 
BRANCH  12  14
ATOM     13  C   LIG    1       28.094 -12.988   5.463  0.00  0.00    +0.004 C 
ATOM     14  C   LIG    1       26.782 -12.917   5.214  0.00  0.00    -0.033 C 
ENDBRANCH  12  14
ENDBRANCH   1  12
BRANCH   1  15
ATOM     15  C   LIG    1       25.224 -13.308   2.867  0.00  0.00    +0.028 C 
BRANCH  15  16
ATOM     16  C   LIG    1       23.929 -12.466   3.023  0.00  0.00    -0.016 C 
ATOM     17  C   LIG    1       23.833 -11.463   1.863  0.00  0.00    +0.007 C 
ATOM     18  C   LIG    1       23.836 -11.695   4.339  0.00  0.00    +0.007 C 
ENDBRANCH  15  16
ENDBRANCH   1  15
TORSDOF 4
ENDMDL
