MODEL 1
REMARK VINA RESULT:      -4.6      0.000      0.000
REMARK  Name = *****
REMARK                            x       y       z     vdW  Elec       q    Type
REMARK                         _______ _______ _______ _____ _____    ______ ____
ROOT
ATOM      1  C   LIG    1       25.094 -13.862   3.415  0.00  0.00    +0.148 C 
ATOM      2  C   LIG    1       26.562 -13.999   2.985  0.00  0.00    +0.240 C 
ATOM      3  O   LIG    1       26.929 -14.166   1.821  0.00  0.00    -0.274 OA
ATOM      4  N   LIG    1       27.494 -13.986   3.987  0.00  0.00    -0.239 N 
ATOM      5  H   LIG    1       28.455 -14.096   3.692  0.00  0.00    +0.159 HD
ATOM      6  C   LIG    1       27.330 -13.352   5.175  0.00  0.00    +0.312 C 
ATOM      7  O   LIG    1       28.292 -13.013   5.856  0.00  0.00    -0.252 OA
ATOM      8  N   LIG    1       26.063 -13.005   5.519  0.00  0.00    -0.239 N 
ATOM      9  H   LIG    1       25.990 -12.410   6.333  0.00  0.00    +0.159 HD
ATOM     10  C   LIG    1       25.015 -12.944   4.643  0.00  0.00    +0.240 C 
ATOM     11  O   LIG    1       24.056 -12.215   4.901  0.00  0.00    -0.274 OA
ENDROOT
BRANCH   1  12
ATOM     12  C   LIG    1       24.493 -15.259   3.738  0.00  0.00    -0.024 A 
ATOM     13  C   LIG    1       23.195 -15.393   4.269  0.00  0.00    +0.005 A 
ATOM     14  C   LIG    1       22.645 -16.652   4.526  0.00  0.00    +0.000 A 
ATOM     15  C   LIG    1       23.370 -17.805   4.243  0.00  0.00    +0.000 A 
ATOM     16  C   LIG    1       24.643 -17.699   3.692  0.00  0.00    +0.000 A 
ATOM     17  C   LIG    1       25.196 -16.442   3.433  0.00  0.00    +0.005 A 
ENDBRANCH   1  12
BRANCH   1  19
ATOM     18  C   LIG    1       24.636 -11.853   1.828  0.00  0.00    +0.005 C 
ATOM     19  C   LIG    1       24.249 -13.270   2.251  0.00  0.00    +0.027 C 
ENDBRANCH   1  19
TORSDOF 2
ENDMDL
MODEL 2
REMARK VINA RESULT:      -4.6      1.489      2.086
REMARK  Name = *****
REMARK                            x       y       z     vdW  Elec       q    Type
REMARK                         _______ _______ _______ _____ _____    ______ ____
ROOT
ATOM      1  C   LIG    1       25.297 -13.950   4.011  0.00  0.00    +0.148 C 
ATOM      2  C   LIG    1       25.857 -13.350   2.713  0.00  0.00    +0.240 C 
ATOM      3  O   LIG    1       25.162 -12.879   1.812  0.00  0.00    -0.274 OA
ATOM      4  N   LIG    1       27.215 -13.409   2.552  0.00  0.00    -0.239 N 
ATOM      5  H   LIG    1       27.569 -13.028   1.685  0.00  0.00    +0.159 HD
ATOM      6  C   LIG    1       28.106 -13.426   3.575  0.00  0.00    +0.312 C 
ATOM      7  O   LIG    1       29.269 -13.069   3.415  0.00  0.00    -0.252 OA
ATOM      8  N   LIG    1       27.627 -13.742   4.805  0.00  0.00    -0.239 N 
ATOM      9  H   LIG    1       28.279 -13.605   5.565  0.00  0.00    +0.159 HD
ATOM     10  C   LIG    1       26.303 -13.716   5.148  0.00  0.00    +0.240 C 
ATOM     11  O   LIG    1       25.988 -13.564   6.329  0.00  0.00    -0.274 OA
ENDROOT
BRANCH   1  12
ATOM     12  C   LIG    1       25.022 -15.470   3.830  0.00  0.00    -0.024 A 
ATOM     13  C   LIG    1       26.035 -16.351   3.403  0.00  0.00    +0.005 A 
ATOM     14  C   LIG    1       25.794 -17.722   3.275  0.00  0.00    +0.000 A 
ATOM     15  C   LIG    1       24.544 -18.246   3.585  0.00  0.00    +0.000 A 
ATOM     16  C   LIG    1       23.536 -17.401   4.035  0.00  0.00    +0.000 A 
ATOM     17  C   LIG    1       23.773 -16.030   4.166  0.00  0.00    +0.005 A 
ENDBRANCH   1  12
BRANCH   1  19
ATOM     18  C   LIG    1       23.994 -11.783   4.622  0.00  0.00    +0.005 C 
ATOM     19  C   LIG    1       23.933 -13.288   4.361  0.00  0.00    +0.027 C 
ENDBRANCH   1  19
TORSDOF 2
ENDMDL
MODEL 3
REMARK VINA RESULT:      -3.6      1.494      3.280
REMARK  Name = *****
REMARK                            x       y       z     vdW  Elec       q    Type
REMARK                         _______ _______ _______ _____ _____    ______ ____
ROOT
ATOM      1  C   LIG    1       25.643 -14.385   3.909  0.00  0.00    +0.148 C 
ATOM      2  C   LIG    1       24.891 -13.225   4.578  0.00  0.00    +0.240 C 
ATOM      3  O   LIG    1       24.986 -12.936   5.772  0.00  0.00    -0.274 OA
ATOM      4  N   LIG    1       24.026 -12.522   3.784  0.00  0.00    -0.239 N 
ATOM      5  H   LIG    1       23.523 -11.773   4.242  0.00  0.00    +0.159 HD
ATOM      6  C   LIG    1       24.163 -12.382   2.442  0.00  0.00    +0.312 C 
ATOM      7  O   LIG    1       23.643 -11.447   1.841  0.00  0.00    -0.252 OA
ATOM      8  N   LIG    1       24.993 -13.252   1.812  0.00  0.00    -0.239 N 
ATOM      9  H   LIG    1       25.186 -13.033   0.845  0.00  0.00    +0.159 HD
ATOM     10  C   LIG    1       25.932 -14.018   2.446  0.00  0.00    +0.240 C 
ATOM     11  O   LIG    1       26.914 -14.413   1.815  0.00  0.00    -0.274 OA
ENDROOT
BRANCH   1  12
ATOM     12  C   LIG    1       24.803 -15.691   3.988  0.00  0.00    -0.024 A 
ATOM     13  C   LIG    1       23.455 -15.671   4.397  0.00  0.00    +0.005 A 
ATOM     14  C   LIG    1       22.693 -16.842   4.434  0.00  0.00    +0.000 A 
ATOM     15  C   LIG    1       23.253 -18.055   4.048  0.00  0.00    +0.000 A 
ATOM     16  C   LIG    1       24.574 -18.096   3.613  0.00  0.00    +0.000 A 
ATOM     17  C   LIG    1       25.338 -16.927   3.575  0.00  0.00    +0.005 A 
ENDBRANCH   1  12
BRANCH   1  19
ATOM     18  C   LIG    1       28.051 -13.592   4.489  0.00  0.00    +0.005 C 
ATOM     19  C   LIG    1       26.976 -14.664   4.662  0.00  0.00    +0.027 C 
ENDBRANCH   1  19
TORSDOF 2
ENDMDL
MODEL 4
REMARK VINA RESULT:      -3.5      1.358      2.663
REMARK  Name = *****
REMARK                            x       y       z     vdW  Elec       q    Type
REMARK                         _______ _______ _______ _____ _____    ______ ____
ROOT
ATOM      1  C   LIG    1       25.975 -14.026   3.668  0.00  0.00    +0.148 C 
ATOM      2  C   LIG    1       26.289 -13.530   5.087  0.00  0.00    +0.240 C 
ATOM      3  O   LIG    1       27.376 -13.677   5.647  0.00  0.00    -0.274 OA
ATOM      4  N   LIG    1       25.258 -12.941   5.768  0.00  0.00    -0.239 N 
ATOM      5  H   LIG    1       25.473 -12.636   6.709  0.00  0.00    +0.159 HD
ATOM      6  C   LIG    1       24.226 -12.288   5.177  0.00  0.00    +0.312 C 
ATOM      7  O   LIG    1       23.571 -11.447   5.785  0.00  0.00    -0.252 OA
ATOM      8  N   LIG    1       24.025 -12.520   3.855  0.00  0.00    -0.239 N 
ATOM      9  H   LIG    1       23.348 -11.914   3.414  0.00  0.00    +0.159 HD
ATOM     10  C   LIG    1       24.953 -13.080   3.020  0.00  0.00    +0.240 C 
ATOM     11  O   LIG    1       24.894 -12.849   1.812  0.00  0.00    -0.274 OA
ENDROOT
BRANCH   1  12
ATOM     12  C   LIG    1       25.422 -15.478   3.714  0.00  0.00    -0.024 A 
ATOM     13  C   LIG    1       24.086 -15.742   4.077  0.00  0.00    +0.005 A 
ATOM     14  C   LIG    1       23.582 -17.047   4.083  0.00  0.00    +0.000 A 
ATOM     15  C   LIG    1       24.394 -18.113   3.711  0.00  0.00    +0.000 A 
ATOM     16  C   LIG    1       25.708 -17.875   3.322  0.00  0.00    +0.000 A 
ATOM     17  C   LIG    1       26.214 -16.573   3.314  0.00  0.00    +0.005 A 
ENDBRANCH   1  12
BRANCH   1  19
ATOM     18  C   LIG    1       28.378 -13.113   3.272  0.00  0.00    +0.005 C 
ATOM     19  C   LIG    1       27.276 -14.070   2.817  0.00  0.00    +0.027 C 
ENDBRANCH   1  19
TORSDOF 2
ENDMDL
MODEL 5
REMARK VINA RESULT:      -2.5      4.583      6.566
REMARK  Name = *****
REMARK                            x       y       z     vdW  Elec       q    Type
REMARK                         _______ _______ _______ _____ _____    ______ ____
ROOT
ATOM      1  C   LIG    1       23.434 -19.738   4.594  0.00  0.00    +0.148 C 
ATOM      2  C   LIG    1       23.713 -20.098   6.060  0.00  0.00    +0.240 C 
ATOM      3  O   LIG    1       22.839 -20.231   6.918  0.00  0.00    -0.274 OA
ATOM      4  N   LIG    1       25.028 -20.216   6.419  0.00  0.00    -0.239 N 
ATOM      5  H   LIG    1       25.199 -20.434   7.392  0.00  0.00    +0.159 HD
ATOM      6  C   LIG    1       26.022 -20.578   5.569  0.00  0.00    +0.312 C 
ATOM      7  O   LIG    1       27.070 -21.065   5.982  0.00  0.00    -0.252 OA
ATOM      8  N   LIG    1       25.761 -20.488   4.240  0.00  0.00    -0.239 N 
ATOM      9  H   LIG    1       26.462 -20.899   3.639  0.00  0.00    +0.159 HD
ATOM     10  C   LIG    1       24.506 -20.386   3.705  0.00  0.00    +0.240 C 
ATOM     11  O   LIG    1       24.312 -20.758   2.547  0.00  0.00    -0.274 OA
ENDROOT
BRANCH   1  12
ATOM     12  C   LIG    1       23.430 -18.195   4.407  0.00  0.00    -0.024 A 
ATOM     13  C   LIG    1       22.355 -17.404   4.858  0.00  0.00    +0.005 A 
ATOM     14  C   LIG    1       22.371 -16.013   4.720  0.00  0.00    +0.000 A 
ATOM     15  C   LIG    1       23.467 -15.379   4.144  0.00  0.00    +0.000 A 
ATOM     16  C   LIG    1       24.553 -16.135   3.716  0.00  0.00    +0.000 A 
ATOM     17  C   LIG    1       24.540 -17.525   3.854  0.00  0.00    +0.005 A 
ENDBRANCH   1  12
BRANCH   1  19
ATOM     18  C   LIG    1       21.601 -21.572   4.803  0.00  0.00    +0.005 C 
ATOM     19  C   LIG    1       22.021 -20.242   4.178  0.00  0.00    +0.027 C 
ENDBRANCH   1  19
TORSDOF 2
ENDMDL
MODEL 6
REMARK VINA RESULT:      -2.4      4.612      6.687
REMARK  Name = *****
REMARK                            x       y       z     vdW  Elec       q    Type
REMARK                         _______ _______ _______ _____ _____    ______ ____
ROOT
ATOM      1  C   LIG    1       23.427 -19.743   4.641  0.00  0.00    +0.148 C 
ATOM      2  C   LIG    1       23.719 -20.137   6.096  0.00  0.00    +0.240 C 
ATOM      3  O   LIG    1       22.855 -20.267   6.965  0.00  0.00    -0.274 OA
ATOM      4  N   LIG    1       25.037 -20.291   6.433  0.00  0.00    -0.239 N 
ATOM      5  H   LIG    1       25.216 -20.531   7.399  0.00  0.00    +0.159 HD
ATOM      6  C   LIG    1       26.010 -20.659   5.561  0.00  0.00    +0.312 C 
ATOM      7  O   LIG    1       27.052 -21.176   5.950  0.00  0.00    -0.252 OA
ATOM      8  N   LIG    1       25.731 -20.537   4.239  0.00  0.00    -0.239 N 
ATOM      9  H   LIG    1       26.414 -20.952   3.619  0.00  0.00    +0.159 HD
ATOM     10  C   LIG    1       24.472 -20.397   3.725  0.00  0.00    +0.240 C 
ATOM     11  O   LIG    1       24.253 -20.743   2.563  0.00  0.00    -0.274 OA
ENDROOT
BRANCH   1  12
ATOM     12  C   LIG    1       23.455 -18.196   4.483  0.00  0.00    -0.024 A 
ATOM     13  C   LIG    1       24.556 -17.540   3.898  0.00  0.00    +0.005 A 
ATOM     14  C   LIG    1       24.563 -16.152   3.727  0.00  0.00    +0.000 A 
ATOM     15  C   LIG    1       23.467 -15.392   4.119  0.00  0.00    +0.000 A 
ATOM     16  C   LIG    1       22.357 -16.020   4.674  0.00  0.00    +0.000 A 
ATOM     17  C   LIG    1       22.346 -17.407   4.846  0.00  0.00    +0.005 A 
ENDBRANCH   1  12
BRANCH   1  19
ATOM     18  C   LIG    1       21.584 -21.572   4.788  0.00  0.00    +0.005 C 
ATOM     19  C   LIG    1       21.998 -20.207   4.238  0.00  0.00    +0.027 C 
ENDBRANCH   1  19
TORSDOF 2
ENDMDL
MODEL 7
REMARK VINA RESULT:      -1.9      3.842      5.713
REMARK  Name = *****
REMARK                            x       y       z     vdW  Elec       q    Type
REMARK                         _______ _______ _______ _____ _____    ______ ____
ROOT
ATOM      1  C   LIG    1       23.905 -19.089   3.726  0.00  0.00    +0.148 C 
ATOM      2  C   LIG    1       24.749 -17.860   3.359  0.00  0.00    +0.240 C 
ATOM      3  O   LIG    1       25.680 -17.875   2.552  0.00  0.00    -0.274 OA
ATOM      4  N   LIG    1       24.462 -16.701   4.028  0.00  0.00    -0.239 N 
ATOM      5  H   LIG    1       25.038 -15.905   3.791  0.00  0.00    +0.159 HD
ATOM      6  C   LIG    1       23.241 -16.395   4.534  0.00  0.00    +0.312 C 
ATOM      7  O   LIG    1       22.912 -15.232   4.747  0.00  0.00    -0.252 OA
ATOM      8  N   LIG    1       22.360 -17.416   4.684  0.00  0.00    -0.239 N 
ATOM      9  H   LIG    1       21.419 -17.137   4.923  0.00  0.00    +0.159 HD
ATOM     10  C   LIG    1       22.480 -18.634   4.072  0.00  0.00    +0.240 C 
ATOM     11  O   LIG    1       21.471 -19.315   3.882  0.00  0.00    -0.274 OA
ENDROOT
BRANCH   1  12
ATOM     12  C   LIG    1       24.543 -19.844   4.926  0.00  0.00    -0.024 A 
ATOM     13  C   LIG    1       23.748 -20.413   5.940  0.00  0.00    +0.005 A 
ATOM     14  C   LIG    1       24.323 -21.121   7.000  0.00  0.00    +0.000 A 
ATOM     15  C   LIG    1       25.702 -21.291   7.062  0.00  0.00    +0.000 A 
ATOM     16  C   LIG    1       26.507 -20.763   6.058  0.00  0.00    +0.000 A 
ATOM     17  C   LIG    1       25.935 -20.055   4.997  0.00  0.00    +0.005 A 
ENDBRANCH   1  12
BRANCH   1  19
ATOM     18  C   LIG    1       23.843 -21.566   2.934  0.00  0.00    +0.005 C 
ATOM     19  C   LIG    1       23.871 -20.090   2.535  0.00  0.00    +0.027 C 
ENDBRANCH   1  19
TORSDOF 2
ENDMDL
