MODEL 1
REMARK VINA RESULT:      -7.1      0.000      0.000
REMARK  Name = *****
REMARK                            x       y       z     vdW  Elec       q    Type
REMARK                         _______ _______ _______ _____ _____    ______ ____
ROOT
ATOM      1  C   LIG    1       28.875 -19.821   7.218  0.00  0.00    -0.011 A 
ATOM      2  C   LIG    1       28.052 -20.128   8.315  0.00  0.00    +0.051 A 
ATOM      3  C   LIG    1       26.716 -20.468   8.123  0.00  0.00    +0.121 A 
ATOM      4  C   LIG    1       26.167 -20.525   6.847  0.00  0.00    +0.090 A 
ATOM      5  C   LIG    1       26.983 -20.243   5.757  0.00  0.00    +0.121 A 
ATOM      6  C   LIG    1       28.324 -19.904   5.927  0.00  0.00    +0.051 A 
ENDROOT
BRANCH   3   7
ATOM      7  O   LIG    1       25.962 -20.729   9.229  0.00  0.00    -0.507 OA
ATOM      8  H   LIG    1       26.403 -20.340  10.002  0.00  0.00    +0.292 HD
ENDBRANCH   3   7
BRANCH   5   9
ATOM      9  O   LIG    1       26.415 -20.299   4.517  0.00  0.00    -0.507 OA
ATOM     10  H   LIG    1       26.226 -21.229   4.304  0.00  0.00    +0.292 HD
ENDBRANCH   5   9
BRANCH   1  11
ATOM     11  C   LIG    1       30.312 -19.393   7.451  0.00  0.00    +0.158 C 
BRANCH  11  12
ATOM     12  O   LIG    1       31.070 -19.581   6.245  0.00  0.00    -0.386 OA
ATOM     13  H   LIG    1       31.674 -20.320   6.431  0.00  0.00    +0.210 HD
ENDBRANCH  11  12
BRANCH  11  14
ATOM     14  C   LIG    1       30.997 -20.148   8.619  0.00  0.00    +0.117 C 
BRANCH  14  15
ATOM     15  N   LIG    1       31.831 -19.223   9.415  0.00  0.00    -0.311 NA
ATOM     16  H   LIG    1       31.920 -19.629  10.351  0.00  0.00    +0.122 HD
BRANCH  15  18
ATOM     17  C   LIG    1       30.560 -17.708  10.841  0.00  0.00    +0.024 C 
ATOM     18  C   LIG    1       31.294 -17.860   9.504  0.00  0.00    +0.048 C 
ATOM     19  C   LIG    1       32.400 -16.807   9.409  0.00  0.00    +0.024 C 
ENDBRANCH  15  18
ENDBRANCH  14  15
ENDBRANCH  11  14
ENDBRANCH   1  11
TORSDOF 7
ENDMDL
MODEL 2
REMARK VINA RESULT:      -7.0      0.879      2.489
REMARK  Name = *****
REMARK                            x       y       z     vdW  Elec       q    Type
REMARK                         _______ _______ _______ _____ _____    ______ ____
ROOT
ATOM      1  C   LIG    1       28.660 -19.915   6.987  0.00  0.00    -0.011 A 
ATOM      2  C   LIG    1       27.988 -19.983   5.755  0.00  0.00    +0.051 A 
ATOM      3  C   LIG    1       26.642 -20.331   5.703  0.00  0.00    +0.121 A 
ATOM      4  C   LIG    1       25.927 -20.608   6.862  0.00  0.00    +0.090 A 
ATOM      5  C   LIG    1       26.582 -20.521   8.086  0.00  0.00    +0.121 A 
ATOM      6  C   LIG    1       27.929 -20.171   8.160  0.00  0.00    +0.051 A 
ENDROOT
BRANCH   3   7
ATOM      7  O   LIG    1       26.051 -20.405   4.474  0.00  0.00    -0.507 OA
ATOM      8  H   LIG    1       25.582 -21.253   4.409  0.00  0.00    +0.292 HD
ENDBRANCH   3   7
BRANCH   5   9
ATOM      9  O   LIG    1       25.858 -20.806   9.208  0.00  0.00    -0.507 OA
ATOM     10  H   LIG    1       26.214 -20.284   9.947  0.00  0.00    +0.292 HD
ENDBRANCH   5   9
BRANCH   1  11
ATOM     11  C   LIG    1       30.143 -19.594   7.019  0.00  0.00    +0.158 C 
BRANCH  11  12
ATOM     12  O   LIG    1       30.839 -20.613   7.754  0.00  0.00    -0.386 OA
ATOM     13  H   LIG    1       30.919 -20.272   8.661  0.00  0.00    +0.210 HD
ENDBRANCH  11  12
BRANCH  11  14
ATOM     14  C   LIG    1       30.459 -18.205   7.633  0.00  0.00    +0.117 C 
BRANCH  14  15
ATOM     15  N   LIG    1       31.821 -18.188   8.204  0.00  0.00    -0.311 NA
ATOM     16  H   LIG    1       32.162 -19.154   8.199  0.00  0.00    +0.122 HD
BRANCH  15  18
ATOM     17  C   LIG    1       32.416 -16.197   9.478  0.00  0.00    +0.024 C 
ATOM     18  C   LIG    1       31.894 -17.635   9.561  0.00  0.00    +0.048 C 
ATOM     19  C   LIG    1       30.528 -17.641  10.252  0.00  0.00    +0.024 C 
ENDBRANCH  15  18
ENDBRANCH  14  15
ENDBRANCH  11  14
ENDBRANCH   1  11
TORSDOF 7
ENDMDL
MODEL 3
REMARK VINA RESULT:      -6.8      6.664      8.363
REMARK  Name = *****
REMARK                            x       y       z     vdW  Elec       q    Type
REMARK                         _______ _______ _______ _____ _____    ______ ____
ROOT
ATOM      1  C   LIG    1       24.748 -25.505   6.142  0.00  0.00    -0.011 A 
ATOM      2  C   LIG    1       26.123 -25.664   5.896  0.00  0.00    +0.051 A 
ATOM      3  C   LIG    1       26.629 -26.889   5.473  0.00  0.00    +0.121 A 
ATOM      4  C   LIG    1       25.790 -27.979   5.271  0.00  0.00    +0.090 A 
ATOM      5  C   LIG    1       24.426 -27.822   5.492  0.00  0.00    +0.121 A 
ATOM      6  C   LIG    1       23.899 -26.602   5.913  0.00  0.00    +0.051 A 
ENDROOT
BRANCH   3   7
ATOM      7  O   LIG    1       27.975 -26.988   5.276  0.00  0.00    -0.507 OA
ATOM      8  H   LIG    1       28.138 -27.155   4.333  0.00  0.00    +0.292 HD
ENDBRANCH   3   7
BRANCH   5   9
ATOM      9  O   LIG    1       23.628 -28.911   5.293  0.00  0.00    -0.507 OA
ATOM     10  H   LIG    1       24.050 -29.684   5.703  0.00  0.00    +0.292 HD
ENDBRANCH   5   9
BRANCH   1  11
ATOM     11  C   LIG    1       24.225 -24.180   6.662  0.00  0.00    +0.158 C 
BRANCH  11  12
ATOM     12  O   LIG    1       22.791 -24.159   6.565  0.00  0.00    -0.386 OA
ATOM     13  H   LIG    1       22.524 -25.088   6.466  0.00  0.00    +0.210 HD
ENDBRANCH  11  12
BRANCH  11  14
ATOM     14  C   LIG    1       24.813 -22.951   5.920  0.00  0.00    +0.117 C 
BRANCH  14  15
ATOM     15  N   LIG    1       23.738 -22.181   5.260  0.00  0.00    -0.311 NA
ATOM     16  H   LIG    1       23.915 -22.220   4.253  0.00  0.00    +0.122 HD
BRANCH  15  18
ATOM     17  C   LIG    1       22.455 -20.125   4.997  0.00  0.00    +0.024 C 
ATOM     18  C   LIG    1       23.644 -20.785   5.703  0.00  0.00    +0.048 C 
ATOM     19  C   LIG    1       23.457 -20.682   7.218  0.00  0.00    +0.024 C 
ENDBRANCH  15  18
ENDBRANCH  14  15
ENDBRANCH  11  14
ENDBRANCH   1  11
TORSDOF 7
ENDMDL
MODEL 4
REMARK VINA RESULT:      -6.8      3.380      5.041
REMARK  Name = *****
REMARK                            x       y       z     vdW  Elec       q    Type
REMARK                         _______ _______ _______ _____ _____    ______ ____
ROOT
ATOM      1  C   LIG    1       25.521 -22.828   7.533  0.00  0.00    -0.011 A 
ATOM      2  C   LIG    1       26.206 -23.870   6.884  0.00  0.00    +0.051 A 
ATOM      3  C   LIG    1       25.506 -24.842   6.176  0.00  0.00    +0.121 A 
ATOM      4  C   LIG    1       24.120 -24.801   6.081  0.00  0.00    +0.090 A 
ATOM      5  C   LIG    1       23.439 -23.761   6.703  0.00  0.00    +0.121 A 
ATOM      6  C   LIG    1       24.121 -22.775   7.415  0.00  0.00    +0.051 A 
ENDROOT
BRANCH   3   7
ATOM      7  O   LIG    1       26.225 -25.842   5.589  0.00  0.00    -0.507 OA
ATOM      8  H   LIG    1       25.786 -26.688   5.778  0.00  0.00    +0.292 HD
ENDBRANCH   3   7
BRANCH   5   9
ATOM      9  O   LIG    1       22.077 -23.751   6.601  0.00  0.00    -0.507 OA
ATOM     10  H   LIG    1       21.718 -24.448   7.174  0.00  0.00    +0.292 HD
ENDBRANCH   5   9
BRANCH   1  11
ATOM     11  C   LIG    1       26.296 -21.812   8.351  0.00  0.00    +0.158 C 
BRANCH  11  12
ATOM     12  O   LIG    1       25.488 -21.366   9.453  0.00  0.00    -0.386 OA
ATOM     13  H   LIG    1       25.457 -20.397   9.377  0.00  0.00    +0.210 HD
ENDBRANCH  11  12
BRANCH  11  14
ATOM     14  C   LIG    1       26.769 -20.588   7.525  0.00  0.00    +0.117 C 
BRANCH  14  15
ATOM     15  N   LIG    1       28.013 -20.029   8.094  0.00  0.00    -0.311 NA
ATOM     16  H   LIG    1       27.775 -19.124   8.509  0.00  0.00    +0.122 HD
BRANCH  15  18
ATOM     17  C   LIG    1       28.481 -19.635   5.734  0.00  0.00    +0.024 C 
ATOM     18  C   LIG    1       29.097 -19.868   7.118  0.00  0.00    +0.048 C 
ATOM     19  C   LIG    1       30.010 -18.693   7.472  0.00  0.00    +0.024 C 
ENDBRANCH  15  18
ENDBRANCH  14  15
ENDBRANCH  11  14
ENDBRANCH   1  11
TORSDOF 7
ENDMDL
MODEL 5
REMARK VINA RESULT:      -6.8      3.033      5.962
REMARK  Name = *****
REMARK                            x       y       z     vdW  Elec       q    Type
REMARK                         _______ _______ _______ _____ _____    ______ ____
ROOT
ATOM      1  C   LIG    1       28.119 -20.428   7.277  0.00  0.00    -0.011 A 
ATOM      2  C   LIG    1       28.347 -19.439   6.304  0.00  0.00    +0.051 A 
ATOM      3  C   LIG    1       29.634 -18.965   6.067  0.00  0.00    +0.121 A 
ATOM      4  C   LIG    1       30.723 -19.463   6.773  0.00  0.00    +0.090 A 
ATOM      5  C   LIG    1       30.505 -20.457   7.721  0.00  0.00    +0.121 A 
ATOM      6  C   LIG    1       29.225 -20.947   7.971  0.00  0.00    +0.051 A 
ENDROOT
BRANCH   3   7
ATOM      7  O   LIG    1       29.788 -17.986   5.129  0.00  0.00    -0.507 OA
ATOM      8  H   LIG    1       30.731 -17.923   4.901  0.00  0.00    +0.292 HD
ENDBRANCH   3   7
BRANCH   5   9
ATOM      9  O   LIG    1       31.592 -20.922   8.405  0.00  0.00    -0.507 OA
ATOM     10  H   LIG    1       31.386 -21.807   8.749  0.00  0.00    +0.292 HD
ENDBRANCH   5   9
BRANCH   1  11
ATOM     11  C   LIG    1       26.702 -20.888   7.564  0.00  0.00    +0.158 C 
BRANCH  11  12
ATOM     12  O   LIG    1       26.508 -20.987   8.984  0.00  0.00    -0.386 OA
ATOM     13  H   LIG    1       26.906 -20.181   9.358  0.00  0.00    +0.210 HD
ENDBRANCH  11  12
BRANCH  11  14
ATOM     14  C   LIG    1       26.347 -22.241   6.896  0.00  0.00    +0.117 C 
BRANCH  14  15
ATOM     15  N   LIG    1       25.448 -22.029   5.742  0.00  0.00    -0.311 NA
ATOM     16  H   LIG    1       25.988 -22.238   4.898  0.00  0.00    +0.122 HD
BRANCH  15  18
ATOM     17  C   LIG    1       25.157 -20.116   4.260  0.00  0.00    +0.024 C 
ATOM     18  C   LIG    1       24.888 -20.676   5.661  0.00  0.00    +0.048 C 
ATOM     19  C   LIG    1       23.382 -20.668   5.930  0.00  0.00    +0.024 C 
ENDBRANCH  15  18
ENDBRANCH  14  15
ENDBRANCH  11  14
ENDBRANCH   1  11
TORSDOF 7
ENDMDL
MODEL 6
REMARK VINA RESULT:      -6.8      6.199      8.183
REMARK  Name = *****
REMARK                            x       y       z     vdW  Elec       q    Type
REMARK                         _______ _______ _______ _____ _____    ______ ____
ROOT
ATOM      1  C   LIG    1       24.786 -25.484   6.210  0.00  0.00    -0.011 A 
ATOM      2  C   LIG    1       23.931 -26.579   5.997  0.00  0.00    +0.051 A 
ATOM      3  C   LIG    1       24.430 -27.778   5.499  0.00  0.00    +0.121 A 
ATOM      4  C   LIG    1       25.782 -27.929   5.212  0.00  0.00    +0.090 A 
ATOM      5  C   LIG    1       26.636 -26.856   5.441  0.00  0.00    +0.121 A 
ATOM      6  C   LIG    1       26.157 -25.647   5.943  0.00  0.00    +0.051 A 
ENDROOT
BRANCH   3   7
ATOM      7  O   LIG    1       23.546 -28.796   5.288  0.00  0.00    -0.507 OA
ATOM      8  H   LIG    1       22.647 -28.428   5.288  0.00  0.00    +0.292 HD
ENDBRANCH   3   7
BRANCH   5   9
ATOM      9  O   LIG    1       27.957 -27.029   5.143  0.00  0.00    -0.507 OA
ATOM     10  H   LIG    1       28.057 -27.861   4.650  0.00  0.00    +0.292 HD
ENDBRANCH   5   9
BRANCH   1  11
ATOM     11  C   LIG    1       24.214 -24.165   6.695  0.00  0.00    +0.158 C 
BRANCH  11  12
ATOM     12  O   LIG    1       22.799 -24.137   6.451  0.00  0.00    -0.386 OA
ATOM     13  H   LIG    1       22.536 -25.066   6.338  0.00  0.00    +0.210 HD
ENDBRANCH  11  12
BRANCH  11  14
ATOM     14  C   LIG    1       24.879 -22.927   6.040  0.00  0.00    +0.117 C 
BRANCH  14  15
ATOM     15  N   LIG    1       24.104 -22.486   4.861  0.00  0.00    -0.311 NA
ATOM     16  H   LIG    1       24.556 -22.889   4.036  0.00  0.00    +0.122 HD
BRANCH  15  18
ATOM     17  C   LIG    1       23.017 -20.502   5.768  0.00  0.00    +0.024 C 
ATOM     18  C   LIG    1       24.005 -21.029   4.721  0.00  0.00    +0.048 C 
ATOM     19  C   LIG    1       25.361 -20.346   4.912  0.00  0.00    +0.024 C 
ENDBRANCH  15  18
ENDBRANCH  14  15
ENDBRANCH  11  14
ENDBRANCH   1  11
TORSDOF 7
ENDMDL
MODEL 7
REMARK VINA RESULT:      -6.8      3.060      6.328
REMARK  Name = *****
REMARK                            x       y       z     vdW  Elec       q    Type
REMARK                         _______ _______ _______ _____ _____    ______ ____
ROOT
ATOM      1  C   LIG    1       28.100 -20.539   7.305  0.00  0.00    -0.011 A 
ATOM      2  C   LIG    1       28.287 -19.521   6.353  0.00  0.00    +0.051 A 
ATOM      3  C   LIG    1       29.556 -19.003   6.113  0.00  0.00    +0.121 A 
ATOM      4  C   LIG    1       30.667 -19.482   6.797  0.00  0.00    +0.090 A 
ATOM      5  C   LIG    1       30.491 -20.503   7.724  0.00  0.00    +0.121 A 
ATOM      6  C   LIG    1       29.230 -21.040   7.976  0.00  0.00    +0.051 A 
ENDROOT
BRANCH   3   7
ATOM      7  O   LIG    1       29.669 -17.998   5.197  0.00  0.00    -0.507 OA
ATOM      8  H   LIG    1       30.220 -18.313   4.461  0.00  0.00    +0.292 HD
ENDBRANCH   3   7
BRANCH   5   9
ATOM      9  O   LIG    1       31.599 -20.950   8.385  0.00  0.00    -0.507 OA
ATOM     10  H   LIG    1       32.050 -20.187   8.784  0.00  0.00    +0.292 HD
ENDBRANCH   5   9
BRANCH   1  11
ATOM     11  C   LIG    1       26.702 -21.049   7.596  0.00  0.00    +0.158 C 
BRANCH  11  12
ATOM     12  O   LIG    1       26.398 -20.850   8.986  0.00  0.00    -0.386 OA
ATOM     13  H   LIG    1       25.543 -20.386   9.002  0.00  0.00    +0.210 HD
ENDBRANCH  11  12
BRANCH  11  14
ATOM     14  C   LIG    1       26.503 -22.543   7.230  0.00  0.00    +0.117 C 
BRANCH  14  15
ATOM     15  N   LIG    1       25.614 -22.675   6.058  0.00  0.00    -0.311 NA
ATOM     16  H   LIG    1       24.922 -21.924   6.118  0.00  0.00    +0.122 HD
BRANCH  15  18
ATOM     17  C   LIG    1       25.848 -25.046   6.577  0.00  0.00    +0.024 C 
ATOM     18  C   LIG    1       24.941 -23.976   5.961  0.00  0.00    +0.048 C 
ATOM     19  C   LIG    1       23.593 -23.973   6.686  0.00  0.00    +0.024 C 
ENDBRANCH  15  18
ENDBRANCH  14  15
ENDBRANCH  11  14
ENDBRANCH   1  11
TORSDOF 7
ENDMDL
MODEL 8
REMARK VINA RESULT:      -6.8      6.201      7.889
REMARK  Name = *****
REMARK                            x       y       z     vdW  Elec       q    Type
REMARK                         _______ _______ _______ _____ _____    ______ ____
ROOT
ATOM      1  C   LIG    1       23.370 -21.169   5.764  0.00  0.00    -0.011 A 
ATOM      2  C   LIG    1       24.645 -21.071   5.181  0.00  0.00    +0.051 A 
ATOM      3  C   LIG    1       24.918 -20.080   4.243  0.00  0.00    +0.121 A 
ATOM      4  C   LIG    1       23.947 -19.159   3.870  0.00  0.00    +0.090 A 
ATOM      5  C   LIG    1       22.691 -19.238   4.460  0.00  0.00    +0.121 A 
ATOM      6  C   LIG    1       22.397 -20.220   5.404  0.00  0.00    +0.051 A 
ENDROOT
BRANCH   3   7
ATOM      7  O   LIG    1       26.167 -20.053   3.693  0.00  0.00    -0.507 OA
ATOM      8  H   LIG    1       26.217 -20.742   3.010  0.00  0.00    +0.292 HD
ENDBRANCH   3   7
BRANCH   5   9
ATOM      9  O   LIG    1       21.754 -18.325   4.068  0.00  0.00    -0.507 OA
ATOM     10  H   LIG    1       21.596 -17.708   4.803  0.00  0.00    +0.292 HD
ENDBRANCH   5   9
BRANCH   1  11
ATOM     11  C   LIG    1       23.072 -22.293   6.739  0.00  0.00    +0.158 C 
BRANCH  11  12
ATOM     12  O   LIG    1       23.065 -21.777   8.079  0.00  0.00    -0.386 OA
ATOM     13  H   LIG    1       23.654 -22.361   8.586  0.00  0.00    +0.210 HD
ENDBRANCH  11  12
BRANCH  11  14
ATOM     14  C   LIG    1       24.073 -23.473   6.642  0.00  0.00    +0.117 C 
BRANCH  14  15
ATOM     15  N   LIG    1       23.352 -24.754   6.500  0.00  0.00    -0.311 NA
ATOM     16  H   LIG    1       23.256 -25.152   7.438  0.00  0.00    +0.122 HD
BRANCH  15  18
ATOM     17  C   LIG    1       25.207 -25.029   4.942  0.00  0.00    +0.024 C 
ATOM     18  C   LIG    1       24.010 -25.716   5.609  0.00  0.00    +0.048 C 
ATOM     19  C   LIG    1       24.493 -26.955   6.366  0.00  0.00    +0.024 C 
ENDBRANCH  15  18
ENDBRANCH  14  15
ENDBRANCH  11  14
ENDBRANCH   1  11
TORSDOF 7
ENDMDL
MODEL 9
REMARK VINA RESULT:      -6.7      4.697      6.335
REMARK  Name = *****
REMARK                            x       y       z     vdW  Elec       q    Type
REMARK                         _______ _______ _______ _____ _____    ______ ____
ROOT
ATOM      1  C   LIG    1       25.568 -23.067   7.091  0.00  0.00    -0.011 A 
ATOM      2  C   LIG    1       24.166 -22.963   7.073  0.00  0.00    +0.051 A 
ATOM      3  C   LIG    1       23.383 -24.047   6.690  0.00  0.00    +0.121 A 
ATOM      4  C   LIG    1       23.961 -25.258   6.327  0.00  0.00    +0.090 A 
ATOM      5  C   LIG    1       25.347 -25.372   6.363  0.00  0.00    +0.121 A 
ATOM      6  C   LIG    1       26.150 -24.300   6.748  0.00  0.00    +0.051 A 
ENDROOT
BRANCH   3   7
ATOM      7  O   LIG    1       22.029 -23.876   6.668  0.00  0.00    -0.507 OA
ATOM      8  H   LIG    1       21.716 -23.781   7.582  0.00  0.00    +0.292 HD
ENDBRANCH   3   7
BRANCH   5   9
ATOM      9  O   LIG    1       25.888 -26.570   5.994  0.00  0.00    -0.507 OA
ATOM     10  H   LIG    1       26.676 -26.734   6.539  0.00  0.00    +0.292 HD
ENDBRANCH   5   9
BRANCH   1  11
ATOM     11  C   LIG    1       26.408 -21.856   7.453  0.00  0.00    +0.158 C 
BRANCH  11  12
ATOM     12  O   LIG    1       26.411 -21.683   8.879  0.00  0.00    -0.386 OA
ATOM     13  H   LIG    1       27.068 -20.988   9.055  0.00  0.00    +0.210 HD
ENDBRANCH  11  12
BRANCH  11  14
ATOM     14  C   LIG    1       25.929 -20.548   6.772  0.00  0.00    +0.117 C 
BRANCH  14  15
ATOM     15  N   LIG    1       26.245 -20.569   5.329  0.00  0.00    -0.311 NA
ATOM     16  H   LIG    1       26.964 -19.859   5.168  0.00  0.00    +0.122 HD
BRANCH  15  18
ATOM     17  C   LIG    1       23.840 -20.173   5.334  0.00  0.00    +0.024 C 
ATOM     18  C   LIG    1       25.089 -20.325   4.459  0.00  0.00    +0.048 C 
ATOM     19  C   LIG    1       25.272 -19.064   3.612  0.00  0.00    +0.024 C 
ENDBRANCH  15  18
ENDBRANCH  14  15
ENDBRANCH  11  14
ENDBRANCH   1  11
TORSDOF 7
ENDMDL
