MODEL 1
REMARK VINA RESULT:      -8.2      0.000      0.000
REMARK  Name = *****
REMARK                            x       y       z     vdW  Elec       q    Type
REMARK                         _______ _______ _______ _____ _____    ______ ____
ROOT
ATOM      1  C   LIG    1       26.392 -20.639   8.349  0.00  0.00    +0.341 C 
ATOM      2  O   LIG    1       25.810 -20.483   9.421  0.00  0.00    -0.247 OA
ENDROOT
BRANCH   1   3
ATOM      3  O   LIG    1       27.550 -20.022   7.981  0.00  0.00    -0.459 OA
BRANCH   3  11
ATOM      4  C   LIG    1       28.848 -18.271   5.496  0.00  0.00    +0.007 C 
ATOM      5  C   LIG    1       29.800 -19.429   5.795  0.00  0.00    -0.010 C 
ATOM      6  C   LIG    1       30.902 -19.084   6.811  0.00  0.00    +0.010 C 
ATOM      7  C   LIG    1       30.530 -19.207   8.305  0.00  0.00    -0.031 C 
ATOM      8  C   LIG    1       31.834 -19.188   9.137  0.00  0.00    +0.011 C 
ATOM      9  C   LIG    1       29.693 -18.006   8.782  0.00  0.00    +0.011 C 
ATOM     10  C   LIG    1       29.818 -20.555   8.567  0.00  0.00    +0.051 C 
ATOM     11  C   LIG    1       28.652 -20.871   7.622  0.00  0.00    +0.177 C 
ATOM     12  C   LIG    1       29.060 -20.725   6.152  0.00  0.00    +0.048 C 
ENDBRANCH   3  11
ENDBRANCH   1   3
BRANCH   1  13
ATOM     13  C   LIG    1       25.879 -21.556   7.230  0.00  0.00    +0.253 C 
BRANCH  13  14
ATOM     14  C   LIG    1       24.983 -20.824   6.248  0.00  0.00    -0.008 A 
ATOM     15  C   LIG    1       23.618 -20.623   6.518  0.00  0.00    +0.007 A 
ATOM     16  C   LIG    1       22.795 -19.971   5.597  0.00  0.00    +0.000 A 
ATOM     17  C   LIG    1       23.323 -19.509   4.395  0.00  0.00    +0.000 A 
ATOM     18  C   LIG    1       24.674 -19.695   4.113  0.00  0.00    +0.000 A 
ATOM     19  C   LIG    1       25.500 -20.349   5.033  0.00  0.00    +0.007 A 
ENDBRANCH  13  14
BRANCH  13  20
ATOM     20  O   LIG    1       25.147 -22.664   7.758  0.00  0.00    -0.376 OA
ATOM     21  H   LIG    1       24.674 -23.059   7.003  0.00  0.00    +0.211 HD
ENDBRANCH  13  20
ENDBRANCH   1  13
TORSDOF 5
ENDMDL
MODEL 2
REMARK VINA RESULT:      -8.1      1.707      6.415
REMARK  Name = *****
REMARK                            x       y       z     vdW  Elec       q    Type
REMARK                         _______ _______ _______ _____ _____    ______ ____
ROOT
ATOM      1  C   LIG    1       26.720 -20.522   7.645  0.00  0.00    +0.341 C 
ATOM      2  O   LIG    1       26.741 -20.338   8.861  0.00  0.00    -0.247 OA
ENDROOT
BRANCH   1   3
ATOM      3  O   LIG    1       25.604 -20.507   6.863  0.00  0.00    -0.459 OA
BRANCH   3  11
ATOM      4  C   LIG    1       23.541 -20.187   4.300  0.00  0.00    +0.007 C 
ATOM      5  C   LIG    1       22.724 -20.679   5.496  0.00  0.00    -0.010 C 
ATOM      6  C   LIG    1       22.610 -22.210   5.587  0.00  0.00    +0.010 C 
ATOM      7  C   LIG    1       23.778 -22.951   6.276  0.00  0.00    -0.031 C 
ATOM      8  C   LIG    1       23.319 -24.392   6.598  0.00  0.00    +0.011 C 
ATOM      9  C   LIG    1       24.996 -23.081   5.344  0.00  0.00    +0.011 C 
ATOM     10  C   LIG    1       24.136 -22.256   7.611  0.00  0.00    +0.051 C 
ATOM     11  C   LIG    1       24.348 -20.740   7.519  0.00  0.00    +0.177 C 
ATOM     12  C   LIG    1       23.174 -20.045   6.819  0.00  0.00    +0.048 C 
ENDBRANCH   3  11
ENDBRANCH   1   3
BRANCH   1  13
ATOM     13  C   LIG    1       27.971 -20.825   6.810  0.00  0.00    +0.253 C 
BRANCH  13  14
ATOM     14  C   LIG    1       29.234 -20.259   7.434  0.00  0.00    -0.008 A 
ATOM     15  C   LIG    1       30.107 -21.073   8.175  0.00  0.00    +0.007 A 
ATOM     16  C   LIG    1       31.254 -20.538   8.768  0.00  0.00    +0.000 A 
ATOM     17  C   LIG    1       31.544 -19.184   8.628  0.00  0.00    +0.000 A 
ATOM     18  C   LIG    1       30.691 -18.363   7.893  0.00  0.00    +0.000 A 
ATOM     19  C   LIG    1       29.543 -18.896   7.300  0.00  0.00    +0.007 A 
ENDBRANCH  13  14
BRANCH  13  20
ATOM     20  O   LIG    1       27.855 -20.298   5.487  0.00  0.00    -0.376 OA
ATOM     21  H   LIG    1       28.746 -19.986   5.242  0.00  0.00    +0.211 HD
ENDBRANCH  13  20
ENDBRANCH   1  13
TORSDOF 5
ENDMDL
MODEL 3
REMARK VINA RESULT:      -8.0      1.809      6.406
REMARK  Name = *****
REMARK                            x       y       z     vdW  Elec       q    Type
REMARK                         _______ _______ _______ _____ _____    ______ ____
ROOT
ATOM      1  C   LIG    1       27.711 -20.248   6.225  0.00  0.00    +0.341 C 
ATOM      2  O   LIG    1       28.036 -19.354   5.445  0.00  0.00    -0.247 OA
ENDROOT
BRANCH   1   3
ATOM      3  O   LIG    1       26.514 -20.900   6.226  0.00  0.00    -0.459 OA
BRANCH   3  11
ATOM      4  C   LIG    1       23.280 -20.235   6.075  0.00  0.00    +0.007 C 
ATOM      5  C   LIG    1       23.515 -21.119   7.299  0.00  0.00    -0.010 C 
ATOM      6  C   LIG    1       23.370 -22.625   7.019  0.00  0.00    +0.010 C 
ATOM      7  C   LIG    1       24.613 -23.346   6.451  0.00  0.00    -0.031 C 
ATOM      8  C   LIG    1       24.398 -24.871   6.590  0.00  0.00    +0.011 C 
ATOM      9  C   LIG    1       24.792 -23.068   4.948  0.00  0.00    +0.011 C 
ATOM     10  C   LIG    1       25.869 -22.966   7.269  0.00  0.00    +0.051 C 
ATOM     11  C   LIG    1       26.082 -21.462   7.476  0.00  0.00    +0.177 C 
ATOM     12  C   LIG    1       24.823 -20.783   8.028  0.00  0.00    +0.048 C 
ENDBRANCH   3  11
ENDBRANCH   1   3
BRANCH   1  13
ATOM     13  C   LIG    1       28.615 -20.759   7.355  0.00  0.00    +0.253 C 
BRANCH  13  14
ATOM     14  C   LIG    1       29.594 -19.703   7.834  0.00  0.00    -0.008 A 
ATOM     15  C   LIG    1       30.909 -19.653   7.342  0.00  0.00    +0.007 A 
ATOM     16  C   LIG    1       31.812 -18.694   7.808  0.00  0.00    +0.000 A 
ATOM     17  C   LIG    1       31.413 -17.771   8.771  0.00  0.00    +0.000 A 
ATOM     18  C   LIG    1       30.112 -17.804   9.267  0.00  0.00    +0.000 A 
ATOM     19  C   LIG    1       29.207 -18.764   8.803  0.00  0.00    +0.007 A 
ENDBRANCH  13  14
BRANCH  13  20
ATOM     20  O   LIG    1       29.364 -21.905   6.945  0.00  0.00    -0.376 OA
ATOM     21  H   LIG    1       28.830 -22.345   6.258  0.00  0.00    +0.211 HD
ENDBRANCH  13  20
ENDBRANCH   1  13
TORSDOF 5
ENDMDL
MODEL 4
REMARK VINA RESULT:      -7.9      1.599      2.482
REMARK  Name = *****
REMARK                            x       y       z     vdW  Elec       q    Type
REMARK                         _______ _______ _______ _____ _____    ______ ____
ROOT
ATOM      1  C   LIG    1       26.218 -20.544   8.317  0.00  0.00    +0.341 C 
ATOM      2  O   LIG    1       25.964 -20.868   9.476  0.00  0.00    -0.247 OA
ENDROOT
BRANCH   1   3
ATOM      3  O   LIG    1       27.390 -19.998   7.887  0.00  0.00    -0.459 OA
BRANCH   3  11
ATOM      4  C   LIG    1       28.892 -18.364   5.438  0.00  0.00    +0.007 C 
ATOM      5  C   LIG    1       29.768 -19.563   5.801  0.00  0.00    -0.010 C 
ATOM      6  C   LIG    1       30.838 -19.256   6.863  0.00  0.00    +0.010 C 
ATOM      7  C   LIG    1       30.390 -19.331   8.339  0.00  0.00    -0.031 C 
ATOM      8  C   LIG    1       31.653 -19.362   9.231  0.00  0.00    +0.011 C 
ATOM      9  C   LIG    1       29.596 -18.080   8.755  0.00  0.00    +0.011 C 
ATOM     10  C   LIG    1       29.598 -20.636   8.590  0.00  0.00    +0.051 C 
ATOM     11  C   LIG    1       28.462 -20.909   7.596  0.00  0.00    +0.177 C 
ATOM     12  C   LIG    1       28.945 -20.813   6.144  0.00  0.00    +0.048 C 
ENDBRANCH   3  11
ENDBRANCH   1   3
BRANCH   1  13
ATOM     13  C   LIG    1       25.222 -20.688   7.158  0.00  0.00    +0.253 C 
BRANCH  13  14
ATOM     14  C   LIG    1       24.768 -22.122   6.960  0.00  0.00    -0.008 A 
ATOM     15  C   LIG    1       25.696 -23.158   6.755  0.00  0.00    +0.007 A 
ATOM     16  C   LIG    1       25.268 -24.471   6.548  0.00  0.00    +0.000 A 
ATOM     17  C   LIG    1       23.908 -24.769   6.544  0.00  0.00    +0.000 A 
ATOM     18  C   LIG    1       22.975 -23.756   6.750  0.00  0.00    +0.000 A 
ATOM     19  C   LIG    1       23.401 -22.440   6.956  0.00  0.00    +0.007 A 
ENDBRANCH  13  14
BRANCH  13  20
ATOM     20  O   LIG    1       25.784 -20.226   5.927  0.00  0.00    -0.376 OA
ATOM     21  H   LIG    1       26.015 -21.026   5.420  0.00  0.00    +0.211 HD
ENDBRANCH  13  20
ENDBRANCH   1  13
TORSDOF 5
ENDMDL
MODEL 5
REMARK VINA RESULT:      -7.6      4.773      7.093
REMARK  Name = *****
REMARK                            x       y       z     vdW  Elec       q    Type
REMARK                         _______ _______ _______ _____ _____    ______ ____
ROOT
ATOM      1  C   LIG    1       25.815 -25.366   5.997  0.00  0.00    +0.341 C 
ATOM      2  O   LIG    1       26.898 -25.897   5.754  0.00  0.00    -0.247 OA
ENDROOT
BRANCH   1   3
ATOM      3  O   LIG    1       25.591 -24.023   6.069  0.00  0.00    -0.459 OA
BRANCH   3  11
ATOM      4  C   LIG    1       27.505 -21.475   6.946  0.00  0.00    +0.007 C 
ATOM      5  C   LIG    1       26.247 -21.431   7.813  0.00  0.00    -0.010 C 
ATOM      6  C   LIG    1       25.114 -20.571   7.226  0.00  0.00    +0.010 C 
ATOM      7  C   LIG    1       24.191 -21.253   6.192  0.00  0.00    -0.031 C 
ATOM      8  C   LIG    1       22.930 -20.376   6.009  0.00  0.00    +0.011 C 
ATOM      9  C   LIG    1       24.860 -21.345   4.808  0.00  0.00    +0.011 C 
ATOM     10  C   LIG    1       23.738 -22.637   6.714  0.00  0.00    +0.051 C 
ATOM     11  C   LIG    1       24.867 -23.546   7.214  0.00  0.00    +0.177 C 
ATOM     12  C   LIG    1       25.765 -22.828   8.228  0.00  0.00    +0.048 C 
ENDBRANCH   3  11
ENDBRANCH   1   3
BRANCH   1  13
ATOM     13  C   LIG    1       24.529 -26.153   6.285  0.00  0.00    +0.253 C 
BRANCH  13  14
ATOM     14  C   LIG    1       24.776 -27.646   6.389  0.00  0.00    -0.008 A 
ATOM     15  C   LIG    1       24.632 -28.487   5.272  0.00  0.00    +0.007 A 
ATOM     16  C   LIG    1       24.836 -29.865   5.382  0.00  0.00    +0.000 A 
ATOM     17  C   LIG    1       25.188 -30.421   6.609  0.00  0.00    +0.000 A 
ATOM     18  C   LIG    1       25.339 -29.602   7.726  0.00  0.00    +0.000 A 
ATOM     19  C   LIG    1       25.134 -28.223   7.618  0.00  0.00    +0.007 A 
ENDBRANCH  13  14
BRANCH  13  20
ATOM     20  O   LIG    1       23.546 -25.934   5.271  0.00  0.00    -0.376 OA
ATOM     21  H   LIG    1       24.001 -26.073   4.420  0.00  0.00    +0.211 HD
ENDBRANCH  13  20
ENDBRANCH   1  13
TORSDOF 5
ENDMDL
MODEL 6
REMARK VINA RESULT:      -7.2      4.482      6.934
REMARK  Name = *****
REMARK                            x       y       z     vdW  Elec       q    Type
REMARK                         _______ _______ _______ _____ _____    ______ ____
ROOT
ATOM      1  C   LIG    1       24.385 -24.937   6.273  0.00  0.00    +0.341 C 
ATOM      2  O   LIG    1       23.186 -25.149   6.451  0.00  0.00    -0.247 OA
ENDROOT
BRANCH   1   3
ATOM      3  O   LIG    1       25.032 -23.772   6.557  0.00  0.00    -0.459 OA
BRANCH   3  11
ATOM      4  C   LIG    1       27.268 -21.340   6.664  0.00  0.00    +0.007 C 
ATOM      5  C   LIG    1       26.060 -20.897   7.491  0.00  0.00    -0.010 C 
ATOM      6  C   LIG    1       25.014 -20.102   6.692  0.00  0.00    +0.010 C 
ATOM      7  C   LIG    1       23.975 -20.927   5.899  0.00  0.00    -0.031 C 
ATOM      8  C   LIG    1       22.820 -19.986   5.483  0.00  0.00    +0.011 C 
ATOM      9  C   LIG    1       24.571 -21.485   4.594  0.00  0.00    +0.011 C 
ATOM     10  C   LIG    1       23.384 -22.041   6.794  0.00  0.00    +0.051 C 
ATOM     11  C   LIG    1       24.417 -22.907   7.524  0.00  0.00    +0.177 C 
ATOM     12  C   LIG    1       25.435 -22.051   8.288  0.00  0.00    +0.048 C 
ENDBRANCH   3  11
ENDBRANCH   1   3
BRANCH   1  13
ATOM     13  C   LIG    1       25.348 -25.968   5.669  0.00  0.00    +0.253 C 
BRANCH  13  14
ATOM     14  C   LIG    1       25.115 -27.366   6.212  0.00  0.00    -0.008 A 
ATOM     15  C   LIG    1       24.328 -28.296   5.512  0.00  0.00    +0.007 A 
ATOM     16  C   LIG    1       24.096 -29.572   6.031  0.00  0.00    +0.000 A 
ATOM     17  C   LIG    1       24.648 -29.937   7.256  0.00  0.00    +0.000 A 
ATOM     18  C   LIG    1       25.434 -29.029   7.961  0.00  0.00    +0.000 A 
ATOM     19  C   LIG    1       25.666 -27.751   7.444  0.00  0.00    +0.007 A 
ENDBRANCH  13  14
BRANCH  13  20
ATOM     20  O   LIG    1       26.711 -25.617   5.919  0.00  0.00    -0.376 OA
ATOM     21  H   LIG    1       26.686 -24.815   6.473  0.00  0.00    +0.211 HD
ENDBRANCH  13  20
ENDBRANCH   1  13
TORSDOF 5
ENDMDL
MODEL 7
REMARK VINA RESULT:      -7.1      3.294      5.130
REMARK  Name = *****
REMARK                            x       y       z     vdW  Elec       q    Type
REMARK                         _______ _______ _______ _____ _____    ______ ____
ROOT
ATOM      1  C   LIG    1       24.624 -22.778   5.330  0.00  0.00    +0.341 C 
ATOM      2  O   LIG    1       24.167 -22.682   4.192  0.00  0.00    -0.247 OA
ENDROOT
BRANCH   1   3
ATOM      3  O   LIG    1       25.721 -22.119   5.800  0.00  0.00    -0.459 OA
BRANCH   3  11
ATOM      4  C   LIG    1       25.901 -22.099   9.100  0.00  0.00    +0.007 C 
ATOM      5  C   LIG    1       25.899 -20.645   8.626  0.00  0.00    -0.010 C 
ATOM      6  C   LIG    1       27.304 -20.061   8.397  0.00  0.00    +0.010 C 
ATOM      7  C   LIG    1       27.957 -20.346   7.027  0.00  0.00    -0.031 C 
ATOM      8  C   LIG    1       29.162 -19.392   6.852  0.00  0.00    +0.011 C 
ATOM      9  C   LIG    1       28.523 -21.776   6.955  0.00  0.00    +0.011 C 
ATOM     10  C   LIG    1       26.952 -20.058   5.887  0.00  0.00    +0.051 C 
ATOM     11  C   LIG    1       25.575 -20.713   6.052  0.00  0.00    +0.177 C 
ATOM     12  C   LIG    1       24.968 -20.416   7.428  0.00  0.00    +0.048 C 
ENDBRANCH   3  11
ENDBRANCH   1   3
BRANCH   1  13
ATOM     13  C   LIG    1       24.029 -23.692   6.410  0.00  0.00    +0.253 C 
BRANCH  13  14
ATOM     14  C   LIG    1       24.585 -25.102   6.346  0.00  0.00    -0.008 A 
ATOM     15  C   LIG    1       25.777 -25.445   7.007  0.00  0.00    +0.007 A 
ATOM     16  C   LIG    1       26.297 -26.738   6.921  0.00  0.00    +0.000 A 
ATOM     17  C   LIG    1       25.632 -27.709   6.176  0.00  0.00    +0.000 A 
ATOM     18  C   LIG    1       24.447 -27.388   5.518  0.00  0.00    +0.000 A 
ATOM     19  C   LIG    1       23.926 -26.093   5.601  0.00  0.00    +0.007 A 
ENDBRANCH  13  14
BRANCH  13  20
ATOM     20  O   LIG    1       22.606 -23.770   6.299  0.00  0.00    -0.376 OA
ATOM     21  H   LIG    1       22.373 -23.299   5.479  0.00  0.00    +0.211 HD
ENDBRANCH  13  20
ENDBRANCH   1  13
TORSDOF 5
ENDMDL
MODEL 8
REMARK VINA RESULT:      -6.8      1.576      6.434
REMARK  Name = *****
REMARK                            x       y       z     vdW  Elec       q    Type
REMARK                         _______ _______ _______ _____ _____    ______ ____
ROOT
ATOM      1  C   LIG    1       26.819 -20.799   7.296  0.00  0.00    +0.341 C 
ATOM      2  O   LIG    1       26.619 -20.020   8.227  0.00  0.00    -0.247 OA
ENDROOT
BRANCH   1   3
ATOM      3  O   LIG    1       25.952 -21.761   6.870  0.00  0.00    -0.459 OA
BRANCH   3  11
ATOM      4  C   LIG    1       23.301 -23.734   6.954  0.00  0.00    +0.007 C 
ATOM      5  C   LIG    1       23.370 -23.108   5.561  0.00  0.00    -0.010 C 
ATOM      6  C   LIG    1       22.576 -21.798   5.425  0.00  0.00    +0.010 C 
ATOM      7  C   LIG    1       23.292 -20.504   5.874  0.00  0.00    -0.031 C 
ATOM      8  C   LIG    1       22.501 -19.293   5.325  0.00  0.00    +0.011 C 
ATOM      9  C   LIG    1       23.297 -20.361   7.406  0.00  0.00    +0.011 C 
ATOM     10  C   LIG    1       24.718 -20.451   5.278  0.00  0.00    +0.051 C 
ATOM     11  C   LIG    1       25.559 -21.715   5.489  0.00  0.00    +0.177 C 
ATOM     12  C   LIG    1       24.809 -22.976   5.043  0.00  0.00    +0.048 C 
ENDBRANCH   3  11
ENDBRANCH   1   3
BRANCH   1  13
ATOM     13  C   LIG    1       28.112 -20.821   6.470  0.00  0.00    +0.253 C 
BRANCH  13  14
ATOM     14  C   LIG    1       29.313 -20.340   7.264  0.00  0.00    -0.008 A 
ATOM     15  C   LIG    1       29.992 -21.197   8.147  0.00  0.00    +0.007 A 
ATOM     16  C   LIG    1       31.080 -20.739   8.893  0.00  0.00    +0.000 A 
ATOM     17  C   LIG    1       31.507 -19.419   8.767  0.00  0.00    +0.000 A 
ATOM     18  C   LIG    1       30.848 -18.558   7.893  0.00  0.00    +0.000 A 
ATOM     19  C   LIG    1       29.757 -19.014   7.146  0.00  0.00    +0.007 A 
ENDBRANCH  13  14
BRANCH  13  20
ATOM     20  O   LIG    1       27.998 -20.008   5.301  0.00  0.00    -0.376 OA
ATOM     21  H   LIG    1       28.907 -19.880   4.971  0.00  0.00    +0.211 HD
ENDBRANCH  13  20
ENDBRANCH   1  13
TORSDOF 5
ENDMDL
MODEL 9
REMARK VINA RESULT:      -6.6      4.112      6.458
REMARK  Name = *****
REMARK                            x       y       z     vdW  Elec       q    Type
REMARK                         _______ _______ _______ _____ _____    ______ ____
ROOT
ATOM      1  C   LIG    1       23.356 -23.065   6.556  0.00  0.00    +0.341 C 
ATOM      2  O   LIG    1       22.532 -23.824   7.065  0.00  0.00    -0.247 OA
ENDROOT
BRANCH   1   3
ATOM      3  O   LIG    1       23.064 -21.918   5.880  0.00  0.00    -0.459 OA
BRANCH   3  11
ATOM      4  C   LIG    1       24.380 -21.338   2.904  0.00  0.00    +0.007 C 
ATOM      5  C   LIG    1       24.767 -20.175   3.818  0.00  0.00    -0.010 C 
ATOM      6  C   LIG    1       23.782 -18.995   3.777  0.00  0.00    +0.010 C 
ATOM      7  C   LIG    1       22.540 -19.097   4.690  0.00  0.00    -0.031 C 
ATOM      8  C   LIG    1       21.890 -17.697   4.790  0.00  0.00    +0.011 C 
ATOM      9  C   LIG    1       21.472 -20.030   4.092  0.00  0.00    +0.011 C 
ATOM     10  C   LIG    1       22.961 -19.530   6.114  0.00  0.00    +0.051 C 
ATOM     11  C   LIG    1       23.866 -20.765   6.179  0.00  0.00    +0.177 C 
ATOM     12  C   LIG    1       25.079 -20.628   5.251  0.00  0.00    +0.048 C 
ENDBRANCH   3  11
ENDBRANCH   1   3
BRANCH   1  13
ATOM     13  C   LIG    1       24.871 -23.313   6.588  0.00  0.00    +0.253 C 
BRANCH  13  14
ATOM     14  C   LIG    1       25.235 -24.720   6.153  0.00  0.00    -0.008 A 
ATOM     15  C   LIG    1       25.754 -25.653   7.067  0.00  0.00    +0.007 A 
ATOM     16  C   LIG    1       26.112 -26.938   6.652  0.00  0.00    +0.000 A 
ATOM     17  C   LIG    1       25.955 -27.310   5.320  0.00  0.00    +0.000 A 
ATOM     18  C   LIG    1       25.438 -26.400   4.401  0.00  0.00    +0.000 A 
ATOM     19  C   LIG    1       25.080 -25.112   4.814  0.00  0.00    +0.007 A 
ENDBRANCH  13  14
BRANCH  13  20
ATOM     20  O   LIG    1       25.407 -23.099   7.895  0.00  0.00    -0.376 OA
ATOM     21  H   LIG    1       24.662 -23.212   8.514  0.00  0.00    +0.211 HD
ENDBRANCH  13  20
ENDBRANCH   1  13
TORSDOF 5
ENDMDL
