MODEL 1
REMARK VINA RESULT:      -6.9      0.000      0.000
REMARK  Name = *****
REMARK                            x       y       z     vdW  Elec       q    Type
REMARK                         _______ _______ _______ _____ _____    ______ ____
ROOT
ATOM      1  C   LIG    1       25.352 -28.220   6.378  0.00  0.00    +0.126 C 
ATOM      2  C   LIG    1       25.973 -27.144   7.026  0.00  0.00    -0.001 C 
ATOM      3  C   LIG    1       26.410 -27.322   8.341  0.00  0.00    +0.021 C 
ATOM      4  C   LIG    1       26.091 -28.497   9.032  0.00  0.00    +0.046 C 
ATOM      5  C   LIG    1       26.509 -28.601  10.445  0.00  0.00    +0.203 C 
ATOM      6  C   LIG    1       25.866 -29.630  11.271  0.00  0.00    +0.122 C 
ATOM      7  C   LIG    1       25.070 -30.502  10.637  0.00  0.00    +0.105 C 
ATOM      8  N   LIG    1       24.772 -30.545   9.265  0.00  0.00    -0.340 NA
ATOM      9  O   LIG    1       27.316 -27.822  10.947  0.00  0.00    -0.286 OA
ATOM     10  C   LIG    1       25.327 -29.528   8.446  0.00  0.00    +0.057 C 
ATOM     11  C   LIG    1       25.104 -29.418   7.068  0.00  0.00    +0.072 C 
ENDROOT
BRANCH   1  13
ATOM     12  C   LIG    1       23.975 -28.870   4.548  0.00  0.00    +0.277 C 
ATOM     13  O   LIG    1       24.931 -27.977   5.097  0.00  0.00    -0.495 OA
ENDBRANCH   1  13
BRANCH   6  14
ATOM     14  C   LIG    1       25.974 -29.669  12.746  0.00  0.00    +0.342 C 
ATOM     15  O   LIG    1       26.143 -30.688  13.380  0.00  0.00    -0.245 OA
BRANCH  14  16
ATOM     16  O   LIG    1       25.772 -28.467  13.340  0.00  0.00    -0.477 OA
ATOM     17  H   LIG    1       25.065 -28.469  14.028  0.00  0.00    +0.295 HD
ENDBRANCH  14  16
ENDBRANCH   6  14
BRANCH   2  18
ATOM     18  C   LIG    1       26.253 -25.836   6.315  0.00  0.00    +0.076 C 
BRANCH  18  19
ATOM     19  C   LIG    1       25.229 -24.783   6.652  0.00  0.00    -0.006 C 
ATOM     20  C   LIG    1       25.638 -23.509   7.063  0.00  0.00    +0.145 C 
ATOM     21  F   LIG    1       26.947 -23.270   7.246  0.00  0.00    -0.204 F 
ATOM     22  C   LIG    1       24.708 -22.491   7.262  0.00  0.00    +0.076 C 
ATOM     23 CL   LIG    1       25.218 -20.922   7.751  0.00  0.00    -0.081 Cl
ATOM     24  C   LIG    1       23.351 -22.736   7.050  0.00  0.00    +0.023 C 
ATOM     25  C   LIG    1       22.928 -24.007   6.659  0.00  0.00    +0.002 C 
ATOM     26  C   LIG    1       23.861 -25.027   6.468  0.00  0.00    +0.007 C 
ENDBRANCH  18  19
ENDBRANCH   2  18
BRANCH   8  27
ATOM     27  C   LIG    1       23.593 -31.401   8.829  0.00  0.00    +0.115 C 
BRANCH  27  28
ATOM     28  C   LIG    1       23.937 -32.714   8.052  0.00  0.00    +0.008 C 
ATOM     29  C   LIG    1       25.422 -33.096   8.083  0.00  0.00    +0.009 C 
ATOM     30  C   LIG    1       23.503 -32.635   6.580  0.00  0.00    +0.009 C 
ENDBRANCH  27  28
BRANCH  27  31
ATOM     31  C   LIG    1       22.613 -31.624  10.008  0.00  0.00    +0.181 C 
BRANCH  31  32
ATOM     32  O   LIG    1       21.492 -30.744   9.950  0.00  0.00    -0.393 OA
ATOM     33  H   LIG    1       21.853 -29.843   9.856  0.00  0.00    +0.209 HD
ENDBRANCH  31  32
ENDBRANCH  27  31
ENDBRANCH   8  27
TORSDOF 9
ENDMDL
MODEL 2
REMARK VINA RESULT:      -6.2      3.292      5.171
REMARK  Name = *****
REMARK                            x       y       z     vdW  Elec       q    Type
REMARK                         _______ _______ _______ _____ _____    ______ ____
ROOT
ATOM      1  C   LIG    1       23.371 -31.866   8.889  0.00  0.00    +0.126 C 
ATOM      2  C   LIG    1       24.143 -30.724   9.147  0.00  0.00    -0.001 C 
ATOM      3  C   LIG    1       23.812 -29.933  10.249  0.00  0.00    +0.021 C 
ATOM      4  C   LIG    1       22.645 -30.198  10.977  0.00  0.00    +0.046 C 
ATOM      5  C   LIG    1       22.301 -29.283  12.084  0.00  0.00    +0.203 C 
ATOM      6  C   LIG    1       20.925 -29.318  12.593  0.00  0.00    +0.122 C 
ATOM      7  C   LIG    1       20.133 -30.293  12.124  0.00  0.00    +0.105 C 
ATOM      8  N   LIG    1       20.467 -31.289  11.193  0.00  0.00    -0.340 NA
ATOM      9  O   LIG    1       23.104 -28.469  12.533  0.00  0.00    -0.286 OA
ATOM     10  C   LIG    1       21.770 -31.249  10.633  0.00  0.00    +0.057 C 
ATOM     11  C   LIG    1       22.244 -32.154   9.676  0.00  0.00    +0.072 C 
ENDROOT
BRANCH   1  13
ATOM     12  C   LIG    1       22.808 -33.551   7.305  0.00  0.00    +0.277 C 
ATOM     13  O   LIG    1       23.735 -32.590   7.785  0.00  0.00    -0.495 OA
ENDBRANCH   1  13
BRANCH   6  14
ATOM     14  C   LIG    1       20.367 -28.283  13.491  0.00  0.00    +0.342 C 
ATOM     15  O   LIG    1       19.865 -28.528  14.566  0.00  0.00    -0.245 OA
BRANCH  14  16
ATOM     16  O   LIG    1       20.378 -27.036  12.959  0.00  0.00    -0.477 OA
ATOM     17  H   LIG    1       20.214 -26.315  13.613  0.00  0.00    +0.295 HD
ENDBRANCH  14  16
ENDBRANCH   6  14
BRANCH   2  18
ATOM     18  C   LIG    1       25.363 -30.380   8.317  0.00  0.00    +0.076 C 
BRANCH  18  19
ATOM     19  C   LIG    1       25.066 -29.308   7.300  0.00  0.00    -0.006 C 
ATOM     20  C   LIG    1       25.577 -28.017   7.469  0.00  0.00    +0.145 C 
ATOM     21  F   LIG    1       26.249 -27.722   8.594  0.00  0.00    -0.204 F 
ATOM     22  C   LIG    1       25.412 -27.050   6.480  0.00  0.00    +0.076 C 
ATOM     23 CL   LIG    1       26.056 -25.467   6.686  0.00  0.00    -0.081 Cl
ATOM     24  C   LIG    1       24.733 -27.365   5.303  0.00  0.00    +0.023 C 
ATOM     25  C   LIG    1       24.201 -28.644   5.130  0.00  0.00    +0.002 C 
ATOM     26  C   LIG    1       24.361 -29.608   6.126  0.00  0.00    +0.007 C 
ENDBRANCH  18  19
ENDBRANCH   2  18
BRANCH   8  27
ATOM     27  C   LIG    1       19.324 -32.072  10.563  0.00  0.00    +0.115 C 
BRANCH  27  28
ATOM     28  C   LIG    1       19.075 -33.511  11.123  0.00  0.00    +0.008 C 
ATOM     29  C   LIG    1       17.605 -33.825  11.426  0.00  0.00    +0.009 C 
ATOM     30  C   LIG    1       19.884 -33.771  12.403  0.00  0.00    +0.009 C 
ENDBRANCH  27  28
BRANCH  27  31
ATOM     31  C   LIG    1       18.040 -31.208  10.497  0.00  0.00    +0.181 C 
BRANCH  31  32
ATOM     32  O   LIG    1       17.962 -30.449   9.292  0.00  0.00    -0.393 OA
ATOM     33  H   LIG    1       17.327 -30.913   8.715  0.00  0.00    +0.209 HD
ENDBRANCH  31  32
ENDBRANCH  27  31
ENDBRANCH   8  27
TORSDOF 9
ENDMDL
MODEL 3
REMARK VINA RESULT:      -6.1      3.293      5.922
REMARK  Name = *****
REMARK                            x       y       z     vdW  Elec       q    Type
REMARK                         _______ _______ _______ _____ _____    ______ ____
ROOT
ATOM      1  C   LIG    1       24.555 -31.130   9.703  0.00  0.00    +0.126 C 
ATOM      2  C   LIG    1       25.167 -29.993  10.249  0.00  0.00    -0.001 C 
ATOM      3  C   LIG    1       25.434 -28.912   9.405  0.00  0.00    +0.021 C 
ATOM      4  C   LIG    1       25.232 -29.034   8.025  0.00  0.00    +0.046 C 
ATOM      5  C   LIG    1       25.605 -27.889   7.170  0.00  0.00    +0.203 C 
ATOM      6  C   LIG    1       25.759 -28.135   5.731  0.00  0.00    +0.122 C 
ATOM      7  C   LIG    1       25.388 -29.342   5.283  0.00  0.00    +0.105 C 
ATOM      8  N   LIG    1       24.870 -30.410   6.034  0.00  0.00    -0.340 NA
ATOM      9  O   LIG    1       25.847 -26.778   7.635  0.00  0.00    -0.286 OA
ATOM     10  C   LIG    1       24.766 -30.229   7.438  0.00  0.00    +0.057 C 
ATOM     11  C   LIG    1       24.295 -31.205   8.324  0.00  0.00    +0.072 C 
ENDROOT
BRANCH   1  13
ATOM     12  C   LIG    1       23.296 -33.073  10.256  0.00  0.00    +0.277 C 
ATOM     13  O   LIG    1       24.335 -32.162  10.577  0.00  0.00    -0.495 OA
ENDBRANCH   1  13
BRANCH   6  14
ATOM     14  C   LIG    1       26.391 -27.168   4.807  0.00  0.00    +0.342 C 
ATOM     15  O   LIG    1       25.773 -26.325   4.193  0.00  0.00    -0.245 OA
BRANCH  14  16
ATOM     16  O   LIG    1       27.720 -27.370   4.631  0.00  0.00    -0.477 OA
ATOM     17  H   LIG    1       27.970 -27.652   3.719  0.00  0.00    +0.295 HD
ENDBRANCH  14  16
ENDBRANCH   6  14
BRANCH   2  18
ATOM     18  C   LIG    1       25.464 -29.879  11.730  0.00  0.00    +0.076 C 
BRANCH  18  19
ATOM     19  C   LIG    1       24.593 -28.847  12.400  0.00  0.00    -0.006 C 
ATOM     20  C   LIG    1       25.158 -27.674  12.912  0.00  0.00    +0.145 C 
ATOM     21  F   LIG    1       26.493 -27.526  12.887  0.00  0.00    -0.204 F 
ATOM     22  C   LIG    1       24.352 -26.660  13.425  0.00  0.00    +0.076 C 
ATOM     23 CL   LIG    1       25.052 -25.212  14.039  0.00  0.00    -0.081 Cl
ATOM     24  C   LIG    1       22.965 -26.807  13.429  0.00  0.00    +0.023 C 
ATOM     25  C   LIG    1       22.390 -27.980  12.939  0.00  0.00    +0.002 C 
ATOM     26  C   LIG    1       23.200 -28.998  12.433  0.00  0.00    +0.007 C 
ENDBRANCH  18  19
ENDBRANCH   2  18
BRANCH   8  27
ATOM     27  C   LIG    1       24.839 -31.781   5.377  0.00  0.00    +0.115 C 
BRANCH  27  28
ATOM     28  C   LIG    1       26.149 -32.631   5.479  0.00  0.00    +0.008 C 
ATOM     29  C   LIG    1       26.658 -33.172   4.137  0.00  0.00    +0.009 C 
ATOM     30  C   LIG    1       25.979 -33.824   6.432  0.00  0.00    +0.009 C 
ENDBRANCH  27  28
BRANCH  27  31
ATOM     31  C   LIG    1       23.568 -32.561   5.796  0.00  0.00    +0.181 C 
BRANCH  31  32
ATOM     32  O   LIG    1       22.940 -33.202   4.688  0.00  0.00    -0.393 OA
ATOM     33  H   LIG    1       23.261 -32.747   3.888  0.00  0.00    +0.209 HD
ENDBRANCH  31  32
ENDBRANCH  27  31
ENDBRANCH   8  27
TORSDOF 9
ENDMDL
MODEL 4
REMARK VINA RESULT:      -6.1      3.427      5.351
REMARK  Name = *****
REMARK                            x       y       z     vdW  Elec       q    Type
REMARK                         _______ _______ _______ _____ _____    ______ ____
ROOT
ATOM      1  C   LIG    1       23.223 -30.384  10.243  0.00  0.00    +0.126 C 
ATOM      2  C   LIG    1       24.541 -29.977   9.998  0.00  0.00    -0.001 C 
ATOM      3  C   LIG    1       25.209 -29.255  10.989  0.00  0.00    +0.021 C 
ATOM      4  C   LIG    1       24.519 -28.823  12.128  0.00  0.00    +0.046 C 
ATOM      5  C   LIG    1       25.252 -27.995  13.106  0.00  0.00    +0.203 C 
ATOM      6  C   LIG    1       24.462 -27.234  14.082  0.00  0.00    +0.122 C 
ATOM      7  C   LIG    1       23.145 -27.478  14.113  0.00  0.00    +0.105 C 
ATOM      8  N   LIG    1       22.425 -28.380  13.313  0.00  0.00    -0.340 NA
ATOM      9  O   LIG    1       26.475 -27.883  13.081  0.00  0.00    -0.286 OA
ATOM     10  C   LIG    1       23.146 -29.088  12.317  0.00  0.00    +0.057 C 
ATOM     11  C   LIG    1       22.569 -30.000  11.426  0.00  0.00    +0.072 C 
ENDROOT
BRANCH   1  13
ATOM     12  C   LIG    1       22.206 -32.404   9.499  0.00  0.00    +0.277 C 
ATOM     13  O   LIG    1       22.616 -31.073   9.226  0.00  0.00    -0.495 OA
ENDBRANCH   1  13
BRANCH   6  14
ATOM     14  C   LIG    1       25.034 -26.163  14.927  0.00  0.00    +0.342 C 
ATOM     15  O   LIG    1       24.543 -25.060  15.035  0.00  0.00    -0.245 OA
BRANCH  14  16
ATOM     16  O   LIG    1       26.217 -26.493  15.500  0.00  0.00    -0.477 OA
ATOM     17  H   LIG    1       26.158 -26.699  16.463  0.00  0.00    +0.295 HD
ENDBRANCH  14  16
ENDBRANCH   6  14
BRANCH   2  18
ATOM     18  C   LIG    1       25.276 -30.370   8.732  0.00  0.00    +0.076 C 
BRANCH  18  19
ATOM     19  C   LIG    1       24.986 -29.422   7.597  0.00  0.00    -0.006 C 
ATOM     20  C   LIG    1       25.602 -28.166   7.553  0.00  0.00    +0.145 C 
ATOM     21  F   LIG    1       26.375 -27.781   8.581  0.00  0.00    -0.204 F 
ATOM     22  C   LIG    1       25.437 -27.329   6.451  0.00  0.00    +0.076 C 
ATOM     23 CL   LIG    1       26.209 -25.793   6.395  0.00  0.00    -0.081 Cl
ATOM     24  C   LIG    1       24.650 -27.742   5.375  0.00  0.00    +0.023 C 
ATOM     25  C   LIG    1       24.014 -28.983   5.415  0.00  0.00    +0.002 C 
ATOM     26  C   LIG    1       24.175 -29.816   6.523  0.00  0.00    +0.007 C 
ENDBRANCH  18  19
ENDBRANCH   2  18
BRANCH   8  27
ATOM     27  C   LIG    1       20.910 -28.244  13.291  0.00  0.00    +0.115 C 
BRANCH  27  28
ATOM     28  C   LIG    1       20.117 -29.133  14.306  0.00  0.00    +0.008 C 
ATOM     29  C   LIG    1       21.002 -29.943  15.262  0.00  0.00    +0.009 C 
ATOM     30  C   LIG    1       19.180 -30.117  13.588  0.00  0.00    +0.009 C 
ENDBRANCH  27  28
BRANCH  27  31
ATOM     31  C   LIG    1       20.494 -26.753  13.328  0.00  0.00    +0.181 C 
BRANCH  31  32
ATOM     32  O   LIG    1       19.080 -26.586  13.240  0.00  0.00    -0.393 OA
ATOM     33  H   LIG    1       18.700 -27.042  14.013  0.00  0.00    +0.209 HD
ENDBRANCH  31  32
ENDBRANCH  27  31
ENDBRANCH   8  27
TORSDOF 9
ENDMDL
MODEL 5
REMARK VINA RESULT:      -6.1      3.608      6.239
REMARK  Name = *****
REMARK                            x       y       z     vdW  Elec       q    Type
REMARK                         _______ _______ _______ _____ _____    ______ ____
ROOT
ATOM      1  C   LIG    1       26.006 -30.532   9.749  0.00  0.00    +0.126 C 
ATOM      2  C   LIG    1       26.614 -29.306  10.055  0.00  0.00    -0.001 C 
ATOM      3  C   LIG    1       26.431 -28.235   9.178  0.00  0.00    +0.021 C 
ATOM      4  C   LIG    1       25.785 -28.436   7.952  0.00  0.00    +0.046 C 
ATOM      5  C   LIG    1       25.689 -27.288   7.028  0.00  0.00    +0.203 C 
ATOM      6  C   LIG    1       25.369 -27.570   5.623  0.00  0.00    +0.122 C 
ATOM      7  C   LIG    1       25.027 -28.831   5.324  0.00  0.00    +0.105 C 
ATOM      8  N   LIG    1       24.943 -29.924   6.202  0.00  0.00    -0.340 NA
ATOM      9  O   LIG    1       25.928 -26.138   7.387  0.00  0.00    -0.286 OA
ATOM     10  C   LIG    1       25.306 -29.702   7.555  0.00  0.00    +0.057 C 
ATOM     11  C   LIG    1       25.300 -30.693   8.545  0.00  0.00    +0.072 C 
ENDROOT
BRANCH   1  13
ATOM     12  C   LIG    1       25.288 -32.602  10.680  0.00  0.00    +0.277 C 
ATOM     13  O   LIG    1       26.237 -31.547  10.639  0.00  0.00    -0.495 OA
ENDBRANCH   1  13
BRANCH   6  14
ATOM     14  C   LIG    1       25.513 -26.569   4.543  0.00  0.00    +0.342 C 
ATOM     15  O   LIG    1       26.320 -26.664   3.644  0.00  0.00    -0.245 OA
BRANCH  14  16
ATOM     16  O   LIG    1       24.722 -25.479   4.701  0.00  0.00    -0.477 OA
ATOM     17  H   LIG    1       25.028 -24.681   4.208  0.00  0.00    +0.295 HD
ENDBRANCH  14  16
ENDBRANCH   6  14
BRANCH   2  18
ATOM     18  C   LIG    1       27.386 -29.097  11.343  0.00  0.00    +0.076 C 
BRANCH  18  19
ATOM     19  C   LIG    1       26.663 -28.170  12.286  0.00  0.00    -0.006 C 
ATOM     20  C   LIG    1       25.647 -28.660  13.113  0.00  0.00    +0.145 C 
ATOM     21  F   LIG    1       25.260 -29.940  12.986  0.00  0.00    -0.204 F 
ATOM     22  C   LIG    1       25.053 -27.843  14.074  0.00  0.00    +0.076 C 
ATOM     23 CL   LIG    1       23.815 -28.456  15.100  0.00  0.00    -0.081 Cl
ATOM     24  C   LIG    1       25.473 -26.521  14.219  0.00  0.00    +0.023 C 
ATOM     25  C   LIG    1       26.471 -26.014  13.387  0.00  0.00    +0.002 C 
ATOM     26  C   LIG    1       27.059 -26.832  12.421  0.00  0.00    +0.007 C 
ENDBRANCH  18  19
ENDBRANCH   2  18
BRANCH   8  27
ATOM     27  C   LIG    1       24.868 -31.313   5.588  0.00  0.00    +0.115 C 
BRANCH  27  28
ATOM     28  C   LIG    1       26.200 -32.133   5.555  0.00  0.00    +0.008 C 
ATOM     29  C   LIG    1       26.559 -32.699   4.176  0.00  0.00    +0.009 C 
ATOM     30  C   LIG    1       26.173 -33.303   6.551  0.00  0.00    +0.009 C 
ENDBRANCH  27  28
BRANCH  27  31
ATOM     31  C   LIG    1       23.674 -32.107   6.175  0.00  0.00    +0.181 C 
BRANCH  31  32
ATOM     32  O   LIG    1       22.878 -32.712   5.159  0.00  0.00    -0.393 OA
ATOM     33  H   LIG    1       22.185 -32.066   4.929  0.00  0.00    +0.209 HD
ENDBRANCH  31  32
ENDBRANCH  27  31
ENDBRANCH   8  27
TORSDOF 9
ENDMDL
MODEL 6
REMARK VINA RESULT:      -5.9      6.535     10.083
REMARK  Name = *****
REMARK                            x       y       z     vdW  Elec       q    Type
REMARK                         _______ _______ _______ _____ _____    ______ ____
ROOT
ATOM      1  C   LIG    1       28.891 -21.161   8.350  0.00  0.00    +0.126 C 
ATOM      2  C   LIG    1       29.550 -20.191   7.582  0.00  0.00    -0.001 C 
ATOM      3  C   LIG    1       28.839 -19.557   6.560  0.00  0.00    +0.021 C 
ATOM      4  C   LIG    1       27.555 -19.999   6.221  0.00  0.00    +0.046 C 
ATOM      5  C   LIG    1       26.880 -19.347   5.080  0.00  0.00    +0.203 C 
ATOM      6  C   LIG    1       25.729 -20.036   4.486  0.00  0.00    +0.122 C 
ATOM      7  C   LIG    1       25.278 -21.123   5.129  0.00  0.00    +0.105 C 
ATOM      8  N   LIG    1       25.786 -21.686   6.311  0.00  0.00    -0.340 NA
ATOM      9  O   LIG    1       27.291 -18.298   4.591  0.00  0.00    -0.286 OA
ATOM     10  C   LIG    1       26.936 -21.082   6.880  0.00  0.00    +0.057 C 
ATOM     11  C   LIG    1       27.575 -21.540   8.039  0.00  0.00    +0.072 C 
ENDROOT
BRANCH   1  13
ATOM     12  C   LIG    1       30.928 -22.236   8.951  0.00  0.00    +0.277 C 
ATOM     13  O   LIG    1       29.646 -21.757   9.325  0.00  0.00    -0.495 OA
ENDBRANCH   1  13
BRANCH   6  14
ATOM     14  C   LIG    1       25.137 -19.651   3.186  0.00  0.00    +0.342 C 
ATOM     15  O   LIG    1       24.364 -20.350   2.567  0.00  0.00    -0.245 OA
BRANCH  14  16
ATOM     16  O   LIG    1       25.613 -18.480   2.695  0.00  0.00    -0.477 OA
ATOM     17  H   LIG    1       25.647 -17.748   3.356  0.00  0.00    +0.295 HD
ENDBRANCH  14  16
ENDBRANCH   6  14
BRANCH   2  18
ATOM     18  C   LIG    1       30.970 -19.759   7.887  0.00  0.00    +0.076 C 
BRANCH  18  19
ATOM     19  C   LIG    1       31.015 -18.684   8.943  0.00  0.00    -0.006 C 
ATOM     20  C   LIG    1       31.932 -17.632   8.837  0.00  0.00    +0.145 C 
ATOM     21  F   LIG    1       32.832 -17.647   7.841  0.00  0.00    -0.204 F 
ATOM     22  C   LIG    1       31.905 -16.570   9.738  0.00  0.00    +0.076 C 
ATOM     23 CL   LIG    1       33.025 -15.271   9.595  0.00  0.00    -0.081 Cl
ATOM     24  C   LIG    1       30.955 -16.547  10.760  0.00  0.00    +0.023 C 
ATOM     25  C   LIG    1       30.047 -17.599  10.888  0.00  0.00    +0.002 C 
ATOM     26  C   LIG    1       30.081 -18.665   9.988  0.00  0.00    +0.007 C 
ENDBRANCH  18  19
ENDBRANCH   2  18
BRANCH   8  27
ATOM     27  C   LIG    1       25.335 -23.095   6.666  0.00  0.00    +0.115 C 
BRANCH  27  28
ATOM     28  C   LIG    1       23.941 -23.224   7.365  0.00  0.00    +0.008 C 
ATOM     29  C   LIG    1       22.909 -24.035   6.571  0.00  0.00    +0.009 C 
ATOM     30  C   LIG    1       23.326 -21.848   7.665  0.00  0.00    +0.009 C 
ENDBRANCH  27  28
BRANCH  27  31
ATOM     31  C   LIG    1       25.504 -24.046   5.455  0.00  0.00    +0.181 C 
BRANCH  31  32
ATOM     32  O   LIG    1       26.193 -25.245   5.804  0.00  0.00    -0.393 OA
ATOM     33  H   LIG    1       27.145 -25.045   5.740  0.00  0.00    +0.209 HD
ENDBRANCH  31  32
ENDBRANCH  27  31
ENDBRANCH   8  27
TORSDOF 9
ENDMDL
MODEL 7
REMARK VINA RESULT:      -5.9      5.164      9.481
REMARK  Name = *****
REMARK                            x       y       z     vdW  Elec       q    Type
REMARK                         _______ _______ _______ _____ _____    ______ ____
ROOT
ATOM      1  C   LIG    1       24.464 -23.453   6.854  0.00  0.00    +0.126 C 
ATOM      2  C   LIG    1       25.696 -23.971   7.277  0.00  0.00    -0.001 C 
ATOM      3  C   LIG    1       26.798 -23.114   7.320  0.00  0.00    +0.021 C 
ATOM      4  C   LIG    1       26.697 -21.816   6.806  0.00  0.00    +0.046 C 
ATOM      5  C   LIG    1       27.914 -20.978   6.804  0.00  0.00    +0.203 C 
ATOM      6  C   LIG    1       27.921 -19.790   5.943  0.00  0.00    +0.122 C 
ATOM      7  C   LIG    1       26.763 -19.467   5.351  0.00  0.00    +0.105 C 
ATOM      8  N   LIG    1       25.535 -20.140   5.454  0.00  0.00    -0.340 NA
ATOM      9  O   LIG    1       28.917 -21.283   7.444  0.00  0.00    -0.286 OA
ATOM     10  C   LIG    1       25.505 -21.328   6.229  0.00  0.00    +0.057 C 
ATOM     11  C   LIG    1       24.367 -22.124   6.408  0.00  0.00    +0.072 C 
ENDROOT
BRANCH   1  13
ATOM     12  C   LIG    1       22.114 -23.813   6.731  0.00  0.00    +0.277 C 
ATOM     13  O   LIG    1       23.426 -24.346   6.817  0.00  0.00    -0.495 OA
ENDBRANCH   1  13
BRANCH   6  14
ATOM     14  C   LIG    1       29.148 -19.026   5.628  0.00  0.00    +0.342 C 
ATOM     15  O   LIG    1       30.200 -19.176   6.211  0.00  0.00    -0.245 OA
BRANCH  14  16
ATOM     16  O   LIG    1       28.967 -18.067   4.687  0.00  0.00    -0.477 OA
ATOM     17  H   LIG    1       29.607 -18.108   3.938  0.00  0.00    +0.295 HD
ENDBRANCH  14  16
ENDBRANCH   6  14
BRANCH   2  18
ATOM     18  C   LIG    1       25.838 -25.400   7.761  0.00  0.00    +0.076 C 
BRANCH  18  19
ATOM     19  C   LIG    1       25.748 -26.388   6.627  0.00  0.00    -0.006 C 
ATOM     20  C   LIG    1       25.461 -27.733   6.886  0.00  0.00    +0.145 C 
ATOM     21  F   LIG    1       25.364 -28.147   8.159  0.00  0.00    -0.204 F 
ATOM     22  C   LIG    1       25.256 -28.632   5.841  0.00  0.00    +0.076 C 
ATOM     23 CL   LIG    1       24.888 -30.281   6.165  0.00  0.00    -0.081 Cl
ATOM     24  C   LIG    1       25.336 -28.194   4.519  0.00  0.00    +0.023 C 
ATOM     25  C   LIG    1       25.641 -26.860   4.246  0.00  0.00    +0.002 C 
ATOM     26  C   LIG    1       25.853 -25.963   5.294  0.00  0.00    +0.007 C 
ENDBRANCH  18  19
ENDBRANCH   2  18
BRANCH   8  27
ATOM     27  C   LIG    1       24.457 -19.794   4.439  0.00  0.00    +0.115 C 
BRANCH  27  28
ATOM     28  C   LIG    1       23.025 -19.522   5.009  0.00  0.00    +0.008 C 
ATOM     29  C   LIG    1       22.019 -20.652   4.755  0.00  0.00    +0.009 C 
ATOM     30  C   LIG    1       22.426 -18.224   4.445  0.00  0.00    +0.009 C 
ENDBRANCH  27  28
BRANCH  27  31
ATOM     31  C   LIG    1       24.951 -18.690   3.471  0.00  0.00    +0.181 C 
BRANCH  31  32
ATOM     32  O   LIG    1       25.624 -19.232   2.335  0.00  0.00    -0.393 OA
ATOM     33  H   LIG    1       26.363 -19.765   2.681  0.00  0.00    +0.209 HD
ENDBRANCH  31  32
ENDBRANCH  27  31
ENDBRANCH   8  27
TORSDOF 9
ENDMDL
MODEL 8
REMARK VINA RESULT:      -5.9      1.370      1.740
REMARK  Name = *****
REMARK                            x       y       z     vdW  Elec       q    Type
REMARK                         _______ _______ _______ _____ _____    ______ ____
ROOT
ATOM      1  C   LIG    1       25.025 -28.546   6.596  0.00  0.00    +0.126 C 
ATOM      2  C   LIG    1       25.857 -27.506   7.034  0.00  0.00    -0.001 C 
ATOM      3  C   LIG    1       26.362 -27.561   8.335  0.00  0.00    +0.021 C 
ATOM      4  C   LIG    1       25.917 -28.552   9.218  0.00  0.00    +0.046 C 
ATOM      5  C   LIG    1       26.423 -28.517  10.605  0.00  0.00    +0.203 C 
ATOM      6  C   LIG    1       25.692 -29.291  11.616  0.00  0.00    +0.122 C 
ATOM      7  C   LIG    1       24.721 -30.100  11.170  0.00  0.00    +0.105 C 
ATOM      8  N   LIG    1       24.314 -30.292   9.840  0.00  0.00    -0.340 NA
ATOM      9  O   LIG    1       27.379 -27.820  10.934  0.00  0.00    -0.286 OA
ATOM     10  C   LIG    1       24.956 -29.514   8.843  0.00  0.00    +0.057 C 
ATOM     11  C   LIG    1       24.646 -29.572   7.478  0.00  0.00    +0.072 C 
ENDROOT
BRANCH   1  13
ATOM     12  C   LIG    1       24.766 -29.518   4.439  0.00  0.00    +0.277 C 
ATOM     13  O   LIG    1       24.548 -28.425   5.318  0.00  0.00    -0.495 OA
ENDBRANCH   1  13
BRANCH   6  14
ATOM     14  C   LIG    1       25.909 -29.131  13.071  0.00  0.00    +0.342 C 
ATOM     15  O   LIG    1       25.400 -28.253  13.733  0.00  0.00    -0.245 OA
BRANCH  14  16
ATOM     16  O   LIG    1       26.810 -30.003  13.587  0.00  0.00    -0.477 OA
ATOM     17  H   LIG    1       27.706 -29.949  13.177  0.00  0.00    +0.295 HD
ENDBRANCH  14  16
ENDBRANCH   6  14
BRANCH   2  18
ATOM     18  C   LIG    1       26.284 -26.382   6.111  0.00  0.00    +0.076 C 
BRANCH  18  19
ATOM     19  C   LIG    1       25.666 -25.065   6.508  0.00  0.00    -0.006 C 
ATOM     20  C   LIG    1       24.295 -24.849   6.330  0.00  0.00    +0.145 C 
ATOM     21  F   LIG    1       23.560 -25.788   5.713  0.00  0.00    -0.204 F 
ATOM     22  C   LIG    1       23.690 -23.686   6.802  0.00  0.00    +0.076 C 
ATOM     23 CL   LIG    1       22.001 -23.432   6.594  0.00  0.00    -0.081 Cl
ATOM     24  C   LIG    1       24.453 -22.722   7.462  0.00  0.00    +0.023 C 
ATOM     25  C   LIG    1       25.824 -22.917   7.629  0.00  0.00    +0.002 C 
ATOM     26  C   LIG    1       26.429 -24.079   7.149  0.00  0.00    +0.007 C 
ENDBRANCH  18  19
ENDBRANCH   2  18
BRANCH   8  27
ATOM     27  C   LIG    1       22.984 -30.992   9.607  0.00  0.00    +0.115 C 
BRANCH  27  28
ATOM     28  C   LIG    1       23.044 -32.537   9.368  0.00  0.00    +0.008 C 
ATOM     29  C   LIG    1       24.227 -33.237  10.048  0.00  0.00    +0.009 C 
ATOM     30  C   LIG    1       23.095 -32.879   7.870  0.00  0.00    +0.009 C 
ENDBRANCH  27  28
BRANCH  27  31
ATOM     31  C   LIG    1       21.952 -30.579  10.686  0.00  0.00    +0.181 C 
BRANCH  31  32
ATOM     32  O   LIG    1       20.608 -30.726  10.230  0.00  0.00    -0.393 OA
ATOM     33  H   LIG    1       20.461 -30.019   9.574  0.00  0.00    +0.209 HD
ENDBRANCH  31  32
ENDBRANCH  27  31
ENDBRANCH   8  27
TORSDOF 9
ENDMDL
MODEL 9
REMARK VINA RESULT:      -5.7      4.717      6.633
REMARK  Name = *****
REMARK                            x       y       z     vdW  Elec       q    Type
REMARK                         _______ _______ _______ _____ _____    ______ ____
ROOT
ATOM      1  C   LIG    1       21.743 -30.472  10.862  0.00  0.00    +0.126 C 
ATOM      2  C   LIG    1       21.945 -30.098  12.198  0.00  0.00    -0.001 C 
ATOM      3  C   LIG    1       23.182 -29.557  12.557  0.00  0.00    +0.021 C 
ATOM      4  C   LIG    1       24.233 -29.537  11.633  0.00  0.00    +0.046 C 
ATOM      5  C   LIG    1       25.543 -29.027  12.088  0.00  0.00    +0.203 C 
ATOM      6  C   LIG    1       26.720 -29.350  11.273  0.00  0.00    +0.122 C 
ATOM      7  C   LIG    1       26.492 -29.942  10.093  0.00  0.00    +0.105 C 
ATOM      8  N   LIG    1       25.250 -30.298   9.541  0.00  0.00    -0.340 NA
ATOM      9  O   LIG    1       25.672 -28.409  13.142  0.00  0.00    -0.286 OA
ATOM     10  C   LIG    1       24.095 -30.057  10.329  0.00  0.00    +0.057 C 
ATOM     11  C   LIG    1       22.791 -30.378   9.932  0.00  0.00    +0.072 C 
ENDROOT
BRANCH   1  13
ATOM     12  C   LIG    1       20.476 -32.390  10.244  0.00  0.00    +0.277 C 
ATOM     13  O   LIG    1       20.517 -31.011  10.578  0.00  0.00    -0.495 OA
ENDBRANCH   1  13
BRANCH   6  14
ATOM     14  C   LIG    1       28.109 -29.151  11.743  0.00  0.00    +0.342 C 
ATOM     15  O   LIG    1       29.048 -29.816  11.360  0.00  0.00    -0.245 OA
BRANCH  14  16
ATOM     16  O   LIG    1       28.227 -28.217  12.718  0.00  0.00    -0.477 OA
ATOM     17  H   LIG    1       27.445 -28.154  13.316  0.00  0.00    +0.295 HD
ENDBRANCH  14  16
ENDBRANCH   6  14
BRANCH   2  18
ATOM     18  C   LIG    1       20.839 -30.188  13.230  0.00  0.00    +0.076 C 
BRANCH  18  19
ATOM     19  C   LIG    1       20.139 -28.867  13.419  0.00  0.00    -0.006 C 
ATOM     20  C   LIG    1       18.994 -28.786  14.220  0.00  0.00    +0.145 C 
ATOM     21  F   LIG    1       18.475 -29.912  14.735  0.00  0.00    -0.204 F 
ATOM     22  C   LIG    1       18.408 -27.554  14.502  0.00  0.00    +0.076 C 
ATOM     23 CL   LIG    1       17.010 -27.458  15.500  0.00  0.00    -0.081 Cl
ATOM     24  C   LIG    1       18.963 -26.383  13.984  0.00  0.00    +0.023 C 
ATOM     25  C   LIG    1       20.092 -26.452  13.168  0.00  0.00    +0.002 C 
ATOM     26  C   LIG    1       20.674 -27.688  12.881  0.00  0.00    +0.007 C 
ENDBRANCH  18  19
ENDBRANCH   2  18
BRANCH   8  27
ATOM     27  C   LIG    1       25.255 -31.254   8.358  0.00  0.00    +0.115 C 
BRANCH  27  28
ATOM     28  C   LIG    1       25.028 -30.615   6.948  0.00  0.00    +0.008 C 
ATOM     29  C   LIG    1       24.627 -29.135   6.981  0.00  0.00    +0.009 C 
ATOM     30  C   LIG    1       23.959 -31.374   6.146  0.00  0.00    +0.009 C 
ENDBRANCH  27  28
BRANCH  27  31
ATOM     31  C   LIG    1       26.488 -32.190   8.416  0.00  0.00    +0.181 C 
BRANCH  31  32
ATOM     32  O   LIG    1       27.288 -32.100   7.239  0.00  0.00    -0.393 OA
ATOM     33  H   LIG    1       27.122 -32.914   6.729  0.00  0.00    +0.209 HD
ENDBRANCH  31  32
ENDBRANCH  27  31
ENDBRANCH   8  27
TORSDOF 9
ENDMDL
