MODEL 1
REMARK VINA RESULT:      -4.7      0.000      0.000
REMARK  Name = *****
REMARK                            x       y       z     vdW  Elec       q    Type
REMARK                         _______ _______ _______ _____ _____    ______ ____
ROOT
ATOM      1  C   LIG    1       31.671 -18.474   8.221  0.00  0.00    +0.212 C 
ENDROOT
BRANCH   1   2
ATOM      2  S   LIG    1       31.680 -17.247   9.516  0.00  0.00    +0.081 S 
ATOM      3  O   LIG    1       32.410 -17.748  10.658  0.00  0.00    -0.147 OA
ATOM      4  O   LIG    1       30.374 -16.641   9.632  0.00  0.00    -0.147 OA
BRANCH   2   5
ATOM      5  O   LIG    1       32.603 -16.148   8.776  0.00  0.00    -0.254 OA
ATOM      6  H   LIG    1       33.207 -15.761   9.447  0.00  0.00    +0.244 HD
ENDBRANCH   2   5
ENDBRANCH   1   2
BRANCH   1   7
ATOM      7  C   LIG    1       31.050 -19.763   8.732  0.00  0.00    +0.103 C 
BRANCH   7   8
ATOM      8  N   LIG    1       32.074 -20.659   9.275  0.00  0.00    -0.328 NA
ATOM      9  H   LIG    1       32.974 -20.469   8.832  0.00  0.00    +0.118 HD
ATOM     10  H   LIG    1       32.207 -20.456  10.266  0.00  0.00    +0.118 HD
ENDBRANCH   7   8
ENDBRANCH   1   7
TORSDOF 4
ENDMDL
MODEL 2
REMARK VINA RESULT:      -4.7      2.964      3.296
REMARK  Name = *****
REMARK                            x       y       z     vdW  Elec       q    Type
REMARK                         _______ _______ _______ _____ _____    ______ ____
ROOT
ATOM      1  C   LIG    1       31.622 -17.969   8.844  0.00  0.00    +0.212 C 
ENDROOT
BRANCH   1   2
ATOM      2  S   LIG    1       31.236 -19.697   8.616  0.00  0.00    +0.081 S 
ATOM      3  O   LIG    1       29.807 -19.891   8.691  0.00  0.00    -0.147 OA
ATOM      4  O   LIG    1       32.172 -20.514   9.352  0.00  0.00    -0.147 OA
BRANCH   2   5
ATOM      5  O   LIG    1       31.677 -19.821   7.068  0.00  0.00    -0.254 OA
ATOM      6  H   LIG    1       30.909 -20.171   6.563  0.00  0.00    +0.244 HD
ENDBRANCH   2   5
ENDBRANCH   1   2
BRANCH   1   7
ATOM      7  C   LIG    1       30.807 -17.403   9.994  0.00  0.00    +0.103 C 
BRANCH   7   8
ATOM      8  N   LIG    1       30.642 -18.396  11.058  0.00  0.00    -0.328 NA
ATOM      9  H   LIG    1       30.320 -17.942  11.913  0.00  0.00    +0.118 HD
ATOM     10  H   LIG    1       29.901 -19.048  10.797  0.00  0.00    +0.118 HD
ENDBRANCH   7   8
ENDBRANCH   1   7
TORSDOF 4
ENDMDL
MODEL 3
REMARK VINA RESULT:      -4.6      1.278      2.276
REMARK  Name = *****
REMARK                            x       y       z     vdW  Elec       q    Type
REMARK                         _______ _______ _______ _____ _____    ______ ____
ROOT
ATOM      1  C   LIG    1       30.532 -17.842   8.926  0.00  0.00    +0.212 C 
ENDROOT
BRANCH   1   2
ATOM      2  S   LIG    1       31.077 -17.392  10.565  0.00  0.00    +0.081 S 
ATOM      3  O   LIG    1       30.272 -16.302  11.065  0.00  0.00    -0.147 OA
ATOM      4  O   LIG    1       32.520 -17.383  10.621  0.00  0.00    -0.147 OA
BRANCH   2   5
ATOM      5  O   LIG    1       30.623 -18.740  11.329  0.00  0.00    -0.254 OA
ATOM      6  H   LIG    1       31.436 -19.218  11.605  0.00  0.00    +0.244 HD
ENDBRANCH   2   5
ENDBRANCH   1   2
BRANCH   1   7
ATOM      7  C   LIG    1       31.597 -18.680   8.238  0.00  0.00    +0.103 C 
BRANCH   7   8
ATOM      8  N   LIG    1       31.975 -19.828   9.065  0.00  0.00    -0.328 NA
ATOM      9  H   LIG    1       32.975 -20.011   8.973  0.00  0.00    +0.118 HD
ATOM     10  H   LIG    1       31.827 -19.597  10.048  0.00  0.00    +0.118 HD
ENDBRANCH   7   8
ENDBRANCH   1   7
TORSDOF 4
ENDMDL
MODEL 4
REMARK VINA RESULT:      -4.6      3.137      3.425
REMARK  Name = *****
REMARK                            x       y       z     vdW  Elec       q    Type
REMARK                         _______ _______ _______ _____ _____    ______ ____
ROOT
ATOM      1  C   LIG    1       30.232 -18.218   8.792  0.00  0.00    +0.212 C 
ENDROOT
BRANCH   1   2
ATOM      2  S   LIG    1       30.963 -19.762   8.275  0.00  0.00    +0.081 S 
ATOM      3  O   LIG    1       31.626 -19.586   7.004  0.00  0.00    -0.147 OA
ATOM      4  O   LIG    1       30.051 -20.852   8.534  0.00  0.00    -0.147 OA
BRANCH   2   5
ATOM      5  O   LIG    1       32.097 -19.865   9.420  0.00  0.00    -0.254 OA
ATOM      6  H   LIG    1       32.495 -20.762   9.370  0.00  0.00    +0.244 HD
ENDBRANCH   2   5
ENDBRANCH   1   2
BRANCH   1   7
ATOM      7  C   LIG    1       31.277 -17.352   9.472  0.00  0.00    +0.103 C 
BRANCH   7   8
ATOM      8  N   LIG    1       32.353 -17.000   8.542  0.00  0.00    -0.328 NA
ATOM      9  H   LIG    1       32.379 -15.989   8.404  0.00  0.00    +0.118 HD
ATOM     10  H   LIG    1       33.251 -17.244   8.960  0.00  0.00    +0.118 HD
ENDBRANCH   7   8
ENDBRANCH   1   7
TORSDOF 4
ENDMDL
MODEL 5
REMARK VINA RESULT:      -4.6      2.596      2.901
REMARK  Name = *****
REMARK                            x       y       z     vdW  Elec       q    Type
REMARK                         _______ _______ _______ _____ _____    ______ ____
ROOT
ATOM      1  C   LIG    1       29.980 -18.079   9.061  0.00  0.00    +0.212 C 
ENDROOT
BRANCH   1   2
ATOM      2  S   LIG    1       31.489 -18.669   8.312  0.00  0.00    +0.081 S 
ATOM      3  O   LIG    1       31.275 -18.904   6.903  0.00  0.00    -0.147 OA
ATOM      4  O   LIG    1       32.123 -19.637   9.176  0.00  0.00    -0.147 OA
BRANCH   2   5
ATOM      5  O   LIG    1       32.358 -17.317   8.467  0.00  0.00    -0.254 OA
ATOM      6  H   LIG    1       31.742 -16.554   8.408  0.00  0.00    +0.244 HD
ENDBRANCH   2   5
ENDBRANCH   1   2
BRANCH   1   7
ATOM      7  C   LIG    1       30.300 -17.294  10.322  0.00  0.00    +0.103 C 
BRANCH   7   8
ATOM      8  N   LIG    1       30.856 -18.169  11.357  0.00  0.00    -0.328 NA
ATOM      9  H   LIG    1       30.392 -17.993  12.249  0.00  0.00    +0.118 HD
ATOM     10  H   LIG    1       30.645 -19.140  11.124  0.00  0.00    +0.118 HD
ENDBRANCH   7   8
ENDBRANCH   1   7
TORSDOF 4
ENDMDL
MODEL 6
REMARK VINA RESULT:      -4.6      3.047      3.146
REMARK  Name = *****
REMARK                            x       y       z     vdW  Elec       q    Type
REMARK                         _______ _______ _______ _____ _____    ______ ____
ROOT
ATOM      1  C   LIG    1       29.703 -19.044   8.079  0.00  0.00    +0.212 C 
ENDROOT
BRANCH   1   2
ATOM      2  S   LIG    1       31.478 -18.973   8.247  0.00  0.00    +0.081 S 
ATOM      3  O   LIG    1       31.892 -19.758   9.386  0.00  0.00    -0.147 OA
ATOM      4  O   LIG    1       31.942 -17.625   8.019  0.00  0.00    -0.147 OA
BRANCH   2   5
ATOM      5  O   LIG    1       31.861 -19.793   6.910  0.00  0.00    -0.254 OA
ATOM      6  H   LIG    1       31.205 -20.517   6.802  0.00  0.00    +0.244 HD
ENDBRANCH   2   5
ENDBRANCH   1   2
BRANCH   1   7
ATOM      7  C   LIG    1       29.328 -19.288   6.627  0.00  0.00    +0.103 C 
BRANCH   7   8
ATOM      8  N   LIG    1       29.791 -18.189   5.776  0.00  0.00    -0.328 NA
ATOM      9  H   LIG    1       29.399 -17.305   6.101  0.00  0.00    +0.118 HD
ATOM     10  H   LIG    1       30.803 -18.093   5.872  0.00  0.00    +0.118 HD
ENDBRANCH   7   8
ENDBRANCH   1   7
TORSDOF 4
ENDMDL
MODEL 7
REMARK VINA RESULT:      -4.5      2.890      3.265
REMARK  Name = *****
REMARK                            x       y       z     vdW  Elec       q    Type
REMARK                         _______ _______ _______ _____ _____    ______ ____
ROOT
ATOM      1  C   LIG    1       30.458 -17.381   9.601  0.00  0.00    +0.212 C 
ENDROOT
BRANCH   1   2
ATOM      2  S   LIG    1       30.996 -18.753   8.596  0.00  0.00    +0.081 S 
ATOM      3  O   LIG    1       32.087 -19.439   9.249  0.00  0.00    -0.147 OA
ATOM      4  O   LIG    1       31.044 -18.359   7.207  0.00  0.00    -0.147 OA
BRANCH   2   5
ATOM      5  O   LIG    1       29.673 -19.668   8.740  0.00  0.00    -0.254 OA
ATOM      6  H   LIG    1       29.955 -20.562   9.034  0.00  0.00    +0.244 HD
ENDBRANCH   2   5
ENDBRANCH   1   2
BRANCH   1   7
ATOM      7  C   LIG    1       31.641 -16.489   9.937  0.00  0.00    +0.103 C 
BRANCH   7   8
ATOM      8  N   LIG    1       32.558 -16.386   8.799  0.00  0.00    -0.328 NA
ATOM      9  H   LIG    1       33.475 -16.071   9.117  0.00  0.00    +0.118 HD
ATOM     10  H   LIG    1       32.708 -17.314   8.403  0.00  0.00    +0.118 HD
ENDBRANCH   7   8
ENDBRANCH   1   7
TORSDOF 4
ENDMDL
MODEL 8
REMARK VINA RESULT:      -4.5      2.386      2.506
REMARK  Name = *****
REMARK                            x       y       z     vdW  Elec       q    Type
REMARK                         _______ _______ _______ _____ _____    ______ ____
ROOT
ATOM      1  C   LIG    1       29.773 -18.907   8.388  0.00  0.00    +0.212 C 
ENDROOT
BRANCH   1   2
ATOM      2  S   LIG    1       31.556 -18.824   8.390  0.00  0.00    +0.081 S 
ATOM      3  O   LIG    1       32.086 -19.717   9.394  0.00  0.00    -0.147 OA
ATOM      4  O   LIG    1       31.986 -17.451   8.263  0.00  0.00    -0.147 OA
BRANCH   2   5
ATOM      5  O   LIG    1       31.812 -19.492   6.942  0.00  0.00    -0.254 OA
ATOM      6  H   LIG    1       32.149 -20.403   7.086  0.00  0.00    +0.244 HD
ENDBRANCH   2   5
ENDBRANCH   1   2
BRANCH   1   7
ATOM      7  C   LIG    1       29.314 -20.164   7.670  0.00  0.00    +0.103 C 
BRANCH   7   8
ATOM      8  N   LIG    1       29.902 -21.360   8.278  0.00  0.00    -0.328 NA
ATOM      9  H   LIG    1       29.251 -22.144   8.208  0.00  0.00    +0.118 HD
ATOM     10  H   LIG    1       30.726 -21.639   7.745  0.00  0.00    +0.118 HD
ENDBRANCH   7   8
ENDBRANCH   1   7
TORSDOF 4
ENDMDL
MODEL 9
REMARK VINA RESULT:      -4.5      2.210      2.297
REMARK  Name = *****
REMARK                            x       y       z     vdW  Elec       q    Type
REMARK                         _______ _______ _______ _____ _____    ______ ____
ROOT
ATOM      1  C   LIG    1       30.293 -20.733   8.163  0.00  0.00    +0.212 C 
ENDROOT
BRANCH   1   2
ATOM      2  S   LIG    1       30.892 -19.161   8.762  0.00  0.00    +0.081 S 
ATOM      3  O   LIG    1       32.195 -19.332   9.361  0.00  0.00    -0.147 OA
ATOM      4  O   LIG    1       29.823 -18.442   9.414  0.00  0.00    -0.147 OA
BRANCH   2   5
ATOM      5  O   LIG    1       31.090 -18.439   7.331  0.00  0.00    -0.254 OA
ATOM      6  H   LIG    1       30.727 -19.035   6.640  0.00  0.00    +0.244 HD
ENDBRANCH   2   5
ENDBRANCH   1   2
BRANCH   1   7
ATOM      7  C   LIG    1       30.758 -21.849   9.083  0.00  0.00    +0.103 C 
BRANCH   7   8
ATOM      8  N   LIG    1       32.097 -22.311   8.711  0.00  0.00    -0.328 NA
ATOM      9  H   LIG    1       32.527 -21.650   8.063  0.00  0.00    +0.118 HD
ATOM     10  H   LIG    1       32.694 -22.313   9.539  0.00  0.00    +0.118 HD
ENDBRANCH   7   8
ENDBRANCH   1   7
TORSDOF 4
ENDMDL
