MODEL 1
REMARK VINA RESULT:      -7.0      0.000      0.000
REMARK  Name = *****
REMARK                            x       y       z     vdW  Elec       q    Type
REMARK                         _______ _______ _______ _____ _____    ______ ____
ROOT
ATOM      1  C   LIG    1       26.479 -19.555   4.903  0.00  0.00    +0.055 A 
ATOM      2  C   LIG    1       25.456 -20.410   5.340  0.00  0.00    +0.043 A 
ATOM      3  C   LIG    1       25.713 -21.370   6.324  0.00  0.00    +0.055 A 
ATOM      4  C   LIG    1       26.996 -21.422   6.907  0.00  0.00    +0.083 A 
ATOM      5 CL   LIG    1       27.267 -22.469   8.271  0.00  0.00    -0.080 Cl
ATOM      6  C   LIG    1       28.027 -20.547   6.493  0.00  0.00    +0.055 A 
ATOM      7  C   LIG    1       27.759 -19.628   5.474  0.00  0.00    +0.043 A 
ENDROOT
BRANCH   3   8
ATOM      8  N   LIG    1       24.731 -22.336   6.651  0.00  0.00    -0.275 N 
ATOM      9  H   LIG    1       23.958 -22.049   7.251  0.00  0.00    +0.155 HD
ATOM     10  C   LIG    1       24.570 -23.547   6.001  0.00  0.00    +0.325 C 
ATOM     11  O   LIG    1       25.199 -23.975   5.041  0.00  0.00    -0.263 OA
BRANCH  10  12
ATOM     12  C   LIG    1       23.392 -24.397   6.530  0.00  0.00    +0.393 C 
ATOM     13  O   LIG    1       22.339 -23.902   6.886  0.00  0.00    -0.240 OA
BRANCH  12  14
ATOM     14  O   LIG    1       23.685 -25.710   6.537  0.00  0.00    -0.474 OA
ATOM     15  H   LIG    1       24.034 -25.982   5.657  0.00  0.00    +0.296 HD
ENDBRANCH  12  14
ENDBRANCH  10  12
ENDBRANCH   3   8
BRANCH   6  16
ATOM     16  N   LIG    1       29.298 -20.643   7.107  0.00  0.00    -0.275 N 
ATOM     17  H   LIG    1       29.884 -21.432   6.829  0.00  0.00    +0.155 HD
ATOM     18  C   LIG    1       29.804 -19.874   8.133  0.00  0.00    +0.325 C 
ATOM     19  O   LIG    1       29.283 -18.956   8.750  0.00  0.00    -0.263 OA
BRANCH  18  20
ATOM     20  C   LIG    1       31.218 -20.312   8.568  0.00  0.00    +0.393 C 
ATOM     21  O   LIG    1       31.987 -19.550   9.123  0.00  0.00    -0.240 OA
BRANCH  20  22
ATOM     22  O   LIG    1       31.463 -21.592   8.242  0.00  0.00    -0.474 OA
ATOM     23  H   LIG    1       32.379 -21.669   7.886  0.00  0.00    +0.296 HD
ENDBRANCH  20  22
ENDBRANCH  18  20
ENDBRANCH   6  16
BRANCH   1  25
ATOM     24  N   LIG    1       26.021 -17.862   2.984  0.00  0.00    -0.191 NA
ATOM     25  C   LIG    1       26.236 -18.626   3.844  0.00  0.00    +0.099 C 
ENDBRANCH   1  25
TORSDOF 7
ENDMDL
MODEL 2
REMARK VINA RESULT:      -6.8      3.896      5.886
REMARK  Name = *****
REMARK                            x       y       z     vdW  Elec       q    Type
REMARK                         _______ _______ _______ _____ _____    ______ ____
ROOT
ATOM      1  C   LIG    1       26.932 -21.270   7.445  0.00  0.00    +0.055 A 
ATOM      2  C   LIG    1       25.821 -20.495   7.079  0.00  0.00    +0.043 A 
ATOM      3  C   LIG    1       24.622 -21.114   6.710  0.00  0.00    +0.055 A 
ATOM      4  C   LIG    1       24.535 -22.521   6.769  0.00  0.00    +0.083 A 
ATOM      5 CL   LIG    1       22.993 -23.287   6.512  0.00  0.00    -0.080 Cl
ATOM      6  C   LIG    1       25.641 -23.309   7.162  0.00  0.00    +0.055 A 
ATOM      7  C   LIG    1       26.842 -22.670   7.480  0.00  0.00    +0.043 A 
ENDROOT
BRANCH   3   8
ATOM      8  N   LIG    1       23.554 -20.346   6.188  0.00  0.00    -0.275 N 
ATOM      9  H   LIG    1       22.919 -19.898   6.849  0.00  0.00    +0.155 HD
ATOM     10  C   LIG    1       23.463 -19.910   4.878  0.00  0.00    +0.325 C 
ATOM     11  O   LIG    1       24.271 -20.074   3.972  0.00  0.00    -0.263 OA
BRANCH  10  12
ATOM     12  C   LIG    1       22.213 -19.049   4.583  0.00  0.00    +0.393 C 
ATOM     13  O   LIG    1       22.224 -17.835   4.665  0.00  0.00    -0.240 OA
BRANCH  12  14
ATOM     14  O   LIG    1       21.156 -19.803   4.233  0.00  0.00    -0.474 OA
ATOM     15  H   LIG    1       21.301 -20.192   3.339  0.00  0.00    +0.296 HD
ENDBRANCH  12  14
ENDBRANCH  10  12
ENDBRANCH   3   8
BRANCH   6  16
ATOM     16  N   LIG    1       25.502 -24.717   7.201  0.00  0.00    -0.275 N 
ATOM     17  H   LIG    1       25.477 -25.152   8.124  0.00  0.00    +0.155 HD
ATOM     18  C   LIG    1       25.519 -25.600   6.142  0.00  0.00    +0.325 C 
ATOM     19  O   LIG    1       25.668 -25.382   4.947  0.00  0.00    -0.263 OA
BRANCH  18  20
ATOM     20  C   LIG    1       25.384 -27.071   6.586  0.00  0.00    +0.393 C 
ATOM     21  O   LIG    1       24.445 -27.765   6.242  0.00  0.00    -0.240 OA
BRANCH  20  22
ATOM     22  O   LIG    1       26.399 -27.443   7.382  0.00  0.00    -0.474 OA
ATOM     23  H   LIG    1       26.275 -27.048   8.278  0.00  0.00    +0.296 HD
ENDBRANCH  20  22
ENDBRANCH  18  20
ENDBRANCH   6  16
BRANCH   1  25
ATOM     24  N   LIG    1       29.195 -20.124   8.015  0.00  0.00    -0.191 NA
ATOM     25  C   LIG    1       28.179 -20.640   7.749  0.00  0.00    +0.099 C 
ENDBRANCH   1  25
TORSDOF 7
ENDMDL
MODEL 3
REMARK VINA RESULT:      -6.3      0.992      6.390
REMARK  Name = *****
REMARK                            x       y       z     vdW  Elec       q    Type
REMARK                         _______ _______ _______ _____ _____    ______ ____
ROOT
ATOM      1  C   LIG    1       26.248 -19.355   4.588  0.00  0.00    +0.055 A 
ATOM      2  C   LIG    1       27.504 -19.336   5.212  0.00  0.00    +0.043 A 
ATOM      3  C   LIG    1       27.802 -20.253   6.225  0.00  0.00    +0.055 A 
ATOM      4  C   LIG    1       26.842 -21.229   6.564  0.00  0.00    +0.083 A 
ATOM      5 CL   LIG    1       27.278 -22.499   7.672  0.00  0.00    -0.080 Cl
ATOM      6  C   LIG    1       25.582 -21.274   5.923  0.00  0.00    +0.055 A 
ATOM      7  C   LIG    1       25.290 -20.317   4.948  0.00  0.00    +0.043 A 
ENDROOT
BRANCH   3   8
ATOM      8  N   LIG    1       29.004 -20.135   6.963  0.00  0.00    -0.275 N 
ATOM      9  H   LIG    1       29.243 -20.885   7.612  0.00  0.00    +0.155 HD
ATOM     10  C   LIG    1       30.022 -19.243   6.674  0.00  0.00    +0.325 C 
ATOM     11  O   LIG    1       30.083 -18.446   5.746  0.00  0.00    -0.263 OA
BRANCH  10  12
ATOM     12  C   LIG    1       31.245 -19.352   7.613  0.00  0.00    +0.393 C 
ATOM     13  O   LIG    1       31.891 -18.380   7.957  0.00  0.00    -0.240 OA
BRANCH  12  14
ATOM     14  O   LIG    1       31.481 -20.624   7.983  0.00  0.00    -0.474 OA
ATOM     15  H   LIG    1       32.377 -20.901   7.680  0.00  0.00    +0.296 HD
ENDBRANCH  12  14
ENDBRANCH  10  12
ENDBRANCH   3   8
BRANCH   6  16
ATOM     16  N   LIG    1       24.653 -22.271   6.304  0.00  0.00    -0.275 N 
ATOM     17  H   LIG    1       24.056 -22.061   7.106  0.00  0.00    +0.155 HD
ATOM     18  C   LIG    1       24.531 -23.550   5.807  0.00  0.00    +0.325 C 
ATOM     19  O   LIG    1       25.190 -24.120   4.947  0.00  0.00    -0.263 OA
BRANCH  18  20
ATOM     20  C   LIG    1       23.424 -24.363   6.508  0.00  0.00    +0.393 C 
ATOM     21  O   LIG    1       22.423 -23.837   6.958  0.00  0.00    -0.240 OA
BRANCH  20  22
ATOM     22  O   LIG    1       23.726 -25.671   6.560  0.00  0.00    -0.474 OA
ATOM     23  H   LIG    1       24.564 -25.794   7.066  0.00  0.00    +0.296 HD
ENDBRANCH  20  22
ENDBRANCH  18  20
ENDBRANCH   6  16
BRANCH   1  25
ATOM     24  N   LIG    1       25.652 -17.550   2.815  0.00  0.00    -0.191 NA
ATOM     25  C   LIG    1       25.917 -18.370   3.607  0.00  0.00    +0.099 C 
ENDBRANCH   1  25
TORSDOF 7
ENDMDL
MODEL 4
REMARK VINA RESULT:      -6.3      3.837      5.612
REMARK  Name = *****
REMARK                            x       y       z     vdW  Elec       q    Type
REMARK                         _______ _______ _______ _____ _____    ______ ____
ROOT
ATOM      1  C   LIG    1       27.185 -21.281   7.297  0.00  0.00    +0.055 A 
ATOM      2  C   LIG    1       27.055 -22.676   7.380  0.00  0.00    +0.043 A 
ATOM      3  C   LIG    1       25.845 -23.292   7.046  0.00  0.00    +0.055 A 
ATOM      4  C   LIG    1       24.782 -22.494   6.572  0.00  0.00    +0.083 A 
ATOM      5 CL   LIG    1       23.348 -23.268   5.960  0.00  0.00    -0.080 Cl
ATOM      6  C   LIG    1       24.911 -21.091   6.459  0.00  0.00    +0.055 A 
ATOM      7  C   LIG    1       26.115 -20.494   6.844  0.00  0.00    +0.043 A 
ENDROOT
BRANCH   3   8
ATOM      8  N   LIG    1       25.661 -24.675   7.280  0.00  0.00    -0.275 N 
ATOM      9  H   LIG    1       25.226 -24.959   8.158  0.00  0.00    +0.155 HD
ATOM     10  C   LIG    1       25.751 -25.657   6.309  0.00  0.00    +0.325 C 
ATOM     11  O   LIG    1       25.965 -25.514   5.111  0.00  0.00    -0.263 OA
BRANCH  10  12
ATOM     12  C   LIG    1       25.461 -27.086   6.825  0.00  0.00    +0.393 C 
ATOM     13  O   LIG    1       24.466 -27.706   6.501  0.00  0.00    -0.240 OA
BRANCH  12  14
ATOM     14  O   LIG    1       26.430 -27.528   7.647  0.00  0.00    -0.474 OA
ATOM     15  H   LIG    1       26.465 -28.512   7.627  0.00  0.00    +0.296 HD
ENDBRANCH  12  14
ENDBRANCH  10  12
ENDBRANCH   3   8
BRANCH   6  16
ATOM     16  N   LIG    1       23.814 -20.336   5.982  0.00  0.00    -0.275 N 
ATOM     17  H   LIG    1       23.009 -20.249   6.606  0.00  0.00    +0.155 HD
ATOM     18  C   LIG    1       23.636 -19.801   4.724  0.00  0.00    +0.325 C 
ATOM     19  O   LIG    1       24.361 -19.860   3.741  0.00  0.00    -0.263 OA
BRANCH  18  20
ATOM     20  C   LIG    1       22.282 -19.078   4.567  0.00  0.00    +0.393 C 
ATOM     21  O   LIG    1       22.189 -17.866   4.603  0.00  0.00    -0.240 OA
BRANCH  20  22
ATOM     22  O   LIG    1       21.271 -19.949   4.408  0.00  0.00    -0.474 OA
ATOM     23  H   LIG    1       20.560 -19.748   5.061  0.00  0.00    +0.296 HD
ENDBRANCH  20  22
ENDBRANCH  18  20
ENDBRANCH   6  16
BRANCH   1  25
ATOM     24  N   LIG    1       29.379 -20.112   8.055  0.00  0.00    -0.191 NA
ATOM     25  C   LIG    1       28.397 -20.646   7.710  0.00  0.00    +0.099 C 
ENDBRANCH   1  25
TORSDOF 7
ENDMDL
MODEL 5
REMARK VINA RESULT:      -6.1      2.054      2.597
REMARK  Name = *****
REMARK                            x       y       z     vdW  Elec       q    Type
REMARK                         _______ _______ _______ _____ _____    ______ ____
ROOT
ATOM      1  C   LIG    1       23.837 -20.722   5.505  0.00  0.00    +0.055 A 
ATOM      2  C   LIG    1       23.669 -22.057   5.905  0.00  0.00    +0.043 A 
ATOM      3  C   LIG    1       24.771 -22.812   6.319  0.00  0.00    +0.055 A 
ATOM      4  C   LIG    1       26.037 -22.194   6.381  0.00  0.00    +0.083 A 
ATOM      5 CL   LIG    1       27.371 -23.060   7.087  0.00  0.00    -0.080 Cl
ATOM      6  C   LIG    1       26.213 -20.842   6.005  0.00  0.00    +0.055 A 
ATOM      7  C   LIG    1       25.105 -20.122   5.550  0.00  0.00    +0.043 A 
ENDROOT
BRANCH   3   8
ATOM      8  N   LIG    1       24.631 -24.198   6.569  0.00  0.00    -0.275 N 
ATOM      9  H   LIG    1       24.149 -24.485   7.421  0.00  0.00    +0.155 HD
ATOM     10  C   LIG    1       24.832 -25.193   5.629  0.00  0.00    +0.325 C 
ATOM     11  O   LIG    1       25.123 -25.063   4.446  0.00  0.00    -0.263 OA
BRANCH  10  12
ATOM     12  C   LIG    1       24.569 -26.624   6.154  0.00  0.00    +0.393 C 
ATOM     13  O   LIG    1       25.163 -27.086   7.110  0.00  0.00    -0.240 OA
BRANCH  12  14
ATOM     14  O   LIG    1       23.626 -27.257   5.433  0.00  0.00    -0.474 OA
ATOM     15  H   LIG    1       23.832 -28.219   5.383  0.00  0.00    +0.296 HD
ENDBRANCH  12  14
ENDBRANCH  10  12
ENDBRANCH   3   8
BRANCH   6  16
ATOM     16  N   LIG    1       27.505 -20.270   6.081  0.00  0.00    -0.275 N 
ATOM     17  H   LIG    1       28.037 -20.217   5.212  0.00  0.00    +0.155 HD
ATOM     18  C   LIG    1       28.195 -19.883   7.210  0.00  0.00    +0.325 C 
ATOM     19  O   LIG    1       27.868 -19.953   8.387  0.00  0.00    -0.263 OA
BRANCH  18  20
ATOM     20  C   LIG    1       29.605 -19.342   6.895  0.00  0.00    +0.393 C 
ATOM     21  O   LIG    1       29.778 -18.255   6.377  0.00  0.00    -0.240 OA
BRANCH  20  22
ATOM     22  O   LIG    1       30.561 -20.218   7.246  0.00  0.00    -0.474 OA
ATOM     23  H   LIG    1       30.614 -20.269   8.229  0.00  0.00    +0.296 HD
ENDBRANCH  20  22
ENDBRANCH  18  20
ENDBRANCH   6  16
BRANCH   1  25
ATOM     24  N   LIG    1       21.824 -19.347   4.604  0.00  0.00    -0.191 NA
ATOM     25  C   LIG    1       22.724 -19.974   5.011  0.00  0.00    +0.099 C 
ENDBRANCH   1  25
TORSDOF 7
ENDMDL
MODEL 6
REMARK VINA RESULT:      -5.9      2.201      6.383
REMARK  Name = *****
REMARK                            x       y       z     vdW  Elec       q    Type
REMARK                         _______ _______ _______ _____ _____    ______ ____
ROOT
ATOM      1  C   LIG    1       23.737 -20.773   5.550  0.00  0.00    +0.055 A 
ATOM      2  C   LIG    1       24.901 -20.131   6.001  0.00  0.00    +0.043 A 
ATOM      3  C   LIG    1       25.906 -20.864   6.641  0.00  0.00    +0.055 A 
ATOM      4  C   LIG    1       25.754 -22.260   6.771  0.00  0.00    +0.083 A 
ATOM      5 CL   LIG    1       27.084 -23.205   7.377  0.00  0.00    -0.080 Cl
ATOM      6  C   LIG    1       24.597 -22.920   6.297  0.00  0.00    +0.055 A 
ATOM      7  C   LIG    1       23.586 -22.160   5.704  0.00  0.00    +0.043 A 
ENDROOT
BRANCH   3   8
ATOM      8  N   LIG    1       27.004 -20.198   7.236  0.00  0.00    -0.275 N 
ATOM      9  H   LIG    1       27.031 -20.134   8.254  0.00  0.00    +0.155 HD
ATOM     10  C   LIG    1       28.181 -19.880   6.583  0.00  0.00    +0.325 C 
ATOM     11  O   LIG    1       28.492 -20.135   5.426  0.00  0.00    -0.263 OA
BRANCH  10  12
ATOM     12  C   LIG    1       29.237 -19.192   7.479  0.00  0.00    +0.393 C 
ATOM     13  O   LIG    1       29.264 -19.341   8.686  0.00  0.00    -0.240 OA
BRANCH  12  14
ATOM     14  O   LIG    1       30.089 -18.438   6.761  0.00  0.00    -0.474 OA
ATOM     15  H   LIG    1       29.915 -17.482   6.928  0.00  0.00    +0.296 HD
ENDBRANCH  12  14
ENDBRANCH  10  12
ENDBRANCH   3   8
BRANCH   6  16
ATOM     16  N   LIG    1       24.492 -24.322   6.457  0.00  0.00    -0.275 N 
ATOM     17  H   LIG    1       24.205 -24.660   7.376  0.00  0.00    +0.155 HD
ATOM     18  C   LIG    1       24.850 -25.306   5.560  0.00  0.00    +0.325 C 
ATOM     19  O   LIG    1       25.343 -25.205   4.445  0.00  0.00    -0.263 OA
BRANCH  18  20
ATOM     20  C   LIG    1       24.629 -26.729   6.113  0.00  0.00    +0.393 C 
ATOM     21  O   LIG    1       25.302 -27.181   7.020  0.00  0.00    -0.240 OA
BRANCH  20  22
ATOM     22  O   LIG    1       23.642 -27.366   5.461  0.00  0.00    -0.474 OA
ATOM     23  H   LIG    1       23.013 -27.753   6.115  0.00  0.00    +0.296 HD
ENDBRANCH  20  22
ENDBRANCH  18  20
ENDBRANCH   6  16
BRANCH   1  25
ATOM     24  N   LIG    1       21.817 -19.376   4.493  0.00  0.00    -0.191 NA
ATOM     25  C   LIG    1       22.678 -20.013   4.965  0.00  0.00    +0.099 C 
ENDBRANCH   1  25
TORSDOF 7
ENDMDL
MODEL 7
REMARK VINA RESULT:      -5.9      6.426      9.354
REMARK  Name = *****
REMARK                            x       y       z     vdW  Elec       q    Type
REMARK                         _______ _______ _______ _____ _____    ______ ____
ROOT
ATOM      1  C   LIG    1       26.520 -29.627   9.082  0.00  0.00    +0.055 A 
ATOM      2  C   LIG    1       25.799 -30.692   8.521  0.00  0.00    +0.043 A 
ATOM      3  C   LIG    1       24.891 -30.459   7.483  0.00  0.00    +0.055 A 
ATOM      4  C   LIG    1       24.758 -29.150   6.975  0.00  0.00    +0.083 A 
ATOM      5 CL   LIG    1       23.789 -28.885   5.553  0.00  0.00    -0.080 Cl
ATOM      6  C   LIG    1       25.499 -28.074   7.516  0.00  0.00    +0.055 A 
ATOM      7  C   LIG    1       26.364 -28.324   8.584  0.00  0.00    +0.043 A 
ENDROOT
BRANCH   3   8
ATOM      8  N   LIG    1       24.050 -31.500   7.024  0.00  0.00    -0.275 N 
ATOM      9  H   LIG    1       23.116 -31.575   7.429  0.00  0.00    +0.155 HD
ATOM     10  C   LIG    1       24.269 -32.244   5.878  0.00  0.00    +0.325 C 
ATOM     11  O   LIG    1       25.176 -32.123   5.064  0.00  0.00    -0.263 OA
BRANCH  10  12
ATOM     12  C   LIG    1       23.171 -33.292   5.583  0.00  0.00    +0.393 C 
ATOM     13  O   LIG    1       22.507 -33.806   6.464  0.00  0.00    -0.240 OA
BRANCH  12  14
ATOM     14  O   LIG    1       23.057 -33.542   4.266  0.00  0.00    -0.474 OA
ATOM     15  H   LIG    1       22.339 -32.988   3.880  0.00  0.00    +0.296 HD
ENDBRANCH  12  14
ENDBRANCH  10  12
ENDBRANCH   3   8
BRANCH   6  16
ATOM     16  N   LIG    1       25.325 -26.779   6.973  0.00  0.00    -0.275 N 
ATOM     17  H   LIG    1       24.517 -26.247   7.302  0.00  0.00    +0.155 HD
ATOM     18  C   LIG    1       26.040 -26.182   5.957  0.00  0.00    +0.325 C 
ATOM     19  O   LIG    1       26.964 -26.625   5.289  0.00  0.00    -0.263 OA
BRANCH  18  20
ATOM     20  C   LIG    1       25.523 -24.771   5.609  0.00  0.00    +0.393 C 
ATOM     21  O   LIG    1       25.738 -23.810   6.323  0.00  0.00    -0.240 OA
BRANCH  20  22
ATOM     22  O   LIG    1       24.821 -24.769   4.463  0.00  0.00    -0.474 OA
ATOM     23  H   LIG    1       25.268 -25.351   3.804  0.00  0.00    +0.296 HD
ENDBRANCH  20  22
ENDBRANCH  18  20
ENDBRANCH   6  16
BRANCH   1  25
ATOM     24  N   LIG    1       28.116 -30.045  11.091  0.00  0.00    -0.191 NA
ATOM     25  C   LIG    1       27.390 -29.854  10.193  0.00  0.00    +0.099 C 
ENDBRANCH   1  25
TORSDOF 7
ENDMDL
MODEL 8
REMARK VINA RESULT:      -5.8      2.857      4.504
REMARK  Name = *****
REMARK                            x       y       z     vdW  Elec       q    Type
REMARK                         _______ _______ _______ _____ _____    ______ ____
ROOT
ATOM      1  C   LIG    1       25.089 -23.857   6.281  0.00  0.00    +0.055 A 
ATOM      2  C   LIG    1       24.543 -22.872   5.444  0.00  0.00    +0.043 A 
ATOM      3  C   LIG    1       25.046 -21.567   5.471  0.00  0.00    +0.055 A 
ATOM      4  C   LIG    1       26.144 -21.277   6.308  0.00  0.00    +0.083 A 
ATOM      5 CL   LIG    1       26.906 -19.716   6.196  0.00  0.00    -0.080 Cl
ATOM      6  C   LIG    1       26.718 -22.268   7.136  0.00  0.00    +0.055 A 
ATOM      7  C   LIG    1       26.168 -23.553   7.127  0.00  0.00    +0.043 A 
ENDROOT
BRANCH   3   8
ATOM      8  N   LIG    1       24.397 -20.538   4.748  0.00  0.00    -0.275 N 
ATOM      9  H   LIG    1       24.619 -20.434   3.758  0.00  0.00    +0.155 HD
ATOM     10  C   LIG    1       23.279 -19.850   5.188  0.00  0.00    +0.325 C 
ATOM     11  O   LIG    1       22.652 -20.020   6.227  0.00  0.00    -0.263 OA
BRANCH  10  12
ATOM     12  C   LIG    1       22.743 -18.805   4.184  0.00  0.00    +0.393 C 
ATOM     13  O   LIG    1       21.572 -18.477   4.148  0.00  0.00    -0.240 OA
BRANCH  12  14
ATOM     14  O   LIG    1       23.717 -18.327   3.389  0.00  0.00    -0.474 OA
ATOM     15  H   LIG    1       24.361 -17.806   3.922  0.00  0.00    +0.296 HD
ENDBRANCH  12  14
ENDBRANCH  10  12
ENDBRANCH   3   8
BRANCH   6  16
ATOM     16  N   LIG    1       27.815 -21.924   7.960  0.00  0.00    -0.275 N 
ATOM     17  H   LIG    1       27.667 -21.974   8.969  0.00  0.00    +0.155 HD
ATOM     18  C   LIG    1       29.034 -21.405   7.577  0.00  0.00    +0.325 C 
ATOM     19  O   LIG    1       29.441 -21.114   6.460  0.00  0.00    -0.263 OA
BRANCH  18  20
ATOM     20  C   LIG    1       29.964 -21.113   8.772  0.00  0.00    +0.393 C 
ATOM     21  O   LIG    1       30.429 -22.002   9.460  0.00  0.00    -0.240 OA
BRANCH  20  22
ATOM     22  O   LIG    1       30.157 -19.794   8.939  0.00  0.00    -0.474 OA
ATOM     23  H   LIG    1       29.326 -19.380   9.271  0.00  0.00    +0.296 HD
ENDBRANCH  20  22
ENDBRANCH  18  20
ENDBRANCH   6  16
BRANCH   1  25
ATOM     24  N   LIG    1       24.049 -26.239   6.325  0.00  0.00    -0.191 NA
ATOM     25  C   LIG    1       24.525 -25.170   6.309  0.00  0.00    +0.099 C 
ENDBRANCH   1  25
TORSDOF 7
ENDMDL
MODEL 9
REMARK VINA RESULT:      -5.7      1.551      6.319
REMARK  Name = *****
REMARK                            x       y       z     vdW  Elec       q    Type
REMARK                         _______ _______ _______ _____ _____    ______ ____
ROOT
ATOM      1  C   LIG    1       27.575 -18.508   4.818  0.00  0.00    +0.055 A 
ATOM      2  C   LIG    1       28.808 -18.524   5.487  0.00  0.00    +0.043 A 
ATOM      3  C   LIG    1       29.110 -19.556   6.383  0.00  0.00    +0.055 A 
ATOM      4  C   LIG    1       28.181 -20.603   6.554  0.00  0.00    +0.083 A 
ATOM      5 CL   LIG    1       28.633 -21.991   7.503  0.00  0.00    -0.080 Cl
ATOM      6  C   LIG    1       26.947 -20.611   5.864  0.00  0.00    +0.055 A 
ATOM      7  C   LIG    1       26.648 -19.545   5.011  0.00  0.00    +0.043 A 
ENDROOT
BRANCH   3   8
ATOM      8  N   LIG    1       30.280 -19.491   7.176  0.00  0.00    -0.275 N 
ATOM      9  H   LIG    1       31.178 -19.651   6.719  0.00  0.00    +0.155 HD
ATOM     10  C   LIG    1       30.341 -18.948   8.448  0.00  0.00    +0.325 C 
ATOM     11  O   LIG    1       29.439 -18.416   9.082  0.00  0.00    -0.263 OA
BRANCH  10  12
ATOM     12  C   LIG    1       31.753 -18.964   9.076  0.00  0.00    +0.393 C 
ATOM     13  O   LIG    1       32.355 -17.943   9.353  0.00  0.00    -0.240 OA
BRANCH  12  14
ATOM     14  O   LIG    1       32.203 -20.217   9.267  0.00  0.00    -0.474 OA
ATOM     15  H   LIG    1       31.443 -20.840   9.335  0.00  0.00    +0.296 HD
ENDBRANCH  12  14
ENDBRANCH  10  12
ENDBRANCH   3   8
BRANCH   6  16
ATOM     16  N   LIG    1       26.049 -21.683   6.075  0.00  0.00    -0.275 N 
ATOM     17  H   LIG    1       26.032 -22.416   5.364  0.00  0.00    +0.155 HD
ATOM     18  C   LIG    1       25.095 -21.808   7.062  0.00  0.00    +0.325 C 
ATOM     19  O   LIG    1       24.796 -21.034   7.961  0.00  0.00    -0.263 OA
BRANCH  18  20
ATOM     20  C   LIG    1       24.270 -23.106   6.938  0.00  0.00    +0.393 C 
ATOM     21  O   LIG    1       23.059 -23.094   6.828  0.00  0.00    -0.240 OA
BRANCH  20  22
ATOM     22  O   LIG    1       25.053 -24.197   6.985  0.00  0.00    -0.474 OA
ATOM     23  H   LIG    1       25.880 -23.986   7.479  0.00  0.00    +0.296 HD
ENDBRANCH  20  22
ENDBRANCH  18  20
ENDBRANCH   6  16
BRANCH   1  25
ATOM     24  N   LIG    1       26.950 -16.532   3.249  0.00  0.00    -0.191 NA
ATOM     25  C   LIG    1       27.235 -17.415   3.962  0.00  0.00    +0.099 C 
ENDBRANCH   1  25
TORSDOF 7
ENDMDL
