MODEL 1
REMARK VINA RESULT:      -2.9      0.000      0.000
REMARK  Name = *****
REMARK                            x       y       z     vdW  Elec       q    Type
REMARK                         _______ _______ _______ _____ _____    ______ ____
ROOT
ATOM      1  N   LIG    1       24.693 -17.514   3.566  0.00  0.00    -0.322 N 
ATOM      2  C   LIG    1       24.838 -16.175   3.802  0.00  0.00    +0.151 A 
ATOM      3  C   LIG    1       23.896 -15.164   4.161  0.00  0.00    +0.282 C 
ATOM      4  N   LIG    1       24.474 -13.895   4.258  0.00  0.00    -0.262 N 
ATOM      5  C   LIG    1       25.852 -13.613   4.177  0.00  0.00    +0.333 C 
ATOM      6  N   LIG    1       26.702 -14.678   3.873  0.00  0.00    -0.280 N 
ATOM      7  C   LIG    1       28.139 -14.479   3.807  0.00  0.00    +0.155 C 
ATOM      8  O   LIG    1       26.280 -12.475   4.385  0.00  0.00    -0.246 OA
ATOM      9  C   LIG    1       23.601 -12.777   4.557  0.00  0.00    +0.157 C 
ATOM     10  O   LIG    1       22.725 -15.404   4.390  0.00  0.00    -0.265 OA
ATOM     11  C   LIG    1       26.169 -15.926   3.666  0.00  0.00    +0.168 A 
ATOM     12  N   LIG    1       26.863 -17.049   3.338  0.00  0.00    -0.218 NA
ATOM     13  C   LIG    1       25.946 -17.990   3.247  0.00  0.00    +0.202 A 
ENDROOT
BRANCH   1  14
ATOM     14  C   LIG    1       23.475 -18.311   3.619  0.00  0.00    +0.156 C 
BRANCH  14  15
ATOM     15  C   LIG    1       23.323 -19.161   4.904  0.00  0.00    +0.148 C 
BRANCH  15  16
ATOM     16  O   LIG    1       21.995 -19.699   4.916  0.00  0.00    -0.389 OA
ATOM     17  H   LIG    1       21.769 -19.990   4.015  0.00  0.00    +0.210 HD
ENDBRANCH  15  16
BRANCH  15  18
ATOM     18  C   LIG    1       24.453 -20.234   5.074  0.00  0.00    +0.117 C 
BRANCH  18  20
ATOM     19  C   LIG    1       23.904 -21.571   7.054  0.00  0.00    +0.105 C 
ATOM     20  N   LIG    1       24.863 -20.637   6.447  0.00  0.00    -0.301 NA
BRANCH  20  21
ATOM     21  C   LIG    1       26.196 -21.306   6.449  0.00  0.00    +0.112 C 
BRANCH  21  22
ATOM     22  C   LIG    1       27.452 -20.410   6.483  0.00  0.00    +0.171 C 
BRANCH  22  23
ATOM     23  O   LIG    1       27.954 -20.098   5.188  0.00  0.00    -0.394 OA
ATOM     24  H   LIG    1       27.199 -20.081   4.574  0.00  0.00    +0.209 HD
ENDBRANCH  22  23
ENDBRANCH  21  22
ENDBRANCH  20  21
ENDBRANCH  18  20
ENDBRANCH  15  18
ENDBRANCH  14  15
ENDBRANCH   1  14
TORSDOF 8
ENDMDL
MODEL 2
REMARK VINA RESULT:      -2.8      1.848      6.767
REMARK  Name = *****
REMARK                            x       y       z     vdW  Elec       q    Type
REMARK                         _______ _______ _______ _____ _____    ______ ____
ROOT
ATOM      1  N   LIG    1       26.394 -17.691   3.518  0.00  0.00    -0.322 N 
ATOM      2  C   LIG    1       26.888 -18.572   4.441  0.00  0.00    +0.151 A 
ATOM      3  C   LIG    1       28.120 -18.606   5.159  0.00  0.00    +0.282 C 
ATOM      4  N   LIG    1       28.237 -19.730   5.982  0.00  0.00    -0.262 N 
ATOM      5  C   LIG    1       27.220 -20.671   6.233  0.00  0.00    +0.333 C 
ATOM      6  N   LIG    1       26.028 -20.525   5.521  0.00  0.00    -0.280 N 
ATOM      7  C   LIG    1       24.916 -21.431   5.748  0.00  0.00    +0.155 C 
ATOM      8  O   LIG    1       27.379 -21.572   7.062  0.00  0.00    -0.246 OA
ATOM      9  C   LIG    1       29.475 -19.904   6.715  0.00  0.00    +0.157 C 
ATOM     10  O   LIG    1       28.956 -17.724   5.080  0.00  0.00    -0.265 OA
ATOM     11  C   LIG    1       25.904 -19.494   4.622  0.00  0.00    +0.168 A 
ATOM     12  N   LIG    1       24.820 -19.240   3.840  0.00  0.00    -0.218 NA
ATOM     13  C   LIG    1       25.153 -18.167   3.154  0.00  0.00    +0.202 A 
ENDROOT
BRANCH   1  14
ATOM     14  C   LIG    1       27.027 -16.490   2.990  0.00  0.00    +0.156 C 
BRANCH  14  15
ATOM     15  C   LIG    1       26.596 -15.180   3.694  0.00  0.00    +0.148 C 
BRANCH  15  16
ATOM     16  O   LIG    1       27.648 -14.801   4.590  0.00  0.00    -0.389 OA
ATOM     17  H   LIG    1       27.704 -15.463   5.303  0.00  0.00    +0.210 HD
ENDBRANCH  15  16
BRANCH  15  18
ATOM     18  C   LIG    1       26.166 -14.052   2.695  0.00  0.00    +0.117 C 
BRANCH  18  20
ATOM     19  C   LIG    1       24.973 -11.983   2.146  0.00  0.00    +0.105 C 
ATOM     20  N   LIG    1       25.118 -13.082   3.111  0.00  0.00    -0.301 NA
BRANCH  20  21
ATOM     21  C   LIG    1       23.784 -13.735   3.243  0.00  0.00    +0.112 C 
BRANCH  21  22
ATOM     22  C   LIG    1       23.449 -14.425   4.581  0.00  0.00    +0.171 C 
BRANCH  22  23
ATOM     23  O   LIG    1       22.863 -15.712   4.418  0.00  0.00    -0.394 OA
ATOM     24  H   LIG    1       21.916 -15.586   4.237  0.00  0.00    +0.209 HD
ENDBRANCH  22  23
ENDBRANCH  21  22
ENDBRANCH  20  21
ENDBRANCH  18  20
ENDBRANCH  15  18
ENDBRANCH  14  15
ENDBRANCH   1  14
TORSDOF 8
ENDMDL
MODEL 3
REMARK VINA RESULT:      -2.7      1.637      2.803
REMARK  Name = *****
REMARK                            x       y       z     vdW  Elec       q    Type
REMARK                         _______ _______ _______ _____ _____    ______ ____
ROOT
ATOM      1  N   LIG    1       23.582 -17.897   3.939  0.00  0.00    -0.322 N 
ATOM      2  C   LIG    1       24.363 -16.776   3.873  0.00  0.00    +0.151 A 
ATOM      3  C   LIG    1       25.698 -16.571   3.413  0.00  0.00    +0.282 C 
ATOM      4  N   LIG    1       26.130 -15.251   3.572  0.00  0.00    -0.262 N 
ATOM      5  C   LIG    1       25.327 -14.171   3.986  0.00  0.00    +0.333 C 
ATOM      6  N   LIG    1       24.016 -14.461   4.366  0.00  0.00    -0.280 N 
ATOM      7  C   LIG    1       23.111 -13.399   4.770  0.00  0.00    +0.155 C 
ATOM      8  O   LIG    1       25.768 -13.018   3.990  0.00  0.00    -0.246 OA
ATOM      9  C   LIG    1       27.494 -14.937   3.196  0.00  0.00    +0.157 C 
ATOM     10  O   LIG    1       26.365 -17.454   2.906  0.00  0.00    -0.265 OA
ATOM     11  C   LIG    1       23.577 -15.762   4.326  0.00  0.00    +0.168 A 
ATOM     12  N   LIG    1       22.342 -16.201   4.690  0.00  0.00    -0.218 NA
ATOM     13  C   LIG    1       22.379 -17.501   4.481  0.00  0.00    +0.202 A 
ENDROOT
BRANCH   1  14
ATOM     14  C   LIG    1       23.922 -19.256   3.538  0.00  0.00    +0.156 C 
BRANCH  14  15
ATOM     15  C   LIG    1       24.444 -20.148   4.691  0.00  0.00    +0.148 C 
BRANCH  15  16
ATOM     16  O   LIG    1       23.785 -21.416   4.592  0.00  0.00    -0.389 OA
ATOM     17  H   LIG    1       24.197 -22.032   5.222  0.00  0.00    +0.210 HD
ENDBRANCH  15  16
BRANCH  15  18
ATOM     18  C   LIG    1       26.008 -20.240   4.743  0.00  0.00    +0.117 C 
BRANCH  18  20
ATOM     19  C   LIG    1       26.265 -20.994   7.062  0.00  0.00    +0.105 C 
ATOM     20  N   LIG    1       26.699 -20.026   6.044  0.00  0.00    -0.301 NA
BRANCH  20  21
ATOM     21  C   LIG    1       28.179 -20.157   5.910  0.00  0.00    +0.112 C 
BRANCH  21  22
ATOM     22  C   LIG    1       29.008 -18.862   5.789  0.00  0.00    +0.171 C 
BRANCH  22  23
ATOM     23  O   LIG    1       28.661 -18.078   4.653  0.00  0.00    -0.394 OA
ATOM     24  H   LIG    1       29.486 -17.835   4.197  0.00  0.00    +0.209 HD
ENDBRANCH  22  23
ENDBRANCH  21  22
ENDBRANCH  20  21
ENDBRANCH  18  20
ENDBRANCH  15  18
ENDBRANCH  14  15
ENDBRANCH   1  14
TORSDOF 8
ENDMDL
MODEL 4
REMARK VINA RESULT:      -2.6      1.483      2.653
REMARK  Name = *****
REMARK                            x       y       z     vdW  Elec       q    Type
REMARK                         _______ _______ _______ _____ _____    ______ ____
ROOT
ATOM      1  N   LIG    1       23.466 -16.609   4.325  0.00  0.00    -0.322 N 
ATOM      2  C   LIG    1       24.394 -15.653   4.014  0.00  0.00    +0.151 A 
ATOM      3  C   LIG    1       25.669 -15.735   3.378  0.00  0.00    +0.282 C 
ATOM      4  N   LIG    1       26.316 -14.499   3.300  0.00  0.00    -0.262 N 
ATOM      5  C   LIG    1       25.754 -13.256   3.650  0.00  0.00    +0.333 C 
ATOM      6  N   LIG    1       24.479 -13.271   4.217  0.00  0.00    -0.280 N 
ATOM      7  C   LIG    1       23.812 -12.030   4.571  0.00  0.00    +0.155 C 
ATOM      8  O   LIG    1       26.363 -12.203   3.443  0.00  0.00    -0.246 OA
ATOM      9  C   LIG    1       27.648 -14.469   2.728  0.00  0.00    +0.157 C 
ATOM     10  O   LIG    1       26.115 -16.773   2.925  0.00  0.00    -0.265 OA
ATOM     11  C   LIG    1       23.843 -14.474   4.410  0.00  0.00    +0.168 A 
ATOM     12  N   LIG    1       22.617 -14.650   4.972  0.00  0.00    -0.218 NA
ATOM     13  C   LIG    1       22.425 -15.952   4.944  0.00  0.00    +0.202 A 
ENDROOT
BRANCH   1  14
ATOM     14  C   LIG    1       23.535 -18.044   4.081  0.00  0.00    +0.156 C 
BRANCH  14  15
ATOM     15  C   LIG    1       22.343 -18.846   4.657  0.00  0.00    +0.148 C 
BRANCH  15  16
ATOM     16  O   LIG    1       21.245 -18.709   3.746  0.00  0.00    -0.389 OA
ATOM     17  H   LIG    1       20.419 -18.904   4.222  0.00  0.00    +0.210 HD
ENDBRANCH  15  16
BRANCH  15  18
ATOM     18  C   LIG    1       22.706 -20.330   5.006  0.00  0.00    +0.117 C 
BRANCH  18  20
ATOM     19  C   LIG    1       23.294 -21.529   7.062  0.00  0.00    +0.105 C 
ATOM     20  N   LIG    1       23.756 -20.594   6.027  0.00  0.00    -0.301 NA
BRANCH  20  21
ATOM     21  C   LIG    1       24.984 -21.181   5.416  0.00  0.00    +0.112 C 
BRANCH  21  22
ATOM     22  C   LIG    1       26.298 -20.382   5.531  0.00  0.00    +0.171 C 
BRANCH  22  23
ATOM     23  O   LIG    1       26.523 -19.509   4.430  0.00  0.00    -0.394 OA
ATOM     24  H   LIG    1       26.745 -18.632   4.787  0.00  0.00    +0.209 HD
ENDBRANCH  22  23
ENDBRANCH  21  22
ENDBRANCH  20  21
ENDBRANCH  18  20
ENDBRANCH  15  18
ENDBRANCH  14  15
ENDBRANCH   1  14
TORSDOF 8
ENDMDL
MODEL 5
REMARK VINA RESULT:      -2.4      2.195      6.575
REMARK  Name = *****
REMARK                            x       y       z     vdW  Elec       q    Type
REMARK                         _______ _______ _______ _____ _____    ______ ____
ROOT
ATOM      1  N   LIG    1       25.907 -17.888   3.474  0.00  0.00    -0.322 N 
ATOM      2  C   LIG    1       26.523 -18.717   4.371  0.00  0.00    +0.151 A 
ATOM      3  C   LIG    1       27.837 -18.710   4.927  0.00  0.00    +0.282 C 
ATOM      4  N   LIG    1       28.068 -19.788   5.785  0.00  0.00    -0.262 N 
ATOM      5  C   LIG    1       27.100 -20.717   6.214  0.00  0.00    +0.333 C 
ATOM      6  N   LIG    1       25.826 -20.612   5.654  0.00  0.00    -0.280 N 
ATOM      7  C   LIG    1       24.761 -21.507   6.069  0.00  0.00    +0.155 C 
ATOM      8  O   LIG    1       27.372 -21.572   7.062  0.00  0.00    -0.246 OA
ATOM      9  C   LIG    1       29.392 -19.920   6.362  0.00  0.00    +0.157 C 
ATOM     10  O   LIG    1       28.647 -17.831   4.695  0.00  0.00    -0.265 OA
ATOM     11  C   LIG    1       25.579 -19.631   4.725  0.00  0.00    +0.168 A 
ATOM     12  N   LIG    1       24.402 -19.422   4.076  0.00  0.00    -0.218 NA
ATOM     13  C   LIG    1       24.634 -18.386   3.298  0.00  0.00    +0.202 A 
ENDROOT
BRANCH   1  14
ATOM     14  C   LIG    1       26.456 -16.716   2.807  0.00  0.00    +0.156 C 
BRANCH  14  15
ATOM     15  C   LIG    1       26.088 -15.370   3.479  0.00  0.00    +0.148 C 
BRANCH  15  16
ATOM     16  O   LIG    1       27.308 -14.660   3.727  0.00  0.00    -0.389 OA
ATOM     17  H   LIG    1       27.983 -15.294   4.025  0.00  0.00    +0.210 HD
ENDBRANCH  15  16
BRANCH  15  18
ATOM     18  C   LIG    1       25.019 -14.550   2.677  0.00  0.00    +0.117 C 
BRANCH  18  20
ATOM     19  C   LIG    1       23.403 -14.702   4.514  0.00  0.00    +0.105 C 
ATOM     20  N   LIG    1       23.927 -13.868   3.423  0.00  0.00    -0.301 NA
BRANCH  20  21
ATOM     21  C   LIG    1       24.390 -12.586   4.029  0.00  0.00    +0.112 C 
BRANCH  21  22
ATOM     22  C   LIG    1       24.848 -12.610   5.502  0.00  0.00    +0.171 C 
BRANCH  22  23
ATOM     23  O   LIG    1       26.260 -12.704   5.649  0.00  0.00    -0.394 OA
ATOM     24  H   LIG    1       26.523 -12.109   6.373  0.00  0.00    +0.209 HD
ENDBRANCH  22  23
ENDBRANCH  21  22
ENDBRANCH  20  21
ENDBRANCH  18  20
ENDBRANCH  15  18
ENDBRANCH  14  15
ENDBRANCH   1  14
TORSDOF 8
ENDMDL
MODEL 6
REMARK VINA RESULT:      -2.2      1.217      1.945
REMARK  Name = *****
REMARK                            x       y       z     vdW  Elec       q    Type
REMARK                         _______ _______ _______ _____ _____    ______ ____
ROOT
ATOM      1  N   LIG    1       25.084 -17.322   3.590  0.00  0.00    -0.322 N 
ATOM      2  C   LIG    1       25.139 -15.966   3.761  0.00  0.00    +0.151 A 
ATOM      3  C   LIG    1       24.133 -15.004   4.076  0.00  0.00    +0.282 C 
ATOM      4  N   LIG    1       24.626 -13.696   4.109  0.00  0.00    -0.262 N 
ATOM      5  C   LIG    1       25.981 -13.328   4.008  0.00  0.00    +0.333 C 
ATOM      6  N   LIG    1       26.900 -14.347   3.750  0.00  0.00    -0.280 N 
ATOM      7  C   LIG    1       28.321 -14.057   3.669  0.00  0.00    +0.155 C 
ATOM      8  O   LIG    1       26.333 -12.154   4.159  0.00  0.00    -0.246 OA
ATOM      9  C   LIG    1       23.681 -12.626   4.359  0.00  0.00    +0.157 C 
ATOM     10  O   LIG    1       22.981 -15.310   4.322  0.00  0.00    -0.265 OA
ATOM     11  C   LIG    1       26.451 -15.636   3.606  0.00  0.00    +0.168 A 
ATOM     12  N   LIG    1       27.218 -16.725   3.329  0.00  0.00    -0.218 NA
ATOM     13  C   LIG    1       26.366 -17.728   3.288  0.00  0.00    +0.202 A 
ENDROOT
BRANCH   1  14
ATOM     14  C   LIG    1       23.922 -18.195   3.686  0.00  0.00    +0.156 C 
BRANCH  14  15
ATOM     15  C   LIG    1       24.262 -19.686   3.923  0.00  0.00    +0.148 C 
BRANCH  15  16
ATOM     16  O   LIG    1       24.301 -20.332   2.645  0.00  0.00    -0.389 OA
ATOM     17  H   LIG    1       24.888 -19.825   2.057  0.00  0.00    +0.210 HD
ENDBRANCH  15  16
BRANCH  15  18
ATOM     18  C   LIG    1       25.552 -19.897   4.788  0.00  0.00    +0.117 C 
BRANCH  18  20
ATOM     19  C   LIG    1       26.662 -20.650   6.840  0.00  0.00    +0.105 C 
ATOM     20  N   LIG    1       25.488 -20.800   5.969  0.00  0.00    -0.301 NA
BRANCH  20  21
ATOM     21  C   LIG    1       24.281 -20.531   6.803  0.00  0.00    +0.112 C 
BRANCH  21  22
ATOM     22  C   LIG    1       23.142 -21.572   6.780  0.00  0.00    +0.171 C 
BRANCH  22  23
ATOM     23  O   LIG    1       22.407 -21.572   5.561  0.00  0.00    -0.394 OA
ATOM     24  H   LIG    1       22.964 -21.157   4.879  0.00  0.00    +0.209 HD
ENDBRANCH  22  23
ENDBRANCH  21  22
ENDBRANCH  20  21
ENDBRANCH  18  20
ENDBRANCH  15  18
ENDBRANCH  14  15
ENDBRANCH   1  14
TORSDOF 8
ENDMDL
MODEL 7
REMARK VINA RESULT:      -1.8      2.090      6.579
REMARK  Name = *****
REMARK                            x       y       z     vdW  Elec       q    Type
REMARK                         _______ _______ _______ _____ _____    ______ ____
ROOT
ATOM      1  N   LIG    1       27.618 -17.848   4.303  0.00  0.00    -0.322 N 
ATOM      2  C   LIG    1       26.573 -18.676   4.607  0.00  0.00    +0.151 A 
ATOM      3  C   LIG    1       25.244 -18.761   4.092  0.00  0.00    +0.282 C 
ATOM      4  N   LIG    1       24.477 -19.739   4.731  0.00  0.00    -0.262 N 
ATOM      5  C   LIG    1       24.957 -20.671   5.672  0.00  0.00    +0.333 C 
ATOM      6  N   LIG    1       26.286 -20.542   6.076  0.00  0.00    -0.280 N 
ATOM      7  C   LIG    1       26.869 -21.486   7.014  0.00  0.00    +0.155 C 
ATOM      8  O   LIG    1       24.229 -21.572   6.100  0.00  0.00    -0.246 OA
ATOM      9  C   LIG    1       23.090 -19.875   4.334  0.00  0.00    +0.157 C 
ATOM     10  O   LIG    1       24.847 -18.071   3.171  0.00  0.00    -0.265 OA
ATOM     11  C   LIG    1       27.052 -19.529   5.553  0.00  0.00    +0.168 A 
ATOM     12  N   LIG    1       28.348 -19.261   5.868  0.00  0.00    -0.218 NA
ATOM     13  C   LIG    1       28.659 -18.218   5.127  0.00  0.00    +0.202 A 
ENDROOT
BRANCH   1  14
ATOM     14  C   LIG    1       27.658 -16.771   3.322  0.00  0.00    +0.156 C 
BRANCH  14  15
ATOM     15  C   LIG    1       27.251 -15.385   3.880  0.00  0.00    +0.148 C 
BRANCH  15  16
ATOM     16  O   LIG    1       28.305 -14.465   3.570  0.00  0.00    -0.389 OA
ATOM     17  H   LIG    1       29.149 -14.950   3.559  0.00  0.00    +0.210 HD
ENDBRANCH  15  16
BRANCH  15  18
ATOM     18  C   LIG    1       25.831 -14.919   3.405  0.00  0.00    +0.117 C 
BRANCH  18  20
ATOM     19  C   LIG    1       25.733 -13.235   5.184  0.00  0.00    +0.105 C 
ATOM     20  N   LIG    1       24.963 -14.174   4.356  0.00  0.00    -0.301 NA
BRANCH  20  21
ATOM     21  C   LIG    1       23.918 -13.382   3.644  0.00  0.00    +0.112 C 
BRANCH  21  22
ATOM     22  C   LIG    1       24.238 -12.885   2.219  0.00  0.00    +0.171 C 
BRANCH  22  23
ATOM     23  O   LIG    1       24.056 -11.482   2.061  0.00  0.00    -0.394 OA
ATOM     24  H   LIG    1       24.242 -11.060   2.918  0.00  0.00    +0.209 HD
ENDBRANCH  22  23
ENDBRANCH  21  22
ENDBRANCH  20  21
ENDBRANCH  18  20
ENDBRANCH  15  18
ENDBRANCH  14  15
ENDBRANCH   1  14
TORSDOF 8
ENDMDL
MODEL 8
REMARK VINA RESULT:      -1.4      2.267      6.077
REMARK  Name = *****
REMARK                            x       y       z     vdW  Elec       q    Type
REMARK                         _______ _______ _______ _____ _____    ______ ____
ROOT
ATOM      1  N   LIG    1       24.468 -16.083   3.763  0.00  0.00    -0.322 N 
ATOM      2  C   LIG    1       24.062 -17.378   3.933  0.00  0.00    +0.151 A 
ATOM      3  C   LIG    1       22.826 -17.937   4.376  0.00  0.00    +0.282 C 
ATOM      4  N   LIG    1       22.857 -19.332   4.448  0.00  0.00    -0.262 N 
ATOM      5  C   LIG    1       23.909 -20.153   3.996  0.00  0.00    +0.333 C 
ATOM      6  N   LIG    1       25.059 -19.514   3.530  0.00  0.00    -0.280 N 
ATOM      7  C   LIG    1       26.174 -20.287   3.011  0.00  0.00    +0.155 C 
ATOM      8  O   LIG    1       23.801 -21.382   3.999  0.00  0.00    -0.246 OA
ATOM      9  C   LIG    1       21.676 -20.009   4.946  0.00  0.00    +0.157 C 
ATOM     10  O   LIG    1       21.847 -17.259   4.627  0.00  0.00    -0.265 OA
ATOM     11  C   LIG    1       25.116 -18.142   3.537  0.00  0.00    +0.168 A 
ATOM     12  N   LIG    1       26.173 -17.383   3.142  0.00  0.00    -0.218 NA
ATOM     13  C   LIG    1       25.772 -16.141   3.321  0.00  0.00    +0.202 A 
ENDROOT
BRANCH   1  14
ATOM     14  C   LIG    1       23.711 -14.862   4.003  0.00  0.00    +0.156 C 
BRANCH  14  15
ATOM     15  C   LIG    1       24.404 -13.572   3.499  0.00  0.00    +0.148 C 
BRANCH  15  16
ATOM     16  O   LIG    1       23.469 -12.873   2.667  0.00  0.00    -0.389 OA
ATOM     17  H   LIG    1       22.584 -13.255   2.804  0.00  0.00    +0.210 HD
ENDBRANCH  15  16
BRANCH  15  18
ATOM     18  C   LIG    1       25.010 -12.704   4.654  0.00  0.00    +0.117 C 
BRANCH  18  20
ATOM     19  C   LIG    1       26.812 -13.817   5.889  0.00  0.00    +0.105 C 
ATOM     20  N   LIG    1       26.474 -12.771   4.913  0.00  0.00    -0.301 NA
BRANCH  20  21
ATOM     21  C   LIG    1       27.241 -13.063   3.668  0.00  0.00    +0.112 C 
BRANCH  21  22
ATOM     22  C   LIG    1       28.780 -13.122   3.766  0.00  0.00    +0.171 C 
BRANCH  22  23
ATOM     23  O   LIG    1       29.332 -12.072   4.553  0.00  0.00    -0.394 OA
ATOM     24  H   LIG    1       29.121 -12.257   5.485  0.00  0.00    +0.209 HD
ENDBRANCH  22  23
ENDBRANCH  21  22
ENDBRANCH  20  21
ENDBRANCH  18  20
ENDBRANCH  15  18
ENDBRANCH  14  15
ENDBRANCH   1  14
TORSDOF 8
ENDMDL
MODEL 9
REMARK VINA RESULT:      -1.3      1.617      3.079
REMARK  Name = *****
REMARK                            x       y       z     vdW  Elec       q    Type
REMARK                         _______ _______ _______ _____ _____    ______ ____
ROOT
ATOM      1  N   LIG    1       24.787 -17.412   3.718  0.00  0.00    -0.322 N 
ATOM      2  C   LIG    1       25.388 -16.185   3.792  0.00  0.00    +0.151 A 
ATOM      3  C   LIG    1       26.742 -15.776   3.607  0.00  0.00    +0.282 C 
ATOM      4  N   LIG    1       26.929 -14.408   3.826  0.00  0.00    -0.262 N 
ATOM      5  C   LIG    1       25.907 -13.466   4.050  0.00  0.00    +0.333 C 
ATOM      6  N   LIG    1       24.604 -13.956   4.164  0.00  0.00    -0.280 N 
ATOM      7  C   LIG    1       23.488 -13.047   4.357  0.00  0.00    +0.155 C 
ATOM      8  O   LIG    1       26.159 -12.260   4.123  0.00  0.00    -0.246 OA
ATOM      9  C   LIG    1       28.279 -13.887   3.728  0.00  0.00    +0.157 C 
ATOM     10  O   LIG    1       27.623 -16.542   3.261  0.00  0.00    -0.265 OA
ATOM     11  C   LIG    1       24.383 -15.307   4.059  0.00  0.00    +0.168 A 
ATOM     12  N   LIG    1       23.180 -15.932   4.173  0.00  0.00    -0.218 NA
ATOM     13  C   LIG    1       23.454 -17.209   4.000  0.00  0.00    +0.202 A 
ENDROOT
BRANCH   1  14
ATOM     14  C   LIG    1       25.401 -18.699   3.419  0.00  0.00    +0.156 C 
BRANCH  14  15
ATOM     15  C   LIG    1       24.683 -19.912   4.059  0.00  0.00    +0.148 C 
BRANCH  15  16
ATOM     16  O   LIG    1       23.878 -20.525   3.044  0.00  0.00    -0.389 OA
ATOM     17  H   LIG    1       24.419 -20.640   2.244  0.00  0.00    +0.210 HD
ENDBRANCH  15  16
BRANCH  15  18
ATOM     18  C   LIG    1       25.661 -20.898   4.785  0.00  0.00    +0.117 C 
BRANCH  18  20
ATOM     19  C   LIG    1       26.495 -20.537   7.061  0.00  0.00    +0.105 C 
ATOM     20  N   LIG    1       25.462 -21.174   6.233  0.00  0.00    -0.301 NA
BRANCH  20  21
ATOM     21  C   LIG    1       24.140 -20.675   6.712  0.00  0.00    +0.112 C 
BRANCH  21  22
ATOM     22  C   LIG    1       22.904 -21.567   6.473  0.00  0.00    +0.171 C 
BRANCH  22  23
ATOM     23  O   LIG    1       22.155 -21.190   5.322  0.00  0.00    -0.394 OA
ATOM     24  H   LIG    1       21.504 -21.893   5.150  0.00  0.00    +0.209 HD
ENDBRANCH  22  23
ENDBRANCH  21  22
ENDBRANCH  20  21
ENDBRANCH  18  20
ENDBRANCH  15  18
ENDBRANCH  14  15
ENDBRANCH   1  14
TORSDOF 8
ENDMDL
