MODEL 1
REMARK VINA RESULT:      -5.1      0.000      0.000
REMARK  Name = *****
REMARK                            x       y       z     vdW  Elec       q    Type
REMARK                         _______ _______ _______ _____ _____    ______ ____
ROOT
ATOM      1  C   LIG    1       25.649 -20.447   6.002  0.00  0.00    +0.022 C 
ENDROOT
BRANCH   1   2
ATOM      2  C   LIG    1       24.688 -21.028   4.935  0.00  0.00    -0.010 C 
ATOM      3  C   LIG    1       23.244 -21.070   5.473  0.00  0.00    +0.003 C 
ATOM      4  C   LIG    1       22.599 -19.688   5.567  0.00  0.00    +0.000 C 
ATOM      5  C   LIG    1       22.673 -18.936   4.243  0.00  0.00    +0.000 C 
ATOM      6  C   LIG    1       24.094 -18.881   3.688  0.00  0.00    +0.000 C 
ATOM      7  C   LIG    1       24.715 -20.273   3.595  0.00  0.00    +0.003 C 
ENDBRANCH   1   2
BRANCH   1   8
ATOM      8  C   LIG    1       27.159 -20.678   5.756  0.00  0.00    +0.051 C 
ATOM      9  C   LIG    1       27.828 -19.324   5.479  0.00  0.00    +0.024 C 
BRANCH   8  11
ATOM     10  C   LIG    1       29.177 -21.141   7.062  0.00  0.00    +0.101 C 
ATOM     11  N   LIG    1       27.747 -21.363   6.914  0.00  0.00    -0.317 NA
ATOM     12  H   LIG    1       27.267 -21.082   7.767  0.00  0.00    +0.122 HD
ENDBRANCH   8  11
ENDBRANCH   1   8
TORSDOF 3
ENDMDL
MODEL 2
REMARK VINA RESULT:      -4.8      1.170      1.554
REMARK  Name = *****
REMARK                            x       y       z     vdW  Elec       q    Type
REMARK                         _______ _______ _______ _____ _____    ______ ____
ROOT
ATOM      1  C   LIG    1       25.751 -20.073   6.258  0.00  0.00    +0.022 C 
ENDROOT
BRANCH   1   2
ATOM      2  C   LIG    1       25.286 -20.567   4.866  0.00  0.00    -0.010 C 
ATOM      3  C   LIG    1       24.125 -21.572   5.007  0.00  0.00    +0.003 C 
ATOM      4  C   LIG    1       22.809 -20.912   5.416  0.00  0.00    +0.000 C 
ATOM      5  C   LIG    1       22.435 -19.765   4.484  0.00  0.00    +0.000 C 
ATOM      6  C   LIG    1       23.570 -18.756   4.326  0.00  0.00    +0.000 C 
ATOM      7  C   LIG    1       24.872 -19.436   3.909  0.00  0.00    +0.003 C 
ENDBRANCH   1   2
BRANCH   1   8
ATOM      8  C   LIG    1       27.275 -20.119   6.522  0.00  0.00    +0.051 C 
ATOM      9  C   LIG    1       27.641 -21.509   7.061  0.00  0.00    +0.024 C 
BRANCH   8  11
ATOM     10  C   LIG    1       29.167 -18.953   5.497  0.00  0.00    +0.101 C 
ATOM     11  N   LIG    1       27.998 -19.792   5.287  0.00  0.00    -0.317 NA
ATOM     12  H   LIG    1       28.272 -20.647   4.806  0.00  0.00    +0.122 HD
ENDBRANCH   8  11
ENDBRANCH   1   8
TORSDOF 3
ENDMDL
MODEL 3
REMARK VINA RESULT:      -4.7      6.289      7.319
REMARK  Name = *****
REMARK                            x       y       z     vdW  Elec       q    Type
REMARK                         _______ _______ _______ _____ _____    ______ ____
ROOT
ATOM      1  C   LIG    1       26.326 -13.711   4.548  0.00  0.00    +0.022 C 
ENDROOT
BRANCH   1   2
ATOM      2  C   LIG    1       25.067 -14.027   3.703  0.00  0.00    -0.010 C 
ATOM      3  C   LIG    1       23.807 -13.437   4.367  0.00  0.00    +0.003 C 
ATOM      4  C   LIG    1       23.726 -11.915   4.251  0.00  0.00    +0.000 C 
ATOM      5  C   LIG    1       23.860 -11.447   2.806  0.00  0.00    +0.000 C 
ATOM      6  C   LIG    1       25.100 -12.020   2.126  0.00  0.00    +0.000 C 
ATOM      7  C   LIG    1       25.156 -13.541   2.247  0.00  0.00    +0.003 C 
ENDBRANCH   1   2
BRANCH   1   8
ATOM      8  C   LIG    1       27.589 -14.543   4.225  0.00  0.00    +0.051 C 
ATOM      9  C   LIG    1       27.156 -15.871   3.588  0.00  0.00    +0.024 C 
BRANCH   8  11
ATOM     10  C   LIG    1       29.017 -12.571   3.971  0.00  0.00    +0.101 C 
ATOM     11  N   LIG    1       28.477 -13.769   3.348  0.00  0.00    -0.317 NA
ATOM     12  H   LIG    1       29.240 -14.357   3.017  0.00  0.00    +0.122 HD
ENDBRANCH   8  11
ENDBRANCH   1   8
TORSDOF 3
ENDMDL
MODEL 4
REMARK VINA RESULT:      -4.4      6.382      8.316
REMARK  Name = *****
REMARK                            x       y       z     vdW  Elec       q    Type
REMARK                         _______ _______ _______ _____ _____    ______ ____
ROOT
ATOM      1  C   LIG    1       25.216 -13.290   4.543  0.00  0.00    +0.022 C 
ENDROOT
BRANCH   1   2
ATOM      2  C   LIG    1       26.437 -14.118   5.016  0.00  0.00    -0.010 C 
ATOM      3  C   LIG    1       27.098 -14.838   3.824  0.00  0.00    +0.003 C 
ATOM      4  C   LIG    1       27.865 -13.891   2.903  0.00  0.00    +0.000 C 
ATOM      5  C   LIG    1       28.880 -13.050   3.670  0.00  0.00    +0.000 C 
ATOM      6  C   LIG    1       28.250 -12.327   4.858  0.00  0.00    +0.000 C 
ATOM      7  C   LIG    1       27.496 -13.293   5.768  0.00  0.00    +0.003 C 
ENDBRANCH   1   2
BRANCH   1   8
ATOM      8  C   LIG    1       24.297 -13.968   3.500  0.00  0.00    +0.051 C 
ATOM      9  C   LIG    1       23.293 -14.867   4.237  0.00  0.00    +0.024 C 
BRANCH   8  11
ATOM     10  C   LIG    1       24.554 -12.096   1.944  0.00  0.00    +0.101 C 
ATOM     11  N   LIG    1       23.633 -12.942   2.688  0.00  0.00    -0.317 NA
ATOM     12  H   LIG    1       22.973 -13.377   2.046  0.00  0.00    +0.122 HD
ENDBRANCH   8  11
ENDBRANCH   1   8
TORSDOF 3
ENDMDL
MODEL 5
REMARK VINA RESULT:      -4.3      6.090      7.108
REMARK  Name = *****
REMARK                            x       y       z     vdW  Elec       q    Type
REMARK                         _______ _______ _______ _____ _____    ______ ____
ROOT
ATOM      1  C   LIG    1       26.439 -13.519   4.464  0.00  0.00    +0.022 C 
ENDROOT
BRANCH   1   2
ATOM      2  C   LIG    1       25.017 -13.901   3.982  0.00  0.00    -0.010 C 
ATOM      3  C   LIG    1       23.948 -13.133   4.785  0.00  0.00    +0.003 C 
ATOM      4  C   LIG    1       23.873 -11.652   4.418  0.00  0.00    +0.000 C 
ATOM      5  C   LIG    1       23.690 -11.447   2.918  0.00  0.00    +0.000 C 
ATOM      6  C   LIG    1       24.737 -12.199   2.100  0.00  0.00    +0.000 C 
ATOM      7  C   LIG    1       24.788 -13.678   2.477  0.00  0.00    +0.003 C 
ENDBRANCH   1   2
BRANCH   1   8
ATOM      8  C   LIG    1       27.615 -14.106   3.649  0.00  0.00    +0.051 C 
ATOM      9  C   LIG    1       28.791 -13.120   3.696  0.00  0.00    +0.024 C 
BRANCH   8  11
ATOM     10  C   LIG    1       27.148 -16.509   3.673  0.00  0.00    +0.101 C 
ATOM     11  N   LIG    1       27.973 -15.426   4.183  0.00  0.00    -0.317 NA
ATOM     12  H   LIG    1       28.954 -15.624   3.994  0.00  0.00    +0.122 HD
ENDBRANCH   8  11
ENDBRANCH   1   8
TORSDOF 3
ENDMDL
MODEL 6
REMARK VINA RESULT:      -4.1      2.781      5.072
REMARK  Name = *****
REMARK                            x       y       z     vdW  Elec       q    Type
REMARK                         _______ _______ _______ _____ _____    ______ ____
ROOT
ATOM      1  C   LIG    1       22.521 -19.165   5.492  0.00  0.00    +0.022 C 
ENDROOT
BRANCH   1   2
ATOM      2  C   LIG    1       22.954 -20.593   5.076  0.00  0.00    -0.010 C 
ATOM      3  C   LIG    1       24.192 -20.537   4.157  0.00  0.00    +0.003 C 
ATOM      4  C   LIG    1       25.474 -20.167   4.901  0.00  0.00    +0.000 C 
ATOM      5  C   LIG    1       25.717 -21.077   6.101  0.00  0.00    +0.000 C 
ATOM      6  C   LIG    1       24.505 -21.150   7.025  0.00  0.00    +0.000 C 
ATOM      7  C   LIG    1       23.238 -21.529   6.262  0.00  0.00    +0.003 C 
ENDBRANCH   1   2
BRANCH   1   8
ATOM      8  C   LIG    1       22.271 -18.167   4.338  0.00  0.00    +0.051 C 
ATOM      9  C   LIG    1       21.037 -18.625   3.546  0.00  0.00    +0.024 C 
BRANCH   8  11
ATOM     10  C   LIG    1       23.074 -15.854   4.366  0.00  0.00    +0.101 C 
ATOM     11  N   LIG    1       22.110 -16.813   4.884  0.00  0.00    -0.317 NA
ATOM     12  H   LIG    1       21.165 -16.477   4.711  0.00  0.00    +0.122 HD
ENDBRANCH   8  11
ENDBRANCH   1   8
TORSDOF 3
ENDMDL
MODEL 7
REMARK VINA RESULT:      -4.1      2.467      3.773
REMARK  Name = *****
REMARK                            x       y       z     vdW  Elec       q    Type
REMARK                         _______ _______ _______ _____ _____    ______ ____
ROOT
ATOM      1  C   LIG    1       25.604 -19.344   4.539  0.00  0.00    +0.022 C 
ENDROOT
BRANCH   1   2
ATOM      2  C   LIG    1       24.944 -20.746   4.528  0.00  0.00    -0.010 C 
ATOM      3  C   LIG    1       25.406 -21.571   5.746  0.00  0.00    +0.003 C 
ATOM      4  C   LIG    1       24.795 -21.092   7.061  0.00  0.00    +0.000 C 
ATOM      5  C   LIG    1       23.274 -21.020   6.988  0.00  0.00    +0.000 C 
ATOM      6  C   LIG    1       22.790 -20.209   5.789  0.00  0.00    +0.000 C 
ATOM      7  C   LIG    1       23.407 -20.711   4.486  0.00  0.00    +0.003 C 
ENDBRANCH   1   2
BRANCH   1   8
ATOM      8  C   LIG    1       25.197 -18.392   3.389  0.00  0.00    +0.051 C 
ATOM      9  C   LIG    1       23.956 -17.598   3.821  0.00  0.00    +0.024 C 
BRANCH   8  11
ATOM     10  C   LIG    1       26.077 -16.109   3.314  0.00  0.00    +0.101 C 
ATOM     11  N   LIG    1       26.327 -17.518   3.052  0.00  0.00    -0.317 NA
ATOM     12  H   LIG    1       27.162 -17.817   3.552  0.00  0.00    +0.122 HD
ENDBRANCH   8  11
ENDBRANCH   1   8
TORSDOF 3
ENDMDL
MODEL 8
REMARK VINA RESULT:      -3.8      4.905      6.325
REMARK  Name = *****
REMARK                            x       y       z     vdW  Elec       q    Type
REMARK                         _______ _______ _______ _____ _____    ______ ____
ROOT
ATOM      1  C   LIG    1       25.653 -15.751   3.451  0.00  0.00    +0.022 C 
ENDROOT
BRANCH   1   2
ATOM      2  C   LIG    1       26.240 -14.337   3.690  0.00  0.00    -0.010 C 
ATOM      3  C   LIG    1       26.248 -13.526   2.379  0.00  0.00    +0.003 C 
ATOM      4  C   LIG    1       24.854 -13.074   1.946  0.00  0.00    +0.000 C 
ATOM      5  C   LIG    1       24.130 -12.321   3.057  0.00  0.00    +0.000 C 
ATOM      6  C   LIG    1       24.110 -13.104   4.367  0.00  0.00    +0.000 C 
ATOM      7  C   LIG    1       25.513 -13.538   4.784  0.00  0.00    +0.003 C 
ENDBRANCH   1   2
BRANCH   1   8
ATOM      8  C   LIG    1       26.681 -16.889   3.247  0.00  0.00    +0.051 C 
ATOM      9  C   LIG    1       27.792 -16.745   4.298  0.00  0.00    +0.024 C 
BRANCH   8  11
ATOM     10  C   LIG    1       24.587 -18.089   3.660  0.00  0.00    +0.101 C 
ATOM     11  N   LIG    1       26.001 -18.187   3.332  0.00  0.00    -0.317 NA
ATOM     12  H   LIG    1       26.115 -18.699   2.459  0.00  0.00    +0.122 HD
ENDBRANCH   8  11
ENDBRANCH   1   8
TORSDOF 3
ENDMDL
MODEL 9
REMARK VINA RESULT:      -3.8      2.829      3.851
REMARK  Name = *****
REMARK                            x       y       z     vdW  Elec       q    Type
REMARK                         _______ _______ _______ _____ _____    ______ ____
ROOT
ATOM      1  C   LIG    1       25.295 -18.539   3.909  0.00  0.00    +0.022 C 
ENDROOT
BRANCH   1   2
ATOM      2  C   LIG    1       24.018 -19.228   3.366  0.00  0.00    -0.010 C 
ATOM      3  C   LIG    1       24.211 -20.756   3.306  0.00  0.00    +0.003 C 
ATOM      4  C   LIG    1       24.203 -21.415   4.684  0.00  0.00    +0.000 C 
ATOM      5  C   LIG    1       22.957 -21.048   5.483  0.00  0.00    +0.000 C 
ATOM      6  C   LIG    1       22.743 -19.539   5.556  0.00  0.00    +0.000 C 
ATOM      7  C   LIG    1       22.746 -18.902   4.168  0.00  0.00    +0.003 C 
ENDBRANCH   1   2
BRANCH   1   8
ATOM      8  C   LIG    1       25.732 -17.246   3.180  0.00  0.00    +0.051 C 
ATOM      9  C   LIG    1       24.818 -16.095   3.624  0.00  0.00    +0.024 C 
BRANCH   8  11
ATOM     10  C   LIG    1       27.409 -15.603   3.871  0.00  0.00    +0.101 C 
ATOM     11  N   LIG    1       27.146 -16.975   3.465  0.00  0.00    -0.317 NA
ATOM     12  H   LIG    1       27.488 -17.615   4.180  0.00  0.00    +0.122 HD
ENDBRANCH   8  11
ENDBRANCH   1   8
TORSDOF 3
ENDMDL
