MODEL 1
REMARK VINA RESULT:       2.2      0.000      0.000
REMARK  Name = *****
REMARK                            x       y       z     vdW  Elec       q    Type
REMARK                         _______ _______ _______ _____ _____    ______ ____
ROOT
ATOM      1  C   LIG    1       26.541 -15.867   3.726  0.00  0.00    -0.016 C 
ATOM      2  C   LIG    1       25.236 -15.499   3.692  0.00  0.00    -0.011 C 
ATOM      3  C   LIG    1       24.128 -16.398   4.100  0.00  0.00    +0.024 A 
ATOM      4  C   LIG    1       23.151 -16.046   5.050  0.00  0.00    +0.129 A 
ATOM      5  C   LIG    1       22.136 -16.962   5.366  0.00  0.00    +0.046 A 
ATOM      6  C   LIG    1       22.057 -18.204   4.736  0.00  0.00    +0.008 A 
ATOM      7  C   LIG    1       22.965 -18.534   3.729  0.00  0.00    -0.036 A 
ATOM      8  O   LIG    1       22.998 -14.857   5.714  0.00  0.00    -0.487 OA
ATOM      9  C   LIG    1       24.049 -13.893   5.706  0.00  0.00    +0.265 C 
ATOM     10  C   LIG    1       24.313 -13.298   4.345  0.00  0.00    -0.003 A 
ATOM     11  C   LIG    1       23.945 -11.980   4.040  0.00  0.00    +0.007 A 
ATOM     12  C   LIG    1       24.214 -11.451   2.777  0.00  0.00    +0.000 A 
ATOM     13  C   LIG    1       24.852 -12.230   1.812  0.00  0.00    +0.001 A 
ATOM     14  C   LIG    1       25.217 -13.545   2.104  0.00  0.00    +0.009 A 
ATOM     15  C   LIG    1       23.980 -17.619   3.410  0.00  0.00    +0.016 A 
ATOM     16  C   LIG    1       24.946 -14.083   3.366  0.00  0.00    -0.011 A 
ENDROOT
BRANCH   1  17
ATOM     17  C   LIG    1       27.156 -17.159   4.226  0.00  0.00    +0.043 C 
BRANCH  17  18
ATOM     18  C   LIG    1       28.522 -16.978   4.926  0.00  0.00    +0.088 C 
BRANCH  18  20
ATOM     19  C   LIG    1       29.425 -18.162   6.837  0.00  0.00    +0.104 C 
ATOM     20  N   LIG    1       29.137 -18.240   5.400  0.00  0.00    -0.308 NA
ATOM     21  C   LIG    1       28.311 -19.413   5.115  0.00  0.00    +0.104 C 
ENDBRANCH  18  20
ENDBRANCH  17  18
ENDBRANCH   1  17
BRANCH   7  22
ATOM     22  C   LIG    1       22.852 -19.844   2.984  0.00  0.00    +0.155 C 
BRANCH  22  23
ATOM     23  C   LIG    1       23.658 -21.016   3.494  0.00  0.00    +0.309 C 
ATOM     24  O   LIG    1       24.518 -21.572   2.806  0.00  0.00    -0.251 OA
BRANCH  23  25
ATOM     25  O   LIG    1       23.408 -21.433   4.752  0.00  0.00    -0.480 OA
ATOM     26  H   LIG    1       23.255 -22.403   4.851  0.00  0.00    +0.295 HD
ENDBRANCH  23  25
ENDBRANCH  22  23
ENDBRANCH   7  22
TORSDOF 6
ENDMDL
MODEL 2
REMARK VINA RESULT:       4.1      2.695      6.362
REMARK  Name = *****
REMARK                            x       y       z     vdW  Elec       q    Type
REMARK                         _______ _______ _______ _____ _____    ______ ____
ROOT
ATOM      1  C   LIG    1       22.091 -15.956   5.204  0.00  0.00    -0.016 C 
ATOM      2  C   LIG    1       22.466 -17.007   4.433  0.00  0.00    -0.011 C 
ATOM      3  C   LIG    1       23.883 -17.315   4.114  0.00  0.00    +0.024 A 
ATOM      4  C   LIG    1       24.474 -18.572   4.337  0.00  0.00    +0.129 A 
ATOM      5  C   LIG    1       25.820 -18.770   3.996  0.00  0.00    +0.046 A 
ATOM      6  C   LIG    1       26.578 -17.755   3.413  0.00  0.00    +0.008 A 
ATOM      7  C   LIG    1       25.984 -16.531   3.104  0.00  0.00    -0.036 A 
ATOM      8  O   LIG    1       23.888 -19.716   4.813  0.00  0.00    -0.487 OA
ATOM      9  C   LIG    1       22.602 -19.660   5.427  0.00  0.00    +0.265 C 
ATOM     10  C   LIG    1       21.494 -19.282   4.476  0.00  0.00    -0.003 A 
ATOM     11  C   LIG    1       20.554 -20.225   4.038  0.00  0.00    +0.007 A 
ATOM     12  C   LIG    1       19.531 -19.846   3.169  0.00  0.00    +0.000 A 
ATOM     13  C   LIG    1       19.438 -18.524   2.732  0.00  0.00    +0.001 A 
ATOM     14  C   LIG    1       20.372 -17.579   3.157  0.00  0.00    +0.009 A 
ATOM     15  C   LIG    1       24.637 -16.331   3.443  0.00  0.00    +0.016 A 
ATOM     16  C   LIG    1       21.403 -17.954   4.024  0.00  0.00    -0.011 A 
ENDROOT
BRANCH   1  17
ATOM     17  C   LIG    1       22.958 -14.956   5.944  0.00  0.00    +0.043 C 
BRANCH  17  18
ATOM     18  C   LIG    1       24.003 -14.247   5.053  0.00  0.00    +0.088 C 
BRANCH  18  20
ATOM     19  C   LIG    1       23.986 -11.830   5.221  0.00  0.00    +0.104 C 
ATOM     20  N   LIG    1       23.526 -12.984   4.441  0.00  0.00    -0.308 NA
ATOM     21  C   LIG    1       23.937 -12.843   3.043  0.00  0.00    +0.104 C 
ENDBRANCH  18  20
ENDBRANCH  17  18
ENDBRANCH   1  17
BRANCH   7  22
ATOM     22  C   LIG    1       26.769 -15.444   2.406  0.00  0.00    +0.155 C 
BRANCH  22  23
ATOM     23  C   LIG    1       27.319 -14.319   3.253  0.00  0.00    +0.309 C 
ATOM     24  O   LIG    1       27.693 -14.494   4.416  0.00  0.00    -0.251 OA
BRANCH  23  25
ATOM     25  O   LIG    1       27.398 -13.100   2.681  0.00  0.00    -0.480 OA
ATOM     26  H   LIG    1       27.215 -13.078   1.711  0.00  0.00    +0.295 HD
ENDBRANCH  23  25
ENDBRANCH  22  23
ENDBRANCH   7  22
TORSDOF 6
ENDMDL
MODEL 3
REMARK VINA RESULT:       4.2      2.220      6.036
REMARK  Name = *****
REMARK                            x       y       z     vdW  Elec       q    Type
REMARK                         _______ _______ _______ _____ _____    ______ ____
ROOT
ATOM      1  C   LIG    1       27.219 -16.082   2.963  0.00  0.00    -0.016 C 
ATOM      2  C   LIG    1       26.436 -16.792   3.812  0.00  0.00    -0.011 C 
ATOM      3  C   LIG    1       25.014 -16.458   4.078  0.00  0.00    +0.024 A 
ATOM      4  C   LIG    1       23.961 -17.383   3.949  0.00  0.00    +0.129 A 
ATOM      5  C   LIG    1       22.649 -16.975   4.229  0.00  0.00    +0.046 A 
ATOM      6  C   LIG    1       22.368 -15.679   4.661  0.00  0.00    +0.008 A 
ATOM      7  C   LIG    1       23.409 -14.776   4.879  0.00  0.00    -0.036 A 
ATOM      8  O   LIG    1       24.031 -18.713   3.625  0.00  0.00    -0.487 OA
ATOM      9  C   LIG    1       25.234 -19.256   3.085  0.00  0.00    +0.265 C 
ATOM     10  C   LIG    1       26.388 -19.254   4.056  0.00  0.00    -0.003 A 
ATOM     11  C   LIG    1       26.852 -20.441   4.641  0.00  0.00    +0.007 A 
ATOM     12  C   LIG    1       27.930 -20.413   5.525  0.00  0.00    +0.000 A 
ATOM     13  C   LIG    1       28.553 -19.202   5.831  0.00  0.00    +0.001 A 
ATOM     14  C   LIG    1       28.095 -18.015   5.259  0.00  0.00    +0.009 A 
ATOM     15  C   LIG    1       24.724 -15.182   4.601  0.00  0.00    +0.016 A 
ATOM     16  C   LIG    1       27.011 -18.036   4.376  0.00  0.00    -0.011 A 
ENDROOT
BRANCH   1  17
ATOM     17  C   LIG    1       26.848 -14.910   2.076  0.00  0.00    +0.043 C 
BRANCH  17  18
ATOM     18  C   LIG    1       27.135 -13.528   2.706  0.00  0.00    +0.088 C 
BRANCH  18  20
ATOM     19  C   LIG    1       29.133 -12.597   3.710  0.00  0.00    +0.104 C 
ATOM     20  N   LIG    1       28.045 -13.567   3.875  0.00  0.00    -0.308 NA
ATOM     21  C   LIG    1       27.350 -13.333   5.141  0.00  0.00    +0.104 C 
ENDBRANCH  18  20
ENDBRANCH  17  18
ENDBRANCH   1  17
BRANCH   7  22
ATOM     22  C   LIG    1       23.133 -13.391   5.417  0.00  0.00    +0.155 C 
BRANCH  22  23
ATOM     23  C   LIG    1       23.897 -12.235   4.813  0.00  0.00    +0.309 C 
ATOM     24  O   LIG    1       23.889 -12.004   3.601  0.00  0.00    -0.251 OA
BRANCH  23  25
ATOM     25  O   LIG    1       24.591 -11.447   5.659  0.00  0.00    -0.480 OA
ATOM     26  H   LIG    1       24.104 -11.172   6.472  0.00  0.00    +0.295 HD
ENDBRANCH  23  25
ENDBRANCH  22  23
ENDBRANCH   7  22
TORSDOF 6
ENDMDL
