MODEL 1
REMARK VINA RESULT:      -7.4      0.000      0.000
REMARK  Name = *****
REMARK                            x       y       z     vdW  Elec       q    Type
REMARK                         _______ _______ _______ _____ _____    ______ ____
ROOT
ATOM      1  C   LIG    1       24.310 -21.430   6.792  0.00  0.00    +0.159 A 
ATOM      2  C   LIG    1       25.252 -21.185   5.677  0.00  0.00    +0.179 A 
ATOM      3  F   LIG    1       24.850 -21.464   4.425  0.00  0.00    -0.200 F 
ATOM      4  C   LIG    1       26.455 -20.720   5.989  0.00  0.00    +0.135 A 
ATOM      5  N   LIG    1       26.788 -20.482   7.309  0.00  0.00    -0.269 N 
ATOM      6  C   LIG    1       25.853 -20.651   8.339  0.00  0.00    +0.352 A 
ATOM      7  O   LIG    1       26.132 -20.339   9.492  0.00  0.00    -0.244 OA
ATOM      8  N   LIG    1       24.616 -21.175   8.029  0.00  0.00    -0.175 NA
ENDROOT
BRANCH   5   9
ATOM      9  C   LIG    1       28.096 -19.955   7.675  0.00  0.00    +0.235 C 
ATOM     10  O   LIG    1       28.794 -20.919   8.479  0.00  0.00    -0.340 OA
ATOM     11  C   LIG    1       30.162 -20.505   8.604  0.00  0.00    +0.203 C 
ATOM     12  S   LIG    1       30.618 -19.507   7.155  0.00  0.00    -0.123 S 
ATOM     13  C   LIG    1       28.963 -19.642   6.455  0.00  0.00    +0.126 C 
BRANCH  11  14
ATOM     14  C   LIG    1       31.051 -21.753   8.717  0.00  0.00    +0.198 C 
BRANCH  14  15
ATOM     15  O   LIG    1       32.238 -21.502   9.479  0.00  0.00    -0.392 OA
ATOM     16  H   LIG    1       31.973 -21.539  10.416  0.00  0.00    +0.209 HD
ENDBRANCH  14  15
ENDBRANCH  11  14
ENDBRANCH   5   9
BRANCH   1  17
ATOM     17  N   LIG    1       23.066 -21.953   6.551  0.00  0.00    -0.341 N 
ATOM     18  H   LIG    1       22.984 -22.964   6.548  0.00  0.00    +0.144 HD
ATOM     19  H   LIG    1       22.322 -21.471   7.045  0.00  0.00    +0.144 HD
ENDBRANCH   1  17
TORSDOF 4
ENDMDL
MODEL 2
REMARK VINA RESULT:      -7.1      4.134      6.429
REMARK  Name = *****
REMARK                            x       y       z     vdW  Elec       q    Type
REMARK                         _______ _______ _______ _____ _____    ______ ____
ROOT
ATOM      1  C   LIG    1       32.007 -17.358   9.427  0.00  0.00    +0.159 A 
ATOM      2  C   LIG    1       30.584 -17.339   9.832  0.00  0.00    +0.179 A 
ATOM      3  F   LIG    1       30.213 -16.522  10.832  0.00  0.00    -0.200 F 
ATOM      4  C   LIG    1       29.759 -18.157   9.190  0.00  0.00    +0.135 A 
ATOM      5  N   LIG    1       30.235 -18.979   8.187  0.00  0.00    -0.269 N 
ATOM      6  C   LIG    1       31.572 -18.923   7.771  0.00  0.00    +0.352 A 
ATOM      7  O   LIG    1       31.955 -19.586   6.812  0.00  0.00    -0.244 OA
ATOM      8  N   LIG    1       32.446 -18.110   8.461  0.00  0.00    -0.175 NA
ENDROOT
BRANCH   5   9
ATOM      9  C   LIG    1       29.346 -19.872   7.456  0.00  0.00    +0.235 C 
ATOM     10  O   LIG    1       28.268 -20.284   8.311  0.00  0.00    -0.340 OA
ATOM     11  C   LIG    1       27.272 -20.935   7.511  0.00  0.00    +0.203 C 
ATOM     12  S   LIG    1       27.357 -20.292   5.812  0.00  0.00    -0.123 S 
ATOM     13  C   LIG    1       28.738 -19.209   6.219  0.00  0.00    +0.126 C 
BRANCH  11  14
ATOM     14  C   LIG    1       25.889 -20.678   8.130  0.00  0.00    +0.198 C 
BRANCH  14  15
ATOM     15  O   LIG    1       25.973 -20.365   9.525  0.00  0.00    -0.392 OA
ATOM     16  H   LIG    1       26.852 -19.967   9.662  0.00  0.00    +0.209 HD
ENDBRANCH  14  15
ENDBRANCH  11  14
ENDBRANCH   5   9
BRANCH   1  17
ATOM     17  N   LIG    1       32.927 -16.575  10.075  0.00  0.00    -0.341 N 
ATOM     18  H   LIG    1       33.077 -15.641   9.710  0.00  0.00    +0.144 HD
ATOM     19  H   LIG    1       32.859 -16.626  11.087  0.00  0.00    +0.144 HD
ENDBRANCH   1  17
TORSDOF 4
ENDMDL
MODEL 3
REMARK VINA RESULT:      -6.7      2.216      2.405
REMARK  Name = *****
REMARK                            x       y       z     vdW  Elec       q    Type
REMARK                         _______ _______ _______ _____ _____    ______ ____
ROOT
ATOM      1  C   LIG    1       24.510 -23.293   6.315  0.00  0.00    +0.159 A 
ATOM      2  C   LIG    1       25.761 -23.601   7.042  0.00  0.00    +0.179 A 
ATOM      3  F   LIG    1       25.947 -24.851   7.497  0.00  0.00    -0.200 F 
ATOM      4  C   LIG    1       26.621 -22.605   7.221  0.00  0.00    +0.135 A 
ATOM      5  N   LIG    1       26.335 -21.344   6.735  0.00  0.00    -0.269 N 
ATOM      6  C   LIG    1       25.178 -21.096   5.984  0.00  0.00    +0.352 A 
ATOM      7  O   LIG    1       24.989 -19.996   5.475  0.00  0.00    -0.244 OA
ATOM      8  N   LIG    1       24.259 -22.112   5.832  0.00  0.00    -0.175 NA
ENDROOT
BRANCH   5   9
ATOM      9  C   LIG    1       27.270 -20.240   6.903  0.00  0.00    +0.235 C 
ATOM     10  O   LIG    1       28.185 -20.542   7.968  0.00  0.00    -0.340 OA
ATOM     11  C   LIG    1       29.250 -19.581   7.943  0.00  0.00    +0.203 C 
ATOM     12  S   LIG    1       29.453 -18.959   6.247  0.00  0.00    -0.123 S 
ATOM     13  C   LIG    1       28.090 -19.969   5.640  0.00  0.00    +0.126 C 
BRANCH  11  14
ATOM     14  C   LIG    1       30.539 -20.253   8.442  0.00  0.00    +0.198 C 
BRANCH  14  15
ATOM     15  O   LIG    1       31.562 -20.267   7.439  0.00  0.00    -0.392 OA
ATOM     16  H   LIG    1       31.884 -21.185   7.391  0.00  0.00    +0.209 HD
ENDBRANCH  14  15
ENDBRANCH  11  14
ENDBRANCH   5   9
BRANCH   1  17
ATOM     17  N   LIG    1       23.554 -24.258   6.133  0.00  0.00    -0.341 N 
ATOM     18  H   LIG    1       22.731 -24.210   6.724  0.00  0.00    +0.144 HD
ATOM     19  H   LIG    1       23.360 -24.456   5.156  0.00  0.00    +0.144 HD
ENDBRANCH   1  17
TORSDOF 4
ENDMDL
MODEL 4
REMARK VINA RESULT:      -6.6      3.735      5.864
REMARK  Name = *****
REMARK                            x       y       z     vdW  Elec       q    Type
REMARK                         _______ _______ _______ _____ _____    ______ ____
ROOT
ATOM      1  C   LIG    1       30.109 -20.258   7.245  0.00  0.00    +0.159 A 
ATOM      2  C   LIG    1       29.402 -21.254   8.080  0.00  0.00    +0.179 A 
ATOM      3  F   LIG    1       30.086 -21.875   9.056  0.00  0.00    -0.200 F 
ATOM      4  C   LIG    1       28.127 -21.491   7.796  0.00  0.00    +0.135 A 
ATOM      5  N   LIG    1       27.510 -20.818   6.758  0.00  0.00    -0.269 N 
ATOM      6  C   LIG    1       28.180 -19.826   6.030  0.00  0.00    +0.352 A 
ATOM      7  O   LIG    1       27.588 -19.168   5.181  0.00  0.00    -0.244 OA
ATOM      8  N   LIG    1       29.516 -19.605   6.290  0.00  0.00    -0.175 NA
ENDROOT
BRANCH   5   9
ATOM      9  C   LIG    1       26.107 -21.047   6.437  0.00  0.00    +0.235 C 
ATOM     10  O   LIG    1       25.899 -22.441   6.160  0.00  0.00    -0.340 OA
ATOM     11  C   LIG    1       24.487 -22.691   6.111  0.00  0.00    +0.203 C 
ATOM     12  S   LIG    1       23.628 -21.472   7.151  0.00  0.00    -0.123 S 
ATOM     13  C   LIG    1       25.173 -20.650   7.581  0.00  0.00    +0.126 C 
BRANCH  11  14
ATOM     14  C   LIG    1       24.218 -24.122   6.603  0.00  0.00    +0.198 C 
BRANCH  14  15
ATOM     15  O   LIG    1       22.820 -24.434   6.614  0.00  0.00    -0.392 OA
ATOM     16  H   LIG    1       22.757 -25.406   6.602  0.00  0.00    +0.209 HD
ENDBRANCH  14  15
ENDBRANCH  11  14
ENDBRANCH   5   9
BRANCH   1  17
ATOM     17  N   LIG    1       31.438 -19.996   7.450  0.00  0.00    -0.341 N 
ATOM     18  H   LIG    1       31.672 -19.359   8.204  0.00  0.00    +0.144 HD
ATOM     19  H   LIG    1       32.026 -20.823   7.399  0.00  0.00    +0.144 HD
ENDBRANCH   1  17
TORSDOF 4
ENDMDL
MODEL 5
REMARK VINA RESULT:      -6.4      4.088      4.804
REMARK  Name = *****
REMARK                            x       y       z     vdW  Elec       q    Type
REMARK                         _______ _______ _______ _____ _____    ______ ____
ROOT
ATOM      1  C   LIG    1       24.559 -26.873   5.641  0.00  0.00    +0.159 A 
ATOM      2  C   LIG    1       25.946 -26.358   5.591  0.00  0.00    +0.179 A 
ATOM      3  F   LIG    1       26.916 -27.171   5.141  0.00  0.00    -0.200 F 
ATOM      4  C   LIG    1       26.150 -25.119   6.021  0.00  0.00    +0.135 A 
ATOM      5  N   LIG    1       25.092 -24.362   6.488  0.00  0.00    -0.269 N 
ATOM      6  C   LIG    1       23.777 -24.846   6.454  0.00  0.00    +0.352 A 
ATOM      7  O   LIG    1       22.839 -24.125   6.777  0.00  0.00    -0.244 OA
ATOM      8  N   LIG    1       23.562 -26.147   6.051  0.00  0.00    -0.175 NA
ENDROOT
BRANCH   5   9
ATOM      9  C   LIG    1       25.288 -22.994   6.949  0.00  0.00    +0.235 C 
ATOM     10  O   LIG    1       26.573 -22.877   7.578  0.00  0.00    -0.340 OA
ATOM     11  C   LIG    1       26.858 -21.486   7.782  0.00  0.00    +0.203 C 
ATOM     12  S   LIG    1       25.975 -20.506   6.531  0.00  0.00    -0.123 S 
ATOM     13  C   LIG    1       25.228 -21.978   5.807  0.00  0.00    +0.126 C 
BRANCH  11  14
ATOM     14  C   LIG    1       28.376 -21.269   7.683  0.00  0.00    +0.198 C 
BRANCH  14  15
ATOM     15  O   LIG    1       28.795 -20.076   8.356  0.00  0.00    -0.392 OA
ATOM     16  H   LIG    1       28.385 -20.104   9.239  0.00  0.00    +0.209 HD
ENDBRANCH  14  15
ENDBRANCH  11  14
ENDBRANCH   5   9
BRANCH   1  17
ATOM     17  N   LIG    1       24.280 -28.159   5.257  0.00  0.00    -0.341 N 
ATOM     18  H   LIG    1       23.491 -28.612   5.705  0.00  0.00    +0.144 HD
ATOM     19  H   LIG    1       24.335 -28.302   4.254  0.00  0.00    +0.144 HD
ENDBRANCH   1  17
TORSDOF 4
ENDMDL
MODEL 6
REMARK VINA RESULT:      -6.3      3.437      5.590
REMARK  Name = *****
REMARK                            x       y       z     vdW  Elec       q    Type
REMARK                         _______ _______ _______ _____ _____    ______ ____
ROOT
ATOM      1  C   LIG    1       29.986 -20.291   7.671  0.00  0.00    +0.159 A 
ATOM      2  C   LIG    1       29.509 -19.656   6.422  0.00  0.00    +0.179 A 
ATOM      3  F   LIG    1       30.367 -18.898   5.720  0.00  0.00    -0.200 F 
ATOM      4  C   LIG    1       28.242 -19.861   6.082  0.00  0.00    +0.135 A 
ATOM      5  N   LIG    1       27.426 -20.641   6.878  0.00  0.00    -0.269 N 
ATOM      6  C   LIG    1       27.921 -21.292   8.016  0.00  0.00    +0.352 A 
ATOM      7  O   LIG    1       27.210 -22.061   8.654  0.00  0.00    -0.244 OA
ATOM      8  N   LIG    1       29.223 -21.050   8.401  0.00  0.00    -0.175 NA
ENDROOT
BRANCH   5   9
ATOM      9  C   LIG    1       26.037 -20.894   6.516  0.00  0.00    +0.235 C 
ATOM     10  O   LIG    1       25.872 -22.281   6.184  0.00  0.00    -0.340 OA
ATOM     11  C   LIG    1       24.469 -22.566   6.094  0.00  0.00    +0.203 C 
ATOM     12  S   LIG    1       23.555 -21.408   7.156  0.00  0.00    -0.123 S 
ATOM     13  C   LIG    1       25.067 -20.563   7.652  0.00  0.00    +0.126 C 
BRANCH  11  14
ATOM     14  C   LIG    1       24.227 -24.021   6.526  0.00  0.00    +0.198 C 
BRANCH  14  15
ATOM     15  O   LIG    1       22.832 -24.332   6.612  0.00  0.00    -0.392 OA
ATOM     16  H   LIG    1       22.355 -23.519   6.364  0.00  0.00    +0.209 HD
ENDBRANCH  14  15
ENDBRANCH  11  14
ENDBRANCH   5   9
BRANCH   1  17
ATOM     17  N   LIG    1       31.268 -20.087   8.111  0.00  0.00    -0.341 N 
ATOM     18  H   LIG    1       31.909 -19.636   7.468  0.00  0.00    +0.144 HD
ATOM     19  H   LIG    1       31.318 -19.746   9.065  0.00  0.00    +0.144 HD
ENDBRANCH   1  17
TORSDOF 4
ENDMDL
MODEL 7
REMARK VINA RESULT:      -6.2      4.715      5.737
REMARK  Name = *****
REMARK                            x       y       z     vdW  Elec       q    Type
REMARK                         _______ _______ _______ _____ _____    ______ ____
ROOT
ATOM      1  C   LIG    1       23.191 -19.968   4.942  0.00  0.00    +0.159 A 
ATOM      2  C   LIG    1       23.957 -20.909   4.095  0.00  0.00    +0.179 A 
ATOM      3  F   LIG    1       24.233 -20.553   2.829  0.00  0.00    -0.200 F 
ATOM      4  C   LIG    1       24.307 -22.069   4.638  0.00  0.00    +0.135 A 
ATOM      5  N   LIG    1       23.959 -22.359   5.943  0.00  0.00    -0.269 N 
ATOM      6  C   LIG    1       23.299 -21.420   6.748  0.00  0.00    +0.352 A 
ATOM      7  O   LIG    1       23.088 -21.654   7.934  0.00  0.00    -0.244 OA
ATOM      8  N   LIG    1       22.893 -20.231   6.180  0.00  0.00    -0.175 NA
ENDROOT
BRANCH   5   9
ATOM      9  C   LIG    1       24.347 -23.617   6.567  0.00  0.00    +0.235 C 
ATOM     10  O   LIG    1       23.739 -24.710   5.861  0.00  0.00    -0.340 OA
ATOM     11  C   LIG    1       24.336 -25.934   6.313  0.00  0.00    +0.203 C 
ATOM     12  S   LIG    1       26.024 -25.595   6.897  0.00  0.00    -0.123 S 
ATOM     13  C   LIG    1       25.861 -23.833   6.557  0.00  0.00    +0.126 C 
BRANCH  11  14
ATOM     14  C   LIG    1       24.346 -26.942   5.153  0.00  0.00    +0.198 C 
BRANCH  14  15
ATOM     15  O   LIG    1       23.857 -28.228   5.551  0.00  0.00    -0.392 OA
ATOM     16  H   LIG    1       24.376 -28.883   5.052  0.00  0.00    +0.209 HD
ENDBRANCH  14  15
ENDBRANCH  11  14
ENDBRANCH   5   9
BRANCH   1  17
ATOM     17  N   LIG    1       22.755 -18.772   4.436  0.00  0.00    -0.341 N 
ATOM     18  H   LIG    1       23.149 -18.475   3.549  0.00  0.00    +0.144 HD
ATOM     19  H   LIG    1       21.752 -18.640   4.517  0.00  0.00    +0.144 HD
ENDBRANCH   1  17
TORSDOF 4
ENDMDL
MODEL 8
REMARK VINA RESULT:      -6.2      3.561      5.790
REMARK  Name = *****
REMARK                            x       y       z     vdW  Elec       q    Type
REMARK                         _______ _______ _______ _____ _____    ______ ____
ROOT
ATOM      1  C   LIG    1       30.137 -19.896   7.425  0.00  0.00    +0.159 A 
ATOM      2  C   LIG    1       29.552 -19.383   6.165  0.00  0.00    +0.179 A 
ATOM      3  F   LIG    1       30.335 -18.668   5.340  0.00  0.00    -0.200 F 
ATOM      4  C   LIG    1       28.271 -19.646   5.939  0.00  0.00    +0.135 A 
ATOM      5  N   LIG    1       27.537 -20.373   6.857  0.00  0.00    -0.269 N 
ATOM      6  C   LIG    1       28.133 -20.911   8.006  0.00  0.00    +0.352 A 
ATOM      7  O   LIG    1       27.493 -21.638   8.758  0.00  0.00    -0.244 OA
ATOM      8  N   LIG    1       29.451 -20.606   8.271  0.00  0.00    -0.175 NA
ENDROOT
BRANCH   5   9
ATOM      9  C   LIG    1       26.135 -20.689   6.623  0.00  0.00    +0.235 C 
ATOM     10  O   LIG    1       25.695 -20.057   5.411  0.00  0.00    -0.340 OA
ATOM     11  C   LIG    1       24.410 -20.589   5.057  0.00  0.00    +0.203 C 
ATOM     12  S   LIG    1       24.256 -22.272   5.727  0.00  0.00    -0.123 S 
ATOM     13  C   LIG    1       25.889 -22.193   6.485  0.00  0.00    +0.126 C 
BRANCH  11  14
ATOM     14  C   LIG    1       24.275 -20.589   3.527  0.00  0.00    +0.198 C 
BRANCH  14  15
ATOM     15  O   LIG    1       23.845 -21.860   3.024  0.00  0.00    -0.392 OA
ATOM     16  H   LIG    1       23.022 -22.076   3.500  0.00  0.00    +0.209 HD
ENDBRANCH  14  15
ENDBRANCH  11  14
ENDBRANCH   5   9
BRANCH   1  17
ATOM     17  N   LIG    1       31.440 -19.624   7.749  0.00  0.00    -0.341 N 
ATOM     18  H   LIG    1       31.600 -18.959   8.498  0.00  0.00    +0.144 HD
ATOM     19  H   LIG    1       32.028 -20.451   7.786  0.00  0.00    +0.144 HD
ENDBRANCH   1  17
TORSDOF 4
ENDMDL
MODEL 9
REMARK VINA RESULT:      -6.1      2.312      2.811
REMARK  Name = *****
REMARK                            x       y       z     vdW  Elec       q    Type
REMARK                         _______ _______ _______ _____ _____    ______ ____
ROOT
ATOM      1  C   LIG    1       25.628 -21.599   6.205  0.00  0.00    +0.159 A 
ATOM      2  C   LIG    1       26.344 -22.257   7.321  0.00  0.00    +0.179 A 
ATOM      3  F   LIG    1       25.753 -23.294   7.939  0.00  0.00    -0.200 F 
ATOM      4  C   LIG    1       27.529 -21.763   7.659  0.00  0.00    +0.135 A 
ATOM      5  N   LIG    1       28.049 -20.678   6.978  0.00  0.00    -0.269 N 
ATOM      6  C   LIG    1       27.385 -20.120   5.877  0.00  0.00    +0.352 A 
ATOM      7  O   LIG    1       27.908 -19.224   5.222  0.00  0.00    -0.244 OA
ATOM      8  N   LIG    1       26.135 -20.599   5.547  0.00  0.00    -0.175 NA
ENDROOT
BRANCH   5   9
ATOM      9  C   LIG    1       29.354 -20.128   7.319  0.00  0.00    +0.235 C 
ATOM     10  O   LIG    1       29.185 -18.881   8.009  0.00  0.00    -0.340 OA
ATOM     11  C   LIG    1       30.449 -18.491   8.566  0.00  0.00    +0.203 C 
ATOM     12  S   LIG    1       31.447 -19.978   8.879  0.00  0.00    -0.123 S 
ATOM     13  C   LIG    1       30.165 -21.060   8.221  0.00  0.00    +0.126 C 
BRANCH  11  14
ATOM     14  C   LIG    1       30.200 -17.711   9.867  0.00  0.00    +0.198 C 
BRANCH  14  15
ATOM     15  O   LIG    1       30.600 -18.453  11.025  0.00  0.00    -0.392 OA
ATOM     16  H   LIG    1       30.231 -19.348  10.916  0.00  0.00    +0.209 HD
ENDBRANCH  14  15
ENDBRANCH  11  14
ENDBRANCH   5   9
BRANCH   1  17
ATOM     17  N   LIG    1       24.380 -22.025   5.831  0.00  0.00    -0.341 N 
ATOM     18  H   LIG    1       24.247 -23.025   5.725  0.00  0.00    +0.144 HD
ATOM     19  H   LIG    1       23.627 -21.548   6.318  0.00  0.00    +0.144 HD
ENDBRANCH   1  17
TORSDOF 4
ENDMDL
