MODEL 1
REMARK VINA RESULT:      -6.6      0.000      0.000
REMARK  Name = *****
REMARK                            x       y       z     vdW  Elec       q    Type
REMARK                         _______ _______ _______ _____ _____    ______ ____
ROOT
ATOM      1  C   LIG    1       25.139 -29.245   5.163  0.00  0.00    +0.011 C 
ATOM      2  C   LIG    1       25.493 -29.793   6.541  0.00  0.00    +0.026 C 
ATOM      3  C   LIG    1       25.538 -31.328   6.682  0.00  0.00    +0.133 C 
ATOM      4  C   LIG    1       25.479 -31.506   8.249  0.00  0.00    +0.014 C 
ATOM      5  C   LIG    1       24.366 -30.490   8.647  0.00  0.00    +0.005 C 
ATOM      6  C   LIG    1       24.318 -29.985  10.116  0.00  0.00    +0.039 C 
ATOM      7  C   LIG    1       25.563 -30.327  10.948  0.00  0.00    +0.184 C 
ATOM      8  C   LIG    1       26.749 -30.134  10.014  0.00  0.00    +0.172 C 
ATOM      9  O   LIG    1       27.559 -29.213  10.098  0.00  0.00    -0.294 OA
ATOM     10  F   LIG    1       25.496 -31.666  11.262  0.00  0.00    -0.232 F 
ATOM     11  C   LIG    1       25.596 -29.568  12.314  0.00  0.00    +0.049 C 
ATOM     12  C   LIG    1       24.261 -29.825  13.082  0.00  0.00    -0.053 C 
ATOM     13  C   LIG    1       24.128 -29.244  14.298  0.00  0.00    +0.051 C 
ATOM     14  C   LIG    1       24.251 -27.739  14.184  0.00  0.00    +0.179 C 
ATOM     15  C   LIG    1       25.103 -27.209  13.076  0.00  0.00    +0.047 C 
ATOM     16  O   LIG    1       23.737 -26.994  15.007  0.00  0.00    -0.288 OA
ATOM     17  C   LIG    1       22.981 -29.873  12.249  0.00  0.00    +0.032 C 
ATOM     18  C   LIG    1       26.794 -30.115  13.133  0.00  0.00    +0.024 C 
ATOM     19  C   LIG    1       25.739 -28.044  12.233  0.00  0.00    -0.009 C 
ATOM     20  C   LIG    1       23.097 -30.525  10.872  0.00  0.00    +0.011 C 
ATOM     21  C   LIG    1       25.095 -32.953   8.619  0.00  0.00    +0.015 C 
ATOM     22  C   LIG    1       26.856 -31.170   8.910  0.00  0.00    +0.088 C 
ATOM     23  C   LIG    1       24.547 -29.311   7.650  0.00  0.00    +0.011 C 
ENDROOT
BRANCH   3  24
ATOM     24  O   LIG    1       26.779 -31.823   6.192  0.00  0.00    -0.380 OA
ATOM     25  H   LIG    1       27.410 -31.079   6.135  0.00  0.00    +0.211 HD
ENDBRANCH   3  24
BRANCH   3  26
ATOM     26  C   LIG    1       24.344 -32.026   5.955  0.00  0.00    +0.180 C 
ATOM     27  O   LIG    1       23.189 -31.596   6.028  0.00  0.00    -0.293 OA
BRANCH  26  28
ATOM     28  C   LIG    1       24.640 -33.280   5.165  0.00  0.00    +0.186 C 
ATOM     29 CL   LIG    1       25.172 -32.818   3.538  0.00  0.00    -0.117 Cl
ENDBRANCH  26  28
ENDBRANCH   3  26
TORSDOF 3
ENDMDL
MODEL 2
REMARK VINA RESULT:      -6.2      2.993      7.198
REMARK  Name = *****
REMARK                            x       y       z     vdW  Elec       q    Type
REMARK                         _______ _______ _______ _____ _____    ______ ____
ROOT
ATOM      1  C   LIG    1       26.958 -27.430  11.753  0.00  0.00    +0.011 C 
ATOM      2  C   LIG    1       26.157 -28.556  11.110  0.00  0.00    +0.026 C 
ATOM      3  C   LIG    1       25.588 -29.629  12.062  0.00  0.00    +0.133 C 
ATOM      4  C   LIG    1       25.246 -30.797  11.059  0.00  0.00    +0.014 C 
ATOM      5  C   LIG    1       26.514 -30.825  10.153  0.00  0.00    +0.005 C 
ATOM      6  C   LIG    1       26.404 -31.482   8.748  0.00  0.00    +0.039 C 
ATOM      7  C   LIG    1       24.967 -31.775   8.293  0.00  0.00    +0.184 C 
ATOM      8  C   LIG    1       24.139 -30.583   8.749  0.00  0.00    +0.172 C 
ATOM      9  O   LIG    1       23.672 -29.731   7.994  0.00  0.00    -0.294 OA
ATOM     10  F   LIG    1       24.528 -32.877   8.994  0.00  0.00    -0.232 F 
ATOM     11  C   LIG    1       24.887 -32.170   6.783  0.00  0.00    +0.049 C 
ATOM     12  C   LIG    1       25.868 -33.351   6.503  0.00  0.00    -0.053 C 
ATOM     13  C   LIG    1       25.915 -33.825   5.234  0.00  0.00    +0.051 C 
ATOM     14  C   LIG    1       26.313 -32.726   4.271  0.00  0.00    +0.179 C 
ATOM     15  C   LIG    1       25.939 -31.328   4.644  0.00  0.00    +0.047 C 
ATOM     16  O   LIG    1       26.850 -32.980   3.202  0.00  0.00    -0.288 OA
ATOM     17  C   LIG    1       27.212 -33.323   7.229  0.00  0.00    +0.032 C 
ATOM     18  C   LIG    1       23.429 -32.606   6.482  0.00  0.00    +0.024 C 
ATOM     19  C   LIG    1       25.265 -31.072   5.781  0.00  0.00    -0.009 C 
ATOM     20  C   LIG    1       27.191 -32.796   8.663  0.00  0.00    +0.011 C 
ATOM     21  C   LIG    1       25.052 -32.127  11.816  0.00  0.00    +0.015 C 
ATOM     22  C   LIG    1       23.944 -30.488  10.250  0.00  0.00    +0.088 C 
ATOM     23  C   LIG    1       26.944 -29.334  10.047  0.00  0.00    +0.011 C 
ENDROOT
BRANCH   3  24
ATOM     24  O   LIG    1       24.390 -29.153  12.667  0.00  0.00    -0.380 OA
ATOM     25  H   LIG    1       23.635 -29.398  12.098  0.00  0.00    +0.211 HD
ENDBRANCH   3  24
BRANCH   3  26
ATOM     26  C   LIG    1       26.620 -30.059  13.154  0.00  0.00    +0.180 C 
ATOM     27  O   LIG    1       27.760 -30.437  12.867  0.00  0.00    -0.293 OA
BRANCH  26  28
ATOM     28  C   LIG    1       26.170 -30.026  14.596  0.00  0.00    +0.186 C 
ATOM     29 CL   LIG    1       26.552 -28.433  15.277  0.00  0.00    -0.117 Cl
ENDBRANCH  26  28
ENDBRANCH   3  26
TORSDOF 3
ENDMDL
MODEL 3
REMARK VINA RESULT:      -5.9      1.729      2.084
REMARK  Name = *****
REMARK                            x       y       z     vdW  Elec       q    Type
REMARK                         _______ _______ _______ _____ _____    ______ ____
ROOT
ATOM      1  C   LIG    1       25.214 -29.651   6.250  0.00  0.00    +0.011 C 
ATOM      2  C   LIG    1       25.232 -29.912   7.751  0.00  0.00    +0.026 C 
ATOM      3  C   LIG    1       25.592 -31.343   8.199  0.00  0.00    +0.133 C 
ATOM      4  C   LIG    1       25.084 -31.348   9.692  0.00  0.00    +0.014 C 
ATOM      5  C   LIG    1       23.695 -30.652   9.562  0.00  0.00    +0.005 C 
ATOM      6  C   LIG    1       23.065 -30.015  10.833  0.00  0.00    +0.039 C 
ATOM      7  C   LIG    1       24.026 -29.889  12.024  0.00  0.00    +0.184 C 
ATOM      8  C   LIG    1       25.366 -29.477  11.432  0.00  0.00    +0.172 C 
ATOM      9  O   LIG    1       25.865 -28.360  11.553  0.00  0.00    -0.294 OA
ATOM     10  F   LIG    1       24.182 -31.147  12.565  0.00  0.00    -0.232 F 
ATOM     11  C   LIG    1       23.444 -29.000  13.170  0.00  0.00    +0.049 C 
ATOM     12  C   LIG    1       22.035 -29.536  13.577  0.00  0.00    -0.053 C 
ATOM     13  C   LIG    1       21.390 -28.880  14.572  0.00  0.00    +0.051 C 
ATOM     14  C   LIG    1       21.183 -27.426  14.202  0.00  0.00    +0.179 C 
ATOM     15  C   LIG    1       22.192 -26.808  13.289  0.00  0.00    +0.047 C 
ATOM     16  O   LIG    1       20.274 -26.768  14.689  0.00  0.00    -0.288 OA
ATOM     17  C   LIG    1       21.134 -30.043  12.452  0.00  0.00    +0.032 C 
ATOM     18  C   LIG    1       24.414 -29.085  14.377  0.00  0.00    +0.024 C 
ATOM     19  C   LIG    1       23.240 -27.518  12.833  0.00  0.00    -0.009 C 
ATOM     20  C   LIG    1       21.832 -30.789  11.315  0.00  0.00    +0.011 C 
ATOM     21  C   LIG    1       24.956 -32.791  10.220  0.00  0.00    +0.015 C 
ATOM     22  C   LIG    1       26.059 -30.559  10.626  0.00  0.00    +0.088 C 
ATOM     23  C   LIG    1       23.898 -29.594   8.441  0.00  0.00    +0.011 C 
ENDROOT
BRANCH   3  24
ATOM     24  O   LIG    1       27.005 -31.517   8.175  0.00  0.00    -0.380 OA
ATOM     25  H   LIG    1       27.273 -31.759   7.267  0.00  0.00    +0.211 HD
ENDBRANCH   3  24
BRANCH   3  26
ATOM     26  C   LIG    1       24.891 -32.432   7.324  0.00  0.00    +0.180 C 
ATOM     27  O   LIG    1       23.667 -32.458   7.166  0.00  0.00    -0.293 OA
BRANCH  26  28
ATOM     28  C   LIG    1       25.763 -33.487   6.684  0.00  0.00    +0.186 C 
ATOM     29 CL   LIG    1       26.311 -32.895   5.105  0.00  0.00    -0.117 Cl
ENDBRANCH  26  28
ENDBRANCH   3  26
TORSDOF 3
ENDMDL
MODEL 4
REMARK VINA RESULT:      -5.8      3.081      4.130
REMARK  Name = *****
REMARK                            x       y       z     vdW  Elec       q    Type
REMARK                         _______ _______ _______ _____ _____    ______ ____
ROOT
ATOM      1  C   LIG    1       24.023 -31.479   8.152  0.00  0.00    +0.011 C 
ATOM      2  C   LIG    1       24.215 -31.163   9.631  0.00  0.00    +0.026 C 
ATOM      3  C   LIG    1       23.404 -32.013  10.630  0.00  0.00    +0.133 C 
ATOM      4  C   LIG    1       23.501 -31.143  11.942  0.00  0.00    +0.014 C 
ATOM      5  C   LIG    1       23.240 -29.706  11.397  0.00  0.00    +0.005 C 
ATOM      6  C   LIG    1       23.719 -28.495  12.246  0.00  0.00    +0.039 C 
ATOM      7  C   LIG    1       24.662 -28.860  13.401  0.00  0.00    +0.184 C 
ATOM      8  C   LIG    1       25.583 -29.942  12.854  0.00  0.00    +0.172 C 
ATOM      9  O   LIG    1       26.774 -29.776  12.596  0.00  0.00    -0.294 OA
ATOM     10  F   LIG    1       23.898 -29.431  14.395  0.00  0.00    -0.232 F 
ATOM     11  C   LIG    1       25.333 -27.604  14.045  0.00  0.00    +0.049 C 
ATOM     12  C   LIG    1       24.229 -26.582  14.460  0.00  0.00    -0.053 C 
ATOM     13  C   LIG    1       24.643 -25.433  15.047  0.00  0.00    +0.051 C 
ATOM     14  C   LIG    1       25.578 -24.674  14.129  0.00  0.00    +0.179 C 
ATOM     15  C   LIG    1       26.393 -25.482  13.171  0.00  0.00    +0.047 C 
ATOM     16  O   LIG    1       25.714 -23.462  14.218  0.00  0.00    -0.288 OA
ATOM     17  C   LIG    1       23.036 -26.429  13.518  0.00  0.00    +0.032 C 
ATOM     18  C   LIG    1       26.121 -28.075  15.296  0.00  0.00    +0.024 C 
ATOM     19  C   LIG    1       26.301 -26.825  13.146  0.00  0.00    -0.009 C 
ATOM     20  C   LIG    1       22.544 -27.708  12.842  0.00  0.00    +0.011 C 
ATOM     21  C   LIG    1       22.429 -31.573  12.963  0.00  0.00    +0.015 C 
ATOM     22  C   LIG    1       24.909 -31.279  12.609  0.00  0.00    +0.088 C 
ATOM     23  C   LIG    1       23.898 -29.704   9.988  0.00  0.00    +0.011 C 
ENDROOT
BRANCH   3  24
ATOM     24  O   LIG    1       24.049 -33.264  10.837  0.00  0.00    -0.380 OA
ATOM     25  H   LIG    1       23.904 -33.539  11.763  0.00  0.00    +0.211 HD
ENDBRANCH   3  24
BRANCH   3  26
ATOM     26  C   LIG    1       21.928 -32.228  10.163  0.00  0.00    +0.180 C 
ATOM     27  O   LIG    1       21.187 -31.285   9.870  0.00  0.00    -0.293 OA
BRANCH  26  28
ATOM     28  C   LIG    1       21.412 -33.647  10.101  0.00  0.00    +0.186 C 
ATOM     29 CL   LIG    1       20.088 -33.825  11.267  0.00  0.00    -0.117 Cl
ENDBRANCH  26  28
ENDBRANCH   3  26
TORSDOF 3
ENDMDL
MODEL 5
REMARK VINA RESULT:      -5.6      2.993      7.052
REMARK  Name = *****
REMARK                            x       y       z     vdW  Elec       q    Type
REMARK                         _______ _______ _______ _____ _____    ______ ____
ROOT
ATOM      1  C   LIG    1       21.195 -31.418  13.023  0.00  0.00    +0.011 C 
ATOM      2  C   LIG    1       22.515 -31.385  12.260  0.00  0.00    +0.026 C 
ATOM      3  C   LIG    1       23.521 -30.290  12.668  0.00  0.00    +0.133 C 
ATOM      4  C   LIG    1       24.498 -30.278  11.431  0.00  0.00    +0.014 C 
ATOM      5  C   LIG    1       23.502 -30.335  10.233  0.00  0.00    +0.005 C 
ATOM      6  C   LIG    1       24.030 -30.827   8.856  0.00  0.00    +0.039 C 
ATOM      7  C   LIG    1       25.418 -31.482   8.903  0.00  0.00    +0.184 C 
ATOM      8  C   LIG    1       25.437 -32.316  10.176  0.00  0.00    +0.172 C 
ATOM      9  O   LIG    1       25.407 -33.544  10.203  0.00  0.00    -0.294 OA
ATOM     10  F   LIG    1       26.346 -30.475   9.053  0.00  0.00    -0.232 F 
ATOM     11  C   LIG    1       25.784 -32.205   7.566  0.00  0.00    +0.049 C 
ATOM     12  C   LIG    1       25.620 -31.207   6.376  0.00  0.00    -0.053 C 
ATOM     13  C   LIG    1       25.909 -31.674   5.137  0.00  0.00    +0.051 C 
ATOM     14  C   LIG    1       25.032 -32.862   4.799  0.00  0.00    +0.179 C 
ATOM     15  C   LIG    1       24.564 -33.707   5.940  0.00  0.00    +0.047 C 
ATOM     16  O   LIG    1       24.780 -33.158   3.640  0.00  0.00    -0.288 OA
ATOM     17  C   LIG    1       24.440 -30.240   6.439  0.00  0.00    +0.032 C 
ATOM     18  C   LIG    1       27.258 -32.675   7.668  0.00  0.00    +0.024 C 
ATOM     19  C   LIG    1       24.926 -33.423   7.205  0.00  0.00    -0.009 C 
ATOM     20  C   LIG    1       24.090 -29.694   7.823  0.00  0.00    +0.011 C 
ATOM     21  C   LIG    1       25.342 -28.987  11.415  0.00  0.00    +0.015 C 
ATOM     22  C   LIG    1       25.466 -31.506  11.459  0.00  0.00    +0.088 C 
ATOM     23  C   LIG    1       22.338 -31.229  10.744  0.00  0.00    +0.011 C 
ENDROOT
BRANCH   3  24
ATOM     24  O   LIG    1       24.231 -30.695  13.834  0.00  0.00    -0.380 OA
ATOM     25  H   LIG    1       24.968 -31.276  13.563  0.00  0.00    +0.211 HD
ENDBRANCH   3  24
BRANCH   3  26
ATOM     26  C   LIG    1       22.831 -28.908  12.901  0.00  0.00    +0.180 C 
ATOM     27  O   LIG    1       21.886 -28.521  12.206  0.00  0.00    -0.293 OA
BRANCH  26  28
ATOM     28  C   LIG    1       23.375 -28.027  14.002  0.00  0.00    +0.186 C 
ATOM     29 CL   LIG    1       23.242 -26.333  13.497  0.00  0.00    -0.117 Cl
ENDBRANCH  26  28
ENDBRANCH   3  26
TORSDOF 3
ENDMDL
MODEL 6
REMARK VINA RESULT:      -5.5      2.046      3.224
REMARK  Name = *****
REMARK                            x       y       z     vdW  Elec       q    Type
REMARK                         _______ _______ _______ _____ _____    ______ ____
ROOT
ATOM      1  C   LIG    1       27.194 -33.569   7.491  0.00  0.00    +0.011 C 
ATOM      2  C   LIG    1       26.444 -32.829   8.592  0.00  0.00    +0.026 C 
ATOM      3  C   LIG    1       25.038 -32.304   8.237  0.00  0.00    +0.133 C 
ATOM      4  C   LIG    1       24.785 -31.260   9.392  0.00  0.00    +0.014 C 
ATOM      5  C   LIG    1       26.153 -30.514   9.457  0.00  0.00    +0.005 C 
ATOM      6  C   LIG    1       26.515 -29.747  10.760  0.00  0.00    +0.039 C 
ATOM      7  C   LIG    1       25.601 -30.055  11.955  0.00  0.00    +0.184 C 
ATOM      8  C   LIG    1       25.325 -31.550  11.889  0.00  0.00    +0.172 C 
ATOM      9  O   LIG    1       25.790 -32.378  12.670  0.00  0.00    -0.294 OA
ATOM     10  F   LIG    1       24.406 -29.404  11.740  0.00  0.00    -0.232 F 
ATOM     11  C   LIG    1       26.162 -29.488  13.298  0.00  0.00    +0.049 C 
ATOM     12  C   LIG    1       26.458 -27.964  13.134  0.00  0.00    -0.053 C 
ATOM     13  C   LIG    1       26.945 -27.310  14.217  0.00  0.00    +0.051 C 
ATOM     14  C   LIG    1       28.248 -27.933  14.672  0.00  0.00    +0.179 C 
ATOM     15  C   LIG    1       28.434 -29.392  14.403  0.00  0.00    +0.047 C 
ATOM     16  O   LIG    1       29.078 -27.288  15.297  0.00  0.00    -0.288 OA
ATOM     17  C   LIG    1       27.038 -27.510  11.796  0.00  0.00    +0.032 C 
ATOM     18  C   LIG    1       25.085 -29.706  14.393  0.00  0.00    +0.024 C 
ATOM     19  C   LIG    1       27.472 -30.111  13.796  0.00  0.00    -0.009 C 
ATOM     20  C   LIG    1       26.508 -28.227  10.555  0.00  0.00    +0.011 C 
ATOM     21  C   LIG    1       23.629 -30.309   9.024  0.00  0.00    +0.015 C 
ATOM     22  C   LIG    1       24.434 -31.977  10.737  0.00  0.00    +0.088 C 
ATOM     23  C   LIG    1       27.205 -31.612   9.137  0.00  0.00    +0.011 C 
ENDROOT
BRANCH   3  24
ATOM     24  O   LIG    1       24.089 -33.360   8.331  0.00  0.00    -0.380 OA
ATOM     25  H   LIG    1       23.335 -33.054   8.873  0.00  0.00    +0.211 HD
ENDBRANCH   3  24
BRANCH   3  26
ATOM     26  C   LIG    1       24.990 -31.650   6.818  0.00  0.00    +0.180 C 
ATOM     27  O   LIG    1       25.760 -30.743   6.487  0.00  0.00    -0.293 OA
BRANCH  26  28
ATOM     28  C   LIG    1       23.942 -32.148   5.851  0.00  0.00    +0.186 C 
ATOM     29 CL   LIG    1       24.655 -33.418   4.839  0.00  0.00    -0.117 Cl
ENDBRANCH  26  28
ENDBRANCH   3  26
TORSDOF 3
ENDMDL
MODEL 7
REMARK VINA RESULT:      -5.1      3.163      7.120
REMARK  Name = *****
REMARK                            x       y       z     vdW  Elec       q    Type
REMARK                         _______ _______ _______ _____ _____    ______ ____
ROOT
ATOM      1  C   LIG    1       23.523 -27.633  14.574  0.00  0.00    +0.011 C 
ATOM      2  C   LIG    1       24.373 -28.606  13.765  0.00  0.00    +0.026 C 
ATOM      3  C   LIG    1       25.903 -28.433  13.864  0.00  0.00    +0.133 C 
ATOM      4  C   LIG    1       26.399 -29.257  12.614  0.00  0.00    +0.014 C 
ATOM      5  C   LIG    1       25.403 -28.794  11.507  0.00  0.00    +0.005 C 
ATOM      6  C   LIG    1       25.214 -29.700  10.258  0.00  0.00    +0.039 C 
ATOM      7  C   LIG    1       25.821 -31.104  10.392  0.00  0.00    +0.184 C 
ATOM      8  C   LIG    1       25.533 -31.543  11.821  0.00  0.00    +0.172 C 
ATOM      9  O   LIG    1       24.718 -32.410  12.131  0.00  0.00    -0.294 OA
ATOM     10  F   LIG    1       27.187 -30.978  10.265  0.00  0.00    -0.232 F 
ATOM     11  C   LIG    1       25.370 -32.062   9.243  0.00  0.00    +0.049 C 
ATOM     12  C   LIG    1       25.674 -31.396   7.864  0.00  0.00    -0.053 C 
ATOM     13  C   LIG    1       25.351 -32.103   6.754  0.00  0.00    +0.051 C 
ATOM     14  C   LIG    1       23.871 -32.420   6.738  0.00  0.00    +0.179 C 
ATOM     15  C   LIG    1       23.191 -32.558   8.062  0.00  0.00    +0.047 C 
ATOM     16  O   LIG    1       23.275 -32.628   5.690  0.00  0.00    -0.288 OA
ATOM     17  C   LIG    1       25.444 -29.890   7.756  0.00  0.00    +0.032 C 
ATOM     18  C   LIG    1       26.171 -33.383   9.383  0.00  0.00    +0.024 C 
ATOM     19  C   LIG    1       23.879 -32.418   9.210  0.00  0.00    -0.009 C 
ATOM     20  C   LIG    1       25.800 -29.064   8.991  0.00  0.00    +0.011 C 
ATOM     21  C   LIG    1       27.856 -28.891  12.264  0.00  0.00    +0.015 C 
ATOM     22  C   LIG    1       26.320 -30.795  12.881  0.00  0.00    +0.088 C 
ATOM     23  C   LIG    1       24.060 -28.586  12.262  0.00  0.00    +0.011 C 
ENDROOT
BRANCH   3  24
ATOM     24  O   LIG    1       26.382 -29.042  15.058  0.00  0.00    -0.380 OA
ATOM     25  H   LIG    1       26.483 -30.001  14.900  0.00  0.00    +0.211 HD
ENDBRANCH   3  24
BRANCH   3  26
ATOM     26  C   LIG    1       26.335 -26.932  13.803  0.00  0.00    +0.180 C 
ATOM     27  O   LIG    1       25.998 -26.190  12.876  0.00  0.00    -0.293 OA
BRANCH  26  28
ATOM     28  C   LIG    1       27.213 -26.409  14.916  0.00  0.00    +0.186 C 
ATOM     29 CL   LIG    1       27.987 -24.908  14.375  0.00  0.00    -0.117 Cl
ENDBRANCH  26  28
ENDBRANCH   3  26
TORSDOF 3
ENDMDL
MODEL 8
REMARK VINA RESULT:      -5.0      2.715      3.960
REMARK  Name = *****
REMARK                            x       y       z     vdW  Elec       q    Type
REMARK                         _______ _______ _______ _____ _____    ______ ____
ROOT
ATOM      1  C   LIG    1       25.535 -30.050   7.913  0.00  0.00    +0.011 C 
ATOM      2  C   LIG    1       25.217 -29.968   9.402  0.00  0.00    +0.026 C 
ATOM      3  C   LIG    1       25.689 -31.148  10.275  0.00  0.00    +0.133 C 
ATOM      4  C   LIG    1       24.829 -30.943  11.581  0.00  0.00    +0.014 C 
ATOM      5  C   LIG    1       23.420 -30.625  10.993  0.00  0.00    +0.005 C 
ATOM      6  C   LIG    1       22.392 -29.886  11.895  0.00  0.00    +0.039 C 
ATOM      7  C   LIG    1       22.986 -29.291  13.181  0.00  0.00    +0.184 C 
ATOM      8  C   LIG    1       24.342 -28.725  12.785  0.00  0.00    +0.172 C 
ATOM      9  O   LIG    1       24.598 -27.525  12.705  0.00  0.00    -0.294 OA
ATOM     10  F   LIG    1       23.211 -30.332  14.054  0.00  0.00    -0.232 F 
ATOM     11  C   LIG    1       21.992 -28.329  13.908  0.00  0.00    +0.049 C 
ATOM     12  C   LIG    1       20.637 -29.068  14.148  0.00  0.00    -0.053 C 
ATOM     13  C   LIG    1       19.661 -28.375  14.782  0.00  0.00    +0.051 C 
ATOM     14  C   LIG    1       19.312 -27.121  14.008  0.00  0.00    +0.179 C 
ATOM     15  C   LIG    1       20.398 -26.504  13.187  0.00  0.00    +0.047 C 
ATOM     16  O   LIG    1       18.212 -26.596  14.108  0.00  0.00    -0.288 OA
ATOM     17  C   LIG    1       20.149 -29.997  13.038  0.00  0.00    +0.032 C 
ATOM     18  C   LIG    1       22.626 -27.928  15.266  0.00  0.00    +0.024 C 
ATOM     19  C   LIG    1       21.632 -27.041  13.158  0.00  0.00    -0.009 C 
ATOM     20  C   LIG    1       21.227 -30.795  12.305  0.00  0.00    +0.011 C 
ATOM     21  C   LIG    1       24.818 -32.228  12.434  0.00  0.00    +0.015 C 
ATOM     22  C   LIG    1       25.389 -29.771  12.451  0.00  0.00    +0.088 C 
ATOM     23  C   LIG    1       23.718 -29.818   9.698  0.00  0.00    +0.011 C 
ENDROOT
BRANCH   3  24
ATOM     24  O   LIG    1       27.070 -31.000  10.585  0.00  0.00    -0.380 OA
ATOM     25  H   LIG    1       27.330 -31.712  11.200  0.00  0.00    +0.211 HD
ENDBRANCH   3  24
BRANCH   3  26
ATOM     26  C   LIG    1       25.426 -32.531   9.595  0.00  0.00    +0.180 C 
ATOM     27  O   LIG    1       26.345 -33.278   9.248  0.00  0.00    -0.293 OA
BRANCH  26  28
ATOM     28  C   LIG    1       23.989 -32.927   9.344  0.00  0.00    +0.186 C 
ATOM     29 CL   LIG    1       23.746 -33.118   7.598  0.00  0.00    -0.117 Cl
ENDBRANCH  26  28
ENDBRANCH   3  26
TORSDOF 3
ENDMDL
MODEL 9
REMARK VINA RESULT:      -4.8      3.068      7.078
REMARK  Name = *****
REMARK                            x       y       z     vdW  Elec       q    Type
REMARK                         _______ _______ _______ _____ _____    ______ ____
ROOT
ATOM      1  C   LIG    1       26.016 -31.973  14.471  0.00  0.00    +0.011 C 
ATOM      2  C   LIG    1       25.577 -31.288  13.182  0.00  0.00    +0.026 C 
ATOM      3  C   LIG    1       24.348 -30.360  13.278  0.00  0.00    +0.133 C 
ATOM      4  C   LIG    1       23.942 -30.213  11.761  0.00  0.00    +0.014 C 
ATOM      5  C   LIG    1       24.058 -31.682  11.252  0.00  0.00    +0.005 C 
ATOM      6  C   LIG    1       24.221 -31.924   9.724  0.00  0.00    +0.039 C 
ATOM      7  C   LIG    1       24.542 -30.661   8.911  0.00  0.00    +0.184 C 
ATOM      8  C   LIG    1       25.517 -29.860   9.760  0.00  0.00    +0.172 C 
ATOM      9  O   LIG    1       26.712 -29.722   9.505  0.00  0.00    -0.294 OA
ATOM     10  F   LIG    1       23.380 -29.928   8.810  0.00  0.00    -0.232 F 
ATOM     11  C   LIG    1       24.969 -30.989   7.444  0.00  0.00    +0.049 C 
ATOM     12  C   LIG    1       23.881 -31.886   6.774  0.00  0.00    -0.053 C 
ATOM     13  C   LIG    1       24.093 -32.255   5.488  0.00  0.00    +0.051 C 
ATOM     14  C   LIG    1       25.391 -33.026   5.364  0.00  0.00    +0.179 C 
ATOM     15  C   LIG    1       26.470 -32.701   6.345  0.00  0.00    +0.047 C 
ATOM     16  O   LIG    1       25.573 -33.825   4.456  0.00  0.00    -0.288 OA
ATOM     17  C   LIG    1       23.227 -32.953   7.650  0.00  0.00    +0.032 C 
ATOM     18  C   LIG    1       25.100 -29.647   6.676  0.00  0.00    +0.024 C 
ATOM     19  C   LIG    1       26.289 -31.752   7.283  0.00  0.00    -0.009 C 
ATOM     20  C   LIG    1       22.973 -32.565   9.106  0.00  0.00    +0.011 C 
ATOM     21  C   LIG    1       22.502 -29.673  11.632  0.00  0.00    +0.015 C 
ATOM     22  C   LIG    1       24.908 -29.243  11.006  0.00  0.00    +0.088 C 
ATOM     23  C   LIG    1       25.257 -32.271  12.048  0.00  0.00    +0.011 C 
ENDROOT
BRANCH   3  24
ATOM     24  O   LIG    1       24.738 -29.092  13.793  0.00  0.00    -0.380 OA
ATOM     25  H   LIG    1       25.643 -29.167  14.153  0.00  0.00    +0.211 HD
ENDBRANCH   3  24
BRANCH   3  26
ATOM     26  C   LIG    1       23.206 -30.978  14.147  0.00  0.00    +0.180 C 
ATOM     27  O   LIG    1       22.719 -32.086  13.901  0.00  0.00    -0.293 OA
BRANCH  26  28
ATOM     28  C   LIG    1       22.683 -30.158  15.304  0.00  0.00    +0.186 C 
ATOM     29 CL   LIG    1       21.064 -29.561  14.895  0.00  0.00    -0.117 Cl
ENDBRANCH  26  28
ENDBRANCH   3  26
TORSDOF 3
ENDMDL
