MODEL 1
REMARK VINA RESULT:      -6.6      0.000      0.000
REMARK  Name = *****
REMARK                            x       y       z     vdW  Elec       q    Type
REMARK                         _______ _______ _______ _____ _____    ______ ____
ROOT
ATOM      1  C   LIG    1       25.155 -21.265   5.700  0.00  0.00    +0.145 C 
ATOM      2  C   LIG    1       26.289 -21.303   6.450  0.00  0.00    +0.076 C 
ATOM      3  S   LIG    1       27.643 -20.211   6.166  0.00  0.00    -0.107 S 
ATOM      4  C   LIG    1       28.830 -20.964   7.341  0.00  0.00    +0.093 C 
ATOM      5  C   LIG    1       28.031 -21.655   8.446  0.00  0.00    +0.094 C 
ATOM      6  S   LIG    1       26.610 -22.495   7.694  0.00  0.00    -0.114 S 
ENDROOT
BRANCH   4   7
ATOM      7  C   LIG    1       29.796 -19.927   7.895  0.00  0.00    -0.015 A 
ATOM      8  C   LIG    1       30.948 -20.271   8.628  0.00  0.00    +0.047 A 
ATOM      9 CL   LIG    1       31.366 -21.911   8.975  0.00  0.00    -0.083 Cl
ATOM     10  C   LIG    1       31.808 -19.283   9.123  0.00  0.00    +0.040 A 
ATOM     11  C   LIG    1       31.528 -17.939   8.898  0.00  0.00    +0.042 A 
ATOM     12 CL   LIG    1       32.584 -16.728   9.511  0.00  0.00    -0.084 Cl
ATOM     13  C   LIG    1       30.398 -17.568   8.180  0.00  0.00    +0.020 A 
ATOM     14  C   LIG    1       29.543 -18.552   7.682  0.00  0.00    +0.007 A 
ENDBRANCH   4   7
BRANCH   1  15
ATOM     15  N   LIG    1       23.972 -22.003   5.943  0.00  0.00    -0.296 N 
ATOM     16  C   LIG    1       23.829 -23.256   6.520  0.00  0.00    +0.204 A 
ATOM     17  N   LIG    1       22.581 -23.648   6.621  0.00  0.00    -0.244 NA
ATOM     18  C   LIG    1       21.845 -22.611   6.131  0.00  0.00    +0.130 A 
ATOM     19  C   LIG    1       22.664 -21.581   5.743  0.00  0.00    +0.113 A 
ENDBRANCH   1  15
BRANCH   1  21
ATOM     20  N   LIG    1       25.110 -19.748   3.641  0.00  0.00    -0.189 NA
ATOM     21  C   LIG    1       25.130 -20.431   4.568  0.00  0.00    +0.119 C 
ENDBRANCH   1  21
TORSDOF 3
ENDMDL
MODEL 2
REMARK VINA RESULT:      -6.6      4.501      8.143
REMARK  Name = *****
REMARK                            x       y       z     vdW  Elec       q    Type
REMARK                         _______ _______ _______ _____ _____    ______ ____
ROOT
ATOM      1  C   LIG    1       30.814 -19.864   8.720  0.00  0.00    +0.145 C 
ATOM      2  C   LIG    1       29.744 -19.964   7.886  0.00  0.00    +0.076 C 
ATOM      3  S   LIG    1       28.833 -21.460   7.696  0.00  0.00    -0.107 S 
ATOM      4  C   LIG    1       27.749 -20.927   6.319  0.00  0.00    +0.093 C 
ATOM      5  C   LIG    1       27.598 -19.408   6.395  0.00  0.00    +0.094 C 
ATOM      6  S   LIG    1       29.207 -18.686   6.813  0.00  0.00    -0.114 S 
ENDROOT
BRANCH   4   7
ATOM      7  C   LIG    1       26.405 -21.641   6.363  0.00  0.00    -0.015 A 
ATOM      8  C   LIG    1       25.326 -21.289   5.530  0.00  0.00    +0.047 A 
ATOM      9 CL   LIG    1       25.427 -20.000   4.382  0.00  0.00    -0.083 Cl
ATOM     10  C   LIG    1       24.105 -21.969   5.607  0.00  0.00    +0.040 A 
ATOM     11  C   LIG    1       23.942 -23.007   6.518  0.00  0.00    +0.042 A 
ATOM     12 CL   LIG    1       22.440 -23.839   6.613  0.00  0.00    -0.084 Cl
ATOM     13  C   LIG    1       24.988 -23.376   7.355  0.00  0.00    +0.020 A 
ATOM     14  C   LIG    1       26.206 -22.702   7.276  0.00  0.00    +0.007 A 
ENDBRANCH   4   7
BRANCH   1  15
ATOM     15  N   LIG    1       31.513 -18.676   9.038  0.00  0.00    -0.296 N 
ATOM     16  C   LIG    1       32.168 -17.795   8.190  0.00  0.00    +0.204 A 
ATOM     17  N   LIG    1       32.700 -16.768   8.808  0.00  0.00    -0.244 NA
ATOM     18  C   LIG    1       32.366 -16.934  10.120  0.00  0.00    +0.130 A 
ATOM     19  C   LIG    1       31.613 -18.069  10.283  0.00  0.00    +0.113 A 
ENDBRANCH   1  15
BRANCH   1  21
ATOM     20  N   LIG    1       31.691 -21.996   9.829  0.00  0.00    -0.189 NA
ATOM     21  C   LIG    1       31.296 -21.036   9.330  0.00  0.00    +0.119 C 
ENDBRANCH   1  21
TORSDOF 3
ENDMDL
MODEL 3
REMARK VINA RESULT:      -6.0      5.407      7.984
REMARK  Name = *****
REMARK                            x       y       z     vdW  Elec       q    Type
REMARK                         _______ _______ _______ _____ _____    ______ ____
ROOT
ATOM      1  C   LIG    1       25.112 -22.200   6.609  0.00  0.00    +0.145 C 
ATOM      2  C   LIG    1       25.164 -23.524   6.302  0.00  0.00    +0.076 C 
ATOM      3  S   LIG    1       25.938 -24.706   7.357  0.00  0.00    -0.107 S 
ATOM      4  C   LIG    1       25.825 -26.155   6.242  0.00  0.00    +0.093 C 
ATOM      5  C   LIG    1       24.630 -25.948   5.312  0.00  0.00    +0.094 C 
ATOM      6  S   LIG    1       24.594 -24.211   4.794  0.00  0.00    -0.114 S 
ENDROOT
BRANCH   4   7
ATOM      7  C   LIG    1       25.721 -27.454   7.030  0.00  0.00    -0.015 A 
ATOM      8  C   LIG    1       25.021 -28.580   6.556  0.00  0.00    +0.047 A 
ATOM      9 CL   LIG    1       24.204 -28.587   5.033  0.00  0.00    -0.083 Cl
ATOM     10  C   LIG    1       24.947 -29.754   7.316  0.00  0.00    +0.040 A 
ATOM     11  C   LIG    1       25.566 -29.819   8.560  0.00  0.00    +0.042 A 
ATOM     12 CL   LIG    1       25.470 -31.260   9.493  0.00  0.00    -0.084 Cl
ATOM     13  C   LIG    1       26.262 -28.723   9.055  0.00  0.00    +0.020 A 
ATOM     14  C   LIG    1       26.340 -27.554   8.297  0.00  0.00    +0.007 A 
ENDBRANCH   4   7
BRANCH   1  15
ATOM     15  N   LIG    1       24.396 -21.209   5.897  0.00  0.00    -0.296 N 
ATOM     16  C   LIG    1       24.795 -20.468   4.794  0.00  0.00    +0.204 A 
ATOM     17  N   LIG    1       23.875 -19.640   4.358  0.00  0.00    -0.244 NA
ATOM     18  C   LIG    1       22.798 -19.850   5.167  0.00  0.00    +0.130 A 
ATOM     19  C   LIG    1       23.076 -20.825   6.091  0.00  0.00    +0.113 A 
ENDBRANCH   1  15
BRANCH   1  21
ATOM     20  N   LIG    1       26.424 -21.372   8.643  0.00  0.00    -0.189 NA
ATOM     21  C   LIG    1       25.833 -21.745   7.727  0.00  0.00    +0.119 C 
ENDBRANCH   1  21
TORSDOF 3
ENDMDL
MODEL 4
REMARK VINA RESULT:      -6.0      6.174      8.405
REMARK  Name = *****
REMARK                            x       y       z     vdW  Elec       q    Type
REMARK                         _______ _______ _______ _____ _____    ______ ____
ROOT
ATOM      1  C   LIG    1       24.975 -29.697   6.615  0.00  0.00    +0.145 C 
ATOM      2  C   LIG    1       25.084 -28.413   6.180  0.00  0.00    +0.076 C 
ATOM      3  S   LIG    1       24.444 -27.050   7.096  0.00  0.00    -0.107 S 
ATOM      4  C   LIG    1       24.741 -25.742   5.848  0.00  0.00    +0.093 C 
ATOM      5  C   LIG    1       25.915 -26.179   4.972  0.00  0.00    +0.094 C 
ATOM      6  S   LIG    1       25.750 -27.951   4.626  0.00  0.00    -0.114 S 
ENDROOT
BRANCH   4   7
ATOM      7  C   LIG    1       24.989 -24.392   6.508  0.00  0.00    -0.015 A 
ATOM      8  C   LIG    1       23.948 -23.518   6.873  0.00  0.00    +0.047 A 
ATOM      9 CL   LIG    1       22.284 -23.896   6.596  0.00  0.00    -0.083 Cl
ATOM     10  C   LIG    1       24.221 -22.283   7.474  0.00  0.00    +0.040 A 
ATOM     11  C   LIG    1       25.537 -21.902   7.714  0.00  0.00    +0.042 A 
ATOM     12 CL   LIG    1       25.870 -20.383   8.448  0.00  0.00    -0.084 Cl
ATOM     13  C   LIG    1       26.586 -22.742   7.363  0.00  0.00    +0.020 A 
ATOM     14  C   LIG    1       26.315 -23.974   6.768  0.00  0.00    +0.007 A 
ENDBRANCH   4   7
BRANCH   1  15
ATOM     15  N   LIG    1       25.577 -30.831   6.020  0.00  0.00    -0.296 N 
ATOM     16  C   LIG    1       26.431 -31.765   6.590  0.00  0.00    +0.204 A 
ATOM     17  N   LIG    1       26.795 -32.715   5.762  0.00  0.00    -0.244 NA
ATOM     18  C   LIG    1       26.139 -32.442   4.599  0.00  0.00    +0.130 A 
ATOM     19  C   LIG    1       25.362 -31.319   4.739  0.00  0.00    +0.113 A 
ENDBRANCH   1  15
BRANCH   1  21
ATOM     20  N   LIG    1       23.550 -30.159   8.689  0.00  0.00    -0.189 NA
ATOM     21  C   LIG    1       24.191 -29.951   7.755  0.00  0.00    +0.119 C 
ENDBRANCH   1  21
TORSDOF 3
ENDMDL
MODEL 5
REMARK VINA RESULT:      -5.9      4.361      7.747
REMARK  Name = *****
REMARK                            x       y       z     vdW  Elec       q    Type
REMARK                         _______ _______ _______ _____ _____    ______ ____
ROOT
ATOM      1  C   LIG    1       29.544 -19.171   7.534  0.00  0.00    +0.145 C 
ATOM      2  C   LIG    1       28.420 -19.928   7.656  0.00  0.00    +0.076 C 
ATOM      3  S   LIG    1       27.714 -20.792   6.291  0.00  0.00    -0.107 S 
ATOM      4  C   LIG    1       26.184 -21.369   7.118  0.00  0.00    +0.093 C 
ATOM      5  C   LIG    1       26.466 -21.477   8.616  0.00  0.00    +0.094 C 
ATOM      6  S   LIG    1       27.467 -20.053   9.122  0.00  0.00    -0.114 S 
ENDROOT
BRANCH   4   7
ATOM      7  C   LIG    1       25.697 -22.685   6.528  0.00  0.00    -0.015 A 
ATOM      8  C   LIG    1       24.964 -22.760   5.329  0.00  0.00    +0.047 A 
ATOM      9 CL   LIG    1       24.540 -21.355   4.416  0.00  0.00    -0.083 Cl
ATOM     10  C   LIG    1       24.532 -23.993   4.825  0.00  0.00    +0.040 A 
ATOM     11  C   LIG    1       24.821 -25.167   5.513  0.00  0.00    +0.042 A 
ATOM     12 CL   LIG    1       24.286 -26.679   4.893  0.00  0.00    -0.084 Cl
ATOM     13  C   LIG    1       25.541 -25.125   6.700  0.00  0.00    +0.020 A 
ATOM     14  C   LIG    1       25.976 -23.897   7.201  0.00  0.00    +0.007 A 
ENDBRANCH   4   7
BRANCH   1  15
ATOM     15  N   LIG    1       30.254 -18.562   8.595  0.00  0.00    -0.296 N 
ATOM     16  C   LIG    1       31.431 -18.971   9.205  0.00  0.00    +0.204 A 
ATOM     17  N   LIG    1       31.840 -18.161  10.152  0.00  0.00    -0.244 NA
ATOM     18  C   LIG    1       30.932 -17.145  10.165  0.00  0.00    +0.130 A 
ATOM     19  C   LIG    1       29.975 -17.345   9.203  0.00  0.00    +0.113 A 
ENDBRANCH   1  15
BRANCH   1  21
ATOM     20  N   LIG    1       30.489 -18.768   5.192  0.00  0.00    -0.189 NA
ATOM     21  C   LIG    1       30.063 -18.950   6.247  0.00  0.00    +0.119 C 
ENDBRANCH   1  21
TORSDOF 3
ENDMDL
MODEL 6
REMARK VINA RESULT:      -5.7      4.243      7.940
REMARK  Name = *****
REMARK                            x       y       z     vdW  Elec       q    Type
REMARK                         _______ _______ _______ _____ _____    ______ ____
ROOT
ATOM      1  C   LIG    1       30.271 -20.268   8.597  0.00  0.00    +0.145 C 
ATOM      2  C   LIG    1       29.211 -20.378   7.752  0.00  0.00    +0.076 C 
ATOM      3  S   LIG    1       28.124 -21.766   7.779  0.00  0.00    -0.107 S 
ATOM      4  C   LIG    1       27.137 -21.346   6.294  0.00  0.00    +0.093 C 
ATOM      5  C   LIG    1       27.174 -19.829   6.112  0.00  0.00    +0.094 C 
ATOM      6  S   LIG    1       28.853 -19.244   6.465  0.00  0.00    -0.114 S 
ENDROOT
BRANCH   4   7
ATOM      7  C   LIG    1       25.714 -21.877   6.405  0.00  0.00    -0.015 A 
ATOM      8  C   LIG    1       25.415 -23.251   6.472  0.00  0.00    +0.047 A 
ATOM      9 CL   LIG    1       26.642 -24.467   6.426  0.00  0.00    -0.083 Cl
ATOM     10  C   LIG    1       24.091 -23.695   6.569  0.00  0.00    +0.040 A 
ATOM     11  C   LIG    1       23.047 -22.776   6.595  0.00  0.00    +0.042 A 
ATOM     12 CL   LIG    1       21.422 -23.325   6.711  0.00  0.00    -0.084 Cl
ATOM     13  C   LIG    1       23.311 -21.414   6.528  0.00  0.00    +0.020 A 
ATOM     14  C   LIG    1       24.630 -20.969   6.436  0.00  0.00    +0.007 A 
ENDBRANCH   4   7
BRANCH   1  15
ATOM     15  N   LIG    1       31.106 -19.135   8.741  0.00  0.00    -0.296 N 
ATOM     16  C   LIG    1       31.904 -18.514   7.791  0.00  0.00    +0.204 A 
ATOM     17  N   LIG    1       32.542 -17.463   8.248  0.00  0.00    -0.244 NA
ATOM     18  C   LIG    1       32.137 -17.340   9.544  0.00  0.00    +0.130 A 
ATOM     19  C   LIG    1       31.236 -18.325   9.860  0.00  0.00    +0.113 A 
ENDBRANCH   1  15
BRANCH   1  21
ATOM     20  N   LIG    1       30.859 -22.273  10.074  0.00  0.00    -0.189 NA
ATOM     21  C   LIG    1       30.594 -21.370   9.409  0.00  0.00    +0.119 C 
ENDBRANCH   1  21
TORSDOF 3
ENDMDL
MODEL 7
REMARK VINA RESULT:      -5.4     10.976     12.431
REMARK  Name = *****
REMARK                            x       y       z     vdW  Elec       q    Type
REMARK                         _______ _______ _______ _____ _____    ______ ____
ROOT
ATOM      1  C   LIG    1       25.689 -30.686   9.116  0.00  0.00    +0.145 C 
ATOM      2  C   LIG    1       24.503 -30.701   9.784  0.00  0.00    +0.076 C 
ATOM      3  S   LIG    1       24.267 -29.836  11.302  0.00  0.00    -0.107 S 
ATOM      4  C   LIG    1       22.596 -30.472  11.700  0.00  0.00    +0.093 C 
ATOM      5  C   LIG    1       21.905 -30.846  10.389  0.00  0.00    +0.094 C 
ATOM      6  S   LIG    1       23.114 -31.657   9.308  0.00  0.00    -0.114 S 
ENDROOT
BRANCH   4   7
ATOM      7  C   LIG    1       21.793 -29.457  12.503  0.00  0.00    -0.015 A 
ATOM      8  C   LIG    1       20.633 -29.799  13.224  0.00  0.00    +0.047 A 
ATOM      9 CL   LIG    1       20.006 -31.410  13.255  0.00  0.00    -0.083 Cl
ATOM     10  C   LIG    1       19.922 -28.833  13.945  0.00  0.00    +0.040 A 
ATOM     11  C   LIG    1       20.356 -27.511  13.954  0.00  0.00    +0.042 A 
ATOM     12 CL   LIG    1       19.479 -26.325  14.837  0.00  0.00    -0.084 Cl
ATOM     13  C   LIG    1       21.496 -27.142  13.250  0.00  0.00    +0.020 A 
ATOM     14  C   LIG    1       22.207 -28.106  12.534  0.00  0.00    +0.007 A 
ENDBRANCH   4   7
BRANCH   1  15
ATOM     15  N   LIG    1       25.926 -31.230   7.832  0.00  0.00    -0.296 N 
ATOM     16  C   LIG    1       25.514 -30.757   6.594  0.00  0.00    +0.204 A 
ATOM     17  N   LIG    1       25.925 -31.492   5.588  0.00  0.00    -0.244 NA
ATOM     18  C   LIG    1       26.674 -32.480   6.156  0.00  0.00    +0.130 A 
ATOM     19  C   LIG    1       26.720 -32.325   7.518  0.00  0.00    +0.113 A 
ENDBRANCH   1  15
BRANCH   1  21
ATOM     20  N   LIG    1       27.708 -29.600  10.249  0.00  0.00    -0.189 NA
ATOM     21  C   LIG    1       26.799 -30.089   9.739  0.00  0.00    +0.119 C 
ENDBRANCH   1  21
TORSDOF 3
ENDMDL
MODEL 8
REMARK VINA RESULT:      -5.3      6.845      9.326
REMARK  Name = *****
REMARK                            x       y       z     vdW  Elec       q    Type
REMARK                         _______ _______ _______ _____ _____    ______ ____
ROOT
ATOM      1  C   LIG    1       25.326 -30.823   6.965  0.00  0.00    +0.145 C 
ATOM      2  C   LIG    1       25.071 -29.612   6.398  0.00  0.00    +0.076 C 
ATOM      3  S   LIG    1       24.628 -28.199   7.354  0.00  0.00    -0.107 S 
ATOM      4  C   LIG    1       24.236 -27.066   5.969  0.00  0.00    +0.093 C 
ATOM      5  C   LIG    1       25.044 -27.509   4.750  0.00  0.00    +0.094 C 
ATOM      6  S   LIG    1       25.026 -29.321   4.670  0.00  0.00    -0.114 S 
ENDROOT
BRANCH   4   7
ATOM      7  C   LIG    1       24.510 -25.616   6.344  0.00  0.00    -0.015 A 
ATOM      8  C   LIG    1       25.811 -25.104   6.510  0.00  0.00    +0.047 A 
ATOM      9 CL   LIG    1       27.222 -26.082   6.311  0.00  0.00    -0.083 Cl
ATOM     10  C   LIG    1       26.018 -23.764   6.860  0.00  0.00    +0.040 A 
ATOM     11  C   LIG    1       24.930 -22.919   7.054  0.00  0.00    +0.042 A 
ATOM     12 CL   LIG    1       25.187 -21.275   7.487  0.00  0.00    -0.084 Cl
ATOM     13  C   LIG    1       23.635 -23.396   6.900  0.00  0.00    +0.020 A 
ATOM     14  C   LIG    1       23.428 -24.730   6.547  0.00  0.00    +0.007 A 
ENDBRANCH   4   7
BRANCH   1  15
ATOM     15  N   LIG    1       25.820 -31.966   6.294  0.00  0.00    -0.296 N 
ATOM     16  C   LIG    1       27.087 -32.529   6.349  0.00  0.00    +0.204 A 
ATOM     17  N   LIG    1       27.213 -33.610   5.617  0.00  0.00    -0.244 NA
ATOM     18  C   LIG    1       25.979 -33.814   5.073  0.00  0.00    +0.130 A 
ATOM     19  C   LIG    1       25.103 -32.847   5.497  0.00  0.00    +0.113 A 
ENDBRANCH   1  15
BRANCH   1  21
ATOM     20  N   LIG    1       24.872 -31.113   9.465  0.00  0.00    -0.189 NA
ATOM     21  C   LIG    1       25.076 -30.982   8.339  0.00  0.00    +0.119 C 
ENDBRANCH   1  21
TORSDOF 3
ENDMDL
MODEL 9
REMARK VINA RESULT:      -5.3      9.700     11.339
REMARK  Name = *****
REMARK                            x       y       z     vdW  Elec       q    Type
REMARK                         _______ _______ _______ _____ _____    ______ ____
ROOT
ATOM      1  C   LIG    1       26.358 -32.549   6.381  0.00  0.00    +0.145 C 
ATOM      2  C   LIG    1       25.735 -31.833   7.356  0.00  0.00    +0.076 C 
ATOM      3  S   LIG    1       26.554 -31.354   8.842  0.00  0.00    -0.107 S 
ATOM      4  C   LIG    1       25.103 -30.662   9.721  0.00  0.00    +0.093 C 
ATOM      5  C   LIG    1       24.097 -30.185   8.675  0.00  0.00    +0.094 C 
ATOM      6  S   LIG    1       24.037 -31.402   7.332  0.00  0.00    -0.114 S 
ENDROOT
BRANCH   4   7
ATOM      7  C   LIG    1       25.512 -29.548  10.675  0.00  0.00    -0.015 A 
ATOM      8  C   LIG    1       24.744 -29.184  11.797  0.00  0.00    +0.047 A 
ATOM      9 CL   LIG    1       23.255 -29.967  12.192  0.00  0.00    -0.083 Cl
ATOM     10  C   LIG    1       25.155 -28.149  12.646  0.00  0.00    +0.040 A 
ATOM     11  C   LIG    1       26.335 -27.461  12.384  0.00  0.00    +0.042 A 
ATOM     12 CL   LIG    1       26.836 -26.187  13.426  0.00  0.00    -0.084 Cl
ATOM     13  C   LIG    1       27.113 -27.795  11.283  0.00  0.00    +0.020 A 
ATOM     14  C   LIG    1       26.706 -28.830  10.439  0.00  0.00    +0.007 A 
ENDBRANCH   4   7
BRANCH   1  15
ATOM     15  N   LIG    1       25.827 -32.854   5.106  0.00  0.00    -0.296 N 
ATOM     16  C   LIG    1       26.183 -32.341   3.867  0.00  0.00    +0.204 A 
ATOM     17  N   LIG    1       25.503 -32.857   2.871  0.00  0.00    -0.244 NA
ATOM     18  C   LIG    1       24.681 -33.781   3.445  0.00  0.00    +0.130 A 
ATOM     19  C   LIG    1       24.882 -33.825   4.801  0.00  0.00    +0.113 A 
ENDBRANCH   1  15
BRANCH   1  21
ATOM     20  N   LIG    1       28.701 -33.461   6.853  0.00  0.00    -0.189 NA
ATOM     21  C   LIG    1       27.646 -33.050   6.641  0.00  0.00    +0.119 C 
ENDBRANCH   1  21
TORSDOF 3
ENDMDL
