MODEL 1
REMARK VINA RESULT:      -3.5      0.000      0.000
REMARK  Name = *****
REMARK                            x       y       z     vdW  Elec       q    Type
REMARK                         _______ _______ _______ _____ _____    ______ ____
ROOT
ATOM      1  N   LIG    1       23.767 -18.084   3.693  0.00  0.00    -0.308 N 
ATOM      2  H   LIG    1       24.754 -18.097   3.462  0.00  0.00    +0.149 HD
ATOM      3  C   LIG    1       23.240 -16.885   4.133  0.00  0.00    +0.248 C 
ATOM      4  O   LIG    1       22.127 -16.769   4.615  0.00  0.00    -0.270 OA
ENDROOT
BRANCH   3   5
ATOM      5  C   LIG    1       24.104 -15.683   3.986  0.00  0.00    +0.080 A 
ATOM      6  C   LIG    1       25.475 -15.737   3.778  0.00  0.00    +0.138 A 
ATOM      7  O   LIG    1       26.210 -16.893   3.642  0.00  0.00    -0.490 OA
ATOM      8  C   LIG    1       27.584 -16.458   3.689  0.00  0.00    +0.234 C 
ATOM      9  C   LIG    1       27.650 -14.973   3.350  0.00  0.00    +0.081 C 
ATOM     10  C   LIG    1       26.248 -14.586   3.645  0.00  0.00    +0.020 A 
ATOM     11  C   LIG    1       25.683 -13.319   3.722  0.00  0.00    +0.050 A 
ATOM     12  C   LIG    1       24.283 -13.256   3.881  0.00  0.00    +0.063 A 
ATOM     13 CL   LIG    1       23.477 -11.724   3.917  0.00  0.00    -0.082 Cl
ATOM     14  C   LIG    1       23.506 -14.416   4.034  0.00  0.00    +0.038 A 
BRANCH  11  15
ATOM     15  N   LIG    1       26.446 -12.182   3.414  0.00  0.00    -0.356 N 
ATOM     16  H   LIG    1       26.130 -11.664   2.603  0.00  0.00    +0.142 HD
ATOM     17  H   LIG    1       27.446 -12.378   3.388  0.00  0.00    +0.142 HD
ENDBRANCH  11  15
ENDBRANCH   3   5
BRANCH   1  21
ATOM     18  N   LIG    1       24.031 -21.103   5.943  0.00  0.00    -0.302 NA
ATOM     19  C   LIG    1       24.850 -20.876   4.740  0.00  0.00    +0.086 C 
ATOM     20  C   LIG    1       23.964 -20.559   3.537  0.00  0.00    +0.037 C 
ATOM     21  C   LIG    1       23.052 -19.352   3.778  0.00  0.00    +0.076 C 
ATOM     22  C   LIG    1       22.342 -19.487   5.130  0.00  0.00    +0.037 C 
ATOM     23  C   LIG    1       23.290 -19.876   6.266  0.00  0.00    +0.086 C 
BRANCH  18  24
ATOM     24  C   LIG    1       24.873 -21.572   7.062  0.00  0.00    +0.086 C 
BRANCH  24  25
ATOM     25  C   LIG    1       26.376 -21.523   6.750  0.00  0.00    +0.043 C 
BRANCH  25  26
ATOM     26  C   LIG    1       26.963 -20.132   6.968  0.00  0.00    +0.161 C 
BRANCH  26  28
ATOM     27  C   LIG    1       29.284 -20.563   6.864  0.00  0.00    +0.193 C 
ATOM     28  O   LIG    1       28.157 -20.015   6.192  0.00  0.00    -0.383 OA
ENDBRANCH  26  28
ENDBRANCH  25  26
ENDBRANCH  24  25
ENDBRANCH  18  24
ENDBRANCH   1  21
TORSDOF 7
ENDMDL
MODEL 2
REMARK VINA RESULT:      -2.5      1.567      2.547
REMARK  Name = *****
REMARK                            x       y       z     vdW  Elec       q    Type
REMARK                         _______ _______ _______ _____ _____    ______ ____
ROOT
ATOM      1  N   LIG    1       24.162 -17.691   3.723  0.00  0.00    -0.308 N 
ATOM      2  H   LIG    1       23.503 -16.982   4.026  0.00  0.00    +0.149 HD
ATOM      3  C   LIG    1       25.417 -17.260   3.337  0.00  0.00    +0.248 C 
ATOM      4  O   LIG    1       26.237 -17.969   2.781  0.00  0.00    -0.270 OA
ENDROOT
BRANCH   3   5
ATOM      5  C   LIG    1       25.757 -15.844   3.639  0.00  0.00    +0.080 A 
ATOM      6  C   LIG    1       24.832 -14.897   4.056  0.00  0.00    +0.138 A 
ATOM      7  O   LIG    1       23.496 -15.143   4.282  0.00  0.00    -0.490 OA
ATOM      8  C   LIG    1       22.911 -13.837   4.458  0.00  0.00    +0.234 C 
ATOM      9  C   LIG    1       24.007 -12.845   4.832  0.00  0.00    +0.081 C 
ATOM     10  C   LIG    1       25.193 -13.581   4.330  0.00  0.00    +0.020 A 
ATOM     11  C   LIG    1       26.505 -13.144   4.191  0.00  0.00    +0.050 A 
ATOM     12  C   LIG    1       27.461 -14.112   3.818  0.00  0.00    +0.063 A 
ATOM     13 CL   LIG    1       29.133 -13.681   3.687  0.00  0.00    -0.082 Cl
ATOM     14  C   LIG    1       27.094 -15.435   3.524  0.00  0.00    +0.038 A 
BRANCH  11  15
ATOM     15  N   LIG    1       26.878 -11.866   4.636  0.00  0.00    -0.356 N 
ATOM     16  H   LIG    1       26.229 -11.436   5.285  0.00  0.00    +0.142 HD
ATOM     17  H   LIG    1       27.134 -11.245   3.870  0.00  0.00    +0.142 HD
ENDBRANCH  11  15
ENDBRANCH   3   5
BRANCH   1  21
ATOM     18  N   LIG    1       24.183 -20.879   5.744  0.00  0.00    -0.302 NA
ATOM     19  C   LIG    1       25.293 -20.413   4.896  0.00  0.00    +0.086 C 
ATOM     20  C   LIG    1       24.797 -20.085   3.489  0.00  0.00    +0.037 C 
ATOM     21  C   LIG    1       23.672 -19.045   3.488  0.00  0.00    +0.076 C 
ATOM     22  C   LIG    1       22.601 -19.422   4.519  0.00  0.00    +0.037 C 
ATOM     23  C   LIG    1       23.189 -19.804   5.879  0.00  0.00    +0.086 C 
BRANCH  18  24
ATOM     24  C   LIG    1       24.690 -21.353   7.047  0.00  0.00    +0.086 C 
BRANCH  24  25
ATOM     25  C   LIG    1       26.210 -21.572   7.061  0.00  0.00    +0.043 C 
BRANCH  25  26
ATOM     26  C   LIG    1       26.981 -20.257   7.001  0.00  0.00    +0.161 C 
BRANCH  26  28
ATOM     27  C   LIG    1       29.185 -19.485   6.644  0.00  0.00    +0.193 C 
ATOM     28  O   LIG    1       28.226 -20.489   6.337  0.00  0.00    -0.383 OA
ENDBRANCH  26  28
ENDBRANCH  25  26
ENDBRANCH  24  25
ENDBRANCH  18  24
ENDBRANCH   1  21
TORSDOF 7
ENDMDL
MODEL 3
REMARK VINA RESULT:      -1.5      2.247      7.167
REMARK  Name = *****
REMARK                            x       y       z     vdW  Elec       q    Type
REMARK                         _______ _______ _______ _____ _____    ______ ____
ROOT
ATOM      1  N   LIG    1       26.942 -16.220   3.949  0.00  0.00    -0.308 N 
ATOM      2  H   LIG    1       25.939 -16.108   4.043  0.00  0.00    +0.149 HD
ATOM      3  C   LIG    1       27.472 -17.452   4.280  0.00  0.00    +0.248 C 
ATOM      4  O   LIG    1       28.666 -17.671   4.392  0.00  0.00    -0.270 OA
ENDROOT
BRANCH   3   5
ATOM      5  C   LIG    1       26.500 -18.558   4.499  0.00  0.00    +0.080 A 
ATOM      6  C   LIG    1       26.697 -19.594   5.401  0.00  0.00    +0.138 A 
ATOM      7  O   LIG    1       27.785 -19.721   6.234  0.00  0.00    -0.490 OA
ATOM      8  C   LIG    1       27.663 -21.045   6.791  0.00  0.00    +0.234 C 
ATOM      9  C   LIG    1       26.217 -21.512   6.660  0.00  0.00    +0.081 C 
ATOM     10  C   LIG    1       25.760 -20.609   5.575  0.00  0.00    +0.020 A 
ATOM     11  C   LIG    1       24.578 -20.640   4.845  0.00  0.00    +0.050 A 
ATOM     12  C   LIG    1       24.347 -19.563   3.965  0.00  0.00    +0.063 A 
ATOM     13 CL   LIG    1       22.871 -19.475   3.063  0.00  0.00    -0.082 Cl
ATOM     14  C   LIG    1       25.300 -18.548   3.775  0.00  0.00    +0.038 A 
BRANCH  11  15
ATOM     15  N   LIG    1       23.576 -21.571   5.158  0.00  0.00    -0.356 N 
ATOM     16  H   LIG    1       23.682 -22.476   4.716  0.00  0.00    +0.142 HD
ATOM     17  H   LIG    1       22.638 -21.189   5.045  0.00  0.00    +0.142 HD
ENDBRANCH  11  15
ENDBRANCH   3   5
BRANCH   1  21
ATOM     18  N   LIG    1       26.167 -12.595   3.238  0.00  0.00    -0.302 NA
ATOM     19  C   LIG    1       26.224 -13.658   2.221  0.00  0.00    +0.086 C 
ATOM     20  C   LIG    1       27.537 -14.432   2.323  0.00  0.00    +0.037 C 
ATOM     21  C   LIG    1       27.759 -15.034   3.714  0.00  0.00    +0.076 C 
ATOM     22  C   LIG    1       27.505 -13.976   4.795  0.00  0.00    +0.037 C 
ATOM     23  C   LIG    1       26.205 -13.199   4.577  0.00  0.00    +0.086 C 
BRANCH  18  24
ATOM     24  C   LIG    1       24.978 -11.744   3.031  0.00  0.00    +0.086 C 
BRANCH  24  25
ATOM     25  C   LIG    1       23.717 -12.289   3.714  0.00  0.00    +0.043 C 
BRANCH  25  26
ATOM     26  C   LIG    1       23.491 -13.767   3.411  0.00  0.00    +0.161 C 
BRANCH  26  28
ATOM     27  C   LIG    1       22.912 -15.801   4.464  0.00  0.00    +0.193 C 
ATOM     28  O   LIG    1       23.398 -14.477   4.648  0.00  0.00    -0.383 OA
ENDBRANCH  26  28
ENDBRANCH  25  26
ENDBRANCH  24  25
ENDBRANCH  18  24
ENDBRANCH   1  21
TORSDOF 7
ENDMDL
MODEL 4
REMARK VINA RESULT:      -1.3      1.961      3.884
REMARK  Name = *****
REMARK                            x       y       z     vdW  Elec       q    Type
REMARK                         _______ _______ _______ _____ _____    ______ ____
ROOT
ATOM      1  N   LIG    1       27.407 -18.147   4.687  0.00  0.00    -0.308 N 
ATOM      2  H   LIG    1       27.645 -17.580   5.493  0.00  0.00    +0.149 HD
ATOM      3  C   LIG    1       26.645 -17.551   3.700  0.00  0.00    +0.248 C 
ATOM      4  O   LIG    1       26.136 -18.159   2.775  0.00  0.00    -0.270 OA
ENDROOT
BRANCH   3   5
ATOM      5  C   LIG    1       26.462 -16.078   3.799  0.00  0.00    +0.080 A 
ATOM      6  C   LIG    1       25.232 -15.461   3.981  0.00  0.00    +0.138 A 
ATOM      7  O   LIG    1       24.033 -16.118   4.133  0.00  0.00    -0.490 OA
ATOM      8  C   LIG    1       23.036 -15.080   4.048  0.00  0.00    +0.234 C 
ATOM      9  C   LIG    1       23.689 -13.735   4.347  0.00  0.00    +0.081 C 
ATOM     10  C   LIG    1       25.106 -14.077   4.069  0.00  0.00    +0.020 A 
ATOM     11  C   LIG    1       26.210 -13.239   3.971  0.00  0.00    +0.050 A 
ATOM     12  C   LIG    1       27.469 -13.860   3.837  0.00  0.00    +0.063 A 
ATOM     13 CL   LIG    1       28.911 -12.904   3.777  0.00  0.00    -0.082 Cl
ATOM     14  C   LIG    1       27.596 -15.255   3.730  0.00  0.00    +0.038 A 
BRANCH  11  15
ATOM     15  N   LIG    1       26.084 -11.866   4.234  0.00  0.00    -0.356 N 
ATOM     16  H   LIG    1       26.180 -11.267   3.422  0.00  0.00    +0.142 HD
ATOM     17  H   LIG    1       26.664 -11.563   5.014  0.00  0.00    +0.142 HD
ENDBRANCH  11  15
ENDBRANCH   3   5
BRANCH   1  21
ATOM     18  N   LIG    1       25.621 -21.090   6.234  0.00  0.00    -0.302 NA
ATOM     19  C   LIG    1       26.565 -20.211   6.944  0.00  0.00    +0.086 C 
ATOM     20  C   LIG    1       27.876 -20.090   6.169  0.00  0.00    +0.037 C 
ATOM     21  C   LIG    1       27.670 -19.581   4.739  0.00  0.00    +0.076 C 
ATOM     22  C   LIG    1       26.544 -20.365   4.055  0.00  0.00    +0.037 C 
ATOM     23  C   LIG    1       25.295 -20.501   4.928  0.00  0.00    +0.086 C 
BRANCH  18  24
ATOM     24  C   LIG    1       24.424 -21.341   7.061  0.00  0.00    +0.086 C 
BRANCH  24  25
ATOM     25  C   LIG    1       23.186 -20.568   6.584  0.00  0.00    +0.043 C 
BRANCH  25  26
ATOM     26  C   LIG    1       22.403 -21.335   5.523  0.00  0.00    +0.161 C 
BRANCH  26  28
ATOM     27  C   LIG    1       22.274 -19.068   4.872  0.00  0.00    +0.193 C 
ATOM     28  O   LIG    1       21.850 -20.397   4.597  0.00  0.00    -0.383 OA
ENDBRANCH  26  28
ENDBRANCH  25  26
ENDBRANCH  24  25
ENDBRANCH  18  24
ENDBRANCH   1  21
TORSDOF 7
ENDMDL
MODEL 5
REMARK VINA RESULT:      -0.8      1.718      3.567
REMARK  Name = *****
REMARK                            x       y       z     vdW  Elec       q    Type
REMARK                         _______ _______ _______ _____ _____    ______ ____
ROOT
ATOM      1  N   LIG    1       26.289 -18.129   3.697  0.00  0.00    -0.308 N 
ATOM      2  H   LIG    1       25.364 -17.947   3.322  0.00  0.00    +0.149 HD
ATOM      3  C   LIG    1       27.117 -17.040   3.887  0.00  0.00    +0.248 C 
ATOM      4  O   LIG    1       28.303 -17.127   4.152  0.00  0.00    -0.270 OA
ENDROOT
BRANCH   3   5
ATOM      5  C   LIG    1       26.490 -15.696   3.763  0.00  0.00    +0.080 A 
ATOM      6  C   LIG    1       27.208 -14.512   3.675  0.00  0.00    +0.138 A 
ATOM      7  O   LIG    1       28.581 -14.420   3.651  0.00  0.00    -0.490 OA
ATOM      8  C   LIG    1       28.853 -13.011   3.795  0.00  0.00    +0.234 C 
ATOM      9  C   LIG    1       27.611 -12.219   3.400  0.00  0.00    +0.081 C 
ATOM     10  C   LIG    1       26.580 -13.275   3.559  0.00  0.00    +0.020 A 
ATOM     11  C   LIG    1       25.195 -13.162   3.534  0.00  0.00    +0.050 A 
ATOM     12  C   LIG    1       24.459 -14.365   3.571  0.00  0.00    +0.063 A 
ATOM     13 CL   LIG    1       22.731 -14.333   3.474  0.00  0.00    -0.082 Cl
ATOM     14  C   LIG    1       25.091 -15.612   3.707  0.00  0.00    +0.038 A 
BRANCH  11  15
ATOM     15  N   LIG    1       24.589 -11.930   3.244  0.00  0.00    -0.356 N 
ATOM     16  H   LIG    1       25.185 -11.265   2.765  0.00  0.00    +0.142 HD
ATOM     17  H   LIG    1       24.121 -11.524   4.053  0.00  0.00    +0.142 HD
ENDBRANCH  11  15
ENDBRANCH   3   5
BRANCH   1  21
ATOM     18  N   LIG    1       25.091 -21.205   5.528  0.00  0.00    -0.302 NA
ATOM     19  C   LIG    1       25.970 -20.172   6.103  0.00  0.00    +0.086 C 
ATOM     20  C   LIG    1       27.168 -19.915   5.190  0.00  0.00    +0.037 C 
ATOM     21  C   LIG    1       26.752 -19.510   3.772  0.00  0.00    +0.076 C 
ATOM     22  C   LIG    1       25.683 -20.472   3.239  0.00  0.00    +0.037 C 
ATOM     23  C   LIG    1       24.557 -20.730   4.244  0.00  0.00    +0.086 C 
BRANCH  18  24
ATOM     24  C   LIG    1       24.029 -21.572   6.486  0.00  0.00    +0.086 C 
BRANCH  24  25
ATOM     25  C   LIG    1       23.012 -20.446   6.723  0.00  0.00    +0.043 C 
BRANCH  25  26
ATOM     26  C   LIG    1       22.292 -20.041   5.441  0.00  0.00    +0.161 C 
BRANCH  26  28
ATOM     27  C   LIG    1       21.941 -18.174   4.037  0.00  0.00    +0.193 C 
ATOM     28  O   LIG    1       22.312 -18.616   5.337  0.00  0.00    -0.383 OA
ENDBRANCH  26  28
ENDBRANCH  25  26
ENDBRANCH  24  25
ENDBRANCH  18  24
ENDBRANCH   1  21
TORSDOF 7
ENDMDL
