MODEL 1
REMARK VINA RESULT:      -5.5      0.000      0.000
REMARK  Name = *****
REMARK                            x       y       z     vdW  Elec       q    Type
REMARK                         _______ _______ _______ _____ _____    ______ ____
ROOT
ATOM      1  C   LIG    1       24.490 -21.577   7.203  0.00  0.00    +0.011 C 
ENDROOT
BRANCH   1   2
ATOM      2  C   LIG    1       23.257 -20.698   6.949  0.00  0.00    +0.000 C 
BRANCH   2   3
ATOM      3  C   LIG    1       22.776 -20.746   5.492  0.00  0.00    -0.000 C 
BRANCH   3   4
ATOM      4  C   LIG    1       22.486 -19.336   4.956  0.00  0.00    -0.000 C 
BRANCH   4   6
ATOM      5  C   LIG    1       24.482 -20.016   3.547  0.00  0.00    +0.004 C 
ATOM      6  C   LIG    1       23.476 -18.917   3.864  0.00  0.00    -0.003 C 
ENDBRANCH   4   6
ENDBRANCH   3   4
ENDBRANCH   2   3
ENDBRANCH   1   2
BRANCH   1   7
ATOM      7  C   LIG    1       25.786 -20.777   7.026  0.00  0.00    +0.120 C 
BRANCH   7   8
ATOM      8  C   LIG    1       26.451 -20.465   8.353  0.00  0.00    +0.305 C 
ATOM      9  O   LIG    1       25.901 -20.542   9.438  0.00  0.00    -0.251 OA
BRANCH   8  10
ATOM     10  O   LIG    1       27.755 -20.135   8.221  0.00  0.00    -0.481 OA
ATOM     11  H   LIG    1       28.148 -20.374   7.361  0.00  0.00    +0.295 HD
ENDBRANCH   8  10
ENDBRANCH   7   8
ENDBRANCH   1   7
TORSDOF 7
ENDMDL
MODEL 2
REMARK VINA RESULT:      -5.4      3.148      3.578
REMARK  Name = *****
REMARK                            x       y       z     vdW  Elec       q    Type
REMARK                         _______ _______ _______ _____ _____    ______ ____
ROOT
ATOM      1  C   LIG    1       23.123 -23.173   6.724  0.00  0.00    +0.011 C 
ENDROOT
BRANCH   1   2
ATOM      2  C   LIG    1       23.354 -21.879   7.517  0.00  0.00    +0.000 C 
BRANCH   2   3
ATOM      3  C   LIG    1       23.551 -20.652   6.618  0.00  0.00    -0.000 C 
BRANCH   3   4
ATOM      4  C   LIG    1       22.526 -20.632   5.472  0.00  0.00    -0.000 C 
BRANCH   4   6
ATOM      5  C   LIG    1       23.618 -19.071   3.798  0.00  0.00    +0.004 C 
ATOM      6  C   LIG    1       22.465 -19.269   4.775  0.00  0.00    -0.003 C 
ENDBRANCH   4   6
ENDBRANCH   3   4
ENDBRANCH   2   3
ENDBRANCH   1   2
BRANCH   1   7
ATOM      7  C   LIG    1       24.365 -24.073   6.757  0.00  0.00    +0.120 C 
BRANCH   7   8
ATOM      8  C   LIG    1       24.934 -24.313   5.372  0.00  0.00    +0.305 C 
ATOM      9  O   LIG    1       25.447 -25.357   5.006  0.00  0.00    -0.251 OA
BRANCH   8  10
ATOM     10  O   LIG    1       24.767 -23.257   4.545  0.00  0.00    -0.481 OA
ATOM     11  H   LIG    1       24.938 -22.390   4.959  0.00  0.00    +0.295 HD
ENDBRANCH   8  10
ENDBRANCH   7   8
ENDBRANCH   1   7
TORSDOF 7
ENDMDL
MODEL 3
REMARK VINA RESULT:      -5.3      2.988      3.620
REMARK  Name = *****
REMARK                            x       y       z     vdW  Elec       q    Type
REMARK                         _______ _______ _______ _____ _____    ______ ____
ROOT
ATOM      1  C   LIG    1       24.973 -22.356   6.027  0.00  0.00    +0.011 C 
ENDROOT
BRANCH   1   2
ATOM      2  C   LIG    1       24.793 -21.115   6.913  0.00  0.00    +0.000 C 
BRANCH   2   3
ATOM      3  C   LIG    1       23.347 -20.603   6.942  0.00  0.00    -0.000 C 
BRANCH   3   4
ATOM      4  C   LIG    1       22.697 -20.695   5.552  0.00  0.00    -0.000 C 
BRANCH   4   6
ATOM      5  C   LIG    1       23.576 -19.061   3.823  0.00  0.00    +0.004 C 
ATOM      6  C   LIG    1       22.529 -19.319   4.900  0.00  0.00    -0.003 C 
ENDBRANCH   4   6
ENDBRANCH   3   4
ENDBRANCH   2   3
ENDBRANCH   1   2
BRANCH   1   7
ATOM      7  C   LIG    1       24.827 -23.646   6.844  0.00  0.00    +0.120 C 
BRANCH   7   8
ATOM      8  C   LIG    1       23.530 -24.371   6.542  0.00  0.00    +0.305 C 
ATOM      9  O   LIG    1       22.422 -23.966   6.850  0.00  0.00    -0.251 OA
BRANCH   8  10
ATOM     10  O   LIG    1       23.717 -25.510   5.837  0.00  0.00    -0.481 OA
ATOM     11  H   LIG    1       24.097 -26.246   6.352  0.00  0.00    +0.295 HD
ENDBRANCH   8  10
ENDBRANCH   7   8
ENDBRANCH   1   7
TORSDOF 7
ENDMDL
MODEL 4
REMARK VINA RESULT:      -5.2      3.782      4.995
REMARK  Name = *****
REMARK                            x       y       z     vdW  Elec       q    Type
REMARK                         _______ _______ _______ _____ _____    ______ ____
ROOT
ATOM      1  C   LIG    1       28.978 -20.387   7.750  0.00  0.00    +0.011 C 
ENDROOT
BRANCH   1   2
ATOM      2  C   LIG    1       28.158 -20.033   6.501  0.00  0.00    +0.000 C 
BRANCH   2   3
ATOM      3  C   LIG    1       26.686 -20.452   6.611  0.00  0.00    -0.000 C 
BRANCH   3   4
ATOM      4  C   LIG    1       26.234 -20.512   8.079  0.00  0.00    -0.000 C 
BRANCH   4   6
ATOM      5  C   LIG    1       26.000 -22.943   7.396  0.00  0.00    +0.004 C 
ATOM      6  C   LIG    1       25.705 -21.897   8.464  0.00  0.00    -0.003 C 
ENDBRANCH   4   6
ENDBRANCH   3   4
ENDBRANCH   2   3
ENDBRANCH   1   2
BRANCH   1   7
ATOM      7  C   LIG    1       29.792 -19.182   8.239  0.00  0.00    +0.120 C 
BRANCH   7   8
ATOM      8  C   LIG    1       31.284 -19.458   8.228  0.00  0.00    +0.305 C 
ATOM      9  O   LIG    1       31.999 -19.440   9.215  0.00  0.00    -0.251 OA
BRANCH   8  10
ATOM     10  O   LIG    1       31.748 -19.784   7.000  0.00  0.00    -0.481 OA
ATOM     11  H   LIG    1       31.304 -20.549   6.591  0.00  0.00    +0.295 HD
ENDBRANCH   8  10
ENDBRANCH   7   8
ENDBRANCH   1   7
TORSDOF 7
ENDMDL
MODEL 5
REMARK VINA RESULT:      -5.2      1.234      1.996
REMARK  Name = *****
REMARK                            x       y       z     vdW  Elec       q    Type
REMARK                         _______ _______ _______ _____ _____    ______ ____
ROOT
ATOM      1  C   LIG    1       25.562 -23.382   7.294  0.00  0.00    +0.011 C 
ENDROOT
BRANCH   1   2
ATOM      2  C   LIG    1       24.438 -23.077   6.293  0.00  0.00    +0.000 C 
BRANCH   2   3
ATOM      3  C   LIG    1       23.205 -22.445   6.951  0.00  0.00    -0.000 C 
BRANCH   3   4
ATOM      4  C   LIG    1       23.198 -20.919   6.767  0.00  0.00    -0.000 C 
BRANCH   4   6
ATOM      5  C   LIG    1       22.432 -19.254   5.015  0.00  0.00    +0.004 C 
ATOM      6  C   LIG    1       23.241 -20.514   5.290  0.00  0.00    -0.003 C 
ENDBRANCH   4   6
ENDBRANCH   3   4
ENDBRANCH   2   3
ENDBRANCH   1   2
BRANCH   1   7
ATOM      7  C   LIG    1       26.627 -22.278   7.284  0.00  0.00    +0.120 C 
BRANCH   7   8
ATOM      8  C   LIG    1       26.460 -21.312   8.441  0.00  0.00    +0.305 C 
ATOM      9  O   LIG    1       25.646 -21.442   9.340  0.00  0.00    -0.251 OA
BRANCH   8  10
ATOM     10  O   LIG    1       27.352 -20.297   8.410  0.00  0.00    -0.481 OA
ATOM     11  H   LIG    1       27.321 -19.756   7.599  0.00  0.00    +0.295 HD
ENDBRANCH   8  10
ENDBRANCH   7   8
ENDBRANCH   1   7
TORSDOF 7
ENDMDL
MODEL 6
REMARK VINA RESULT:      -5.2      2.958      4.594
REMARK  Name = *****
REMARK                            x       y       z     vdW  Elec       q    Type
REMARK                         _______ _______ _______ _____ _____    ______ ____
ROOT
ATOM      1  C   LIG    1       29.120 -20.015   6.728  0.00  0.00    +0.011 C 
ENDROOT
BRANCH   1   2
ATOM      2  C   LIG    1       27.615 -20.317   6.763  0.00  0.00    +0.000 C 
BRANCH   2   3
ATOM      3  C   LIG    1       27.085 -20.565   8.181  0.00  0.00    -0.000 C 
BRANCH   3   4
ATOM      4  C   LIG    1       25.556 -20.721   8.184  0.00  0.00    -0.000 C 
BRANCH   4   6
ATOM      5  C   LIG    1       23.455 -20.784   6.767  0.00  0.00    +0.004 C 
ATOM      6  C   LIG    1       24.978 -20.776   6.767  0.00  0.00    -0.003 C 
ENDBRANCH   4   6
ENDBRANCH   3   4
ENDBRANCH   2   3
ENDBRANCH   1   2
BRANCH   1   7
ATOM      7  C   LIG    1       29.832 -20.611   7.949  0.00  0.00    +0.120 C 
BRANCH   7   8
ATOM      8  C   LIG    1       31.232 -20.054   8.123  0.00  0.00    +0.305 C 
ATOM      9  O   LIG    1       31.890 -20.143   9.146  0.00  0.00    -0.251 OA
BRANCH   8  10
ATOM     10  O   LIG    1       31.713 -19.482   6.997  0.00  0.00    -0.481 OA
ATOM     11  H   LIG    1       31.033 -19.080   6.426  0.00  0.00    +0.295 HD
ENDBRANCH   8  10
ENDBRANCH   7   8
ENDBRANCH   1   7
TORSDOF 7
ENDMDL
MODEL 7
REMARK VINA RESULT:      -5.1      3.185      4.637
REMARK  Name = *****
REMARK                            x       y       z     vdW  Elec       q    Type
REMARK                         _______ _______ _______ _____ _____    ______ ____
ROOT
ATOM      1  C   LIG    1       23.321 -20.722   7.039  0.00  0.00    +0.011 C 
ENDROOT
BRANCH   1   2
ATOM      2  C   LIG    1       23.838 -22.133   7.353  0.00  0.00    +0.000 C 
BRANCH   2   3
ATOM      3  C   LIG    1       22.893 -23.240   6.868  0.00  0.00    -0.000 C 
BRANCH   3   4
ATOM      4  C   LIG    1       23.664 -24.532   6.555  0.00  0.00    -0.000 C 
BRANCH   4   6
ATOM      5  C   LIG    1       25.944 -25.635   6.438  0.00  0.00    +0.004 C 
ATOM      6  C   LIG    1       25.181 -24.329   6.619  0.00  0.00    -0.003 C 
ENDBRANCH   4   6
ENDBRANCH   3   4
ENDBRANCH   2   3
ENDBRANCH   1   2
BRANCH   1   7
ATOM      7  C   LIG    1       22.950 -20.585   5.557  0.00  0.00    +0.120 C 
BRANCH   7   8
ATOM      8  C   LIG    1       24.144 -20.794   4.647  0.00  0.00    +0.305 C 
ATOM      9  O   LIG    1       25.174 -20.144   4.695  0.00  0.00    -0.251 OA
BRANCH   8  10
ATOM     10  O   LIG    1       23.977 -21.828   3.791  0.00  0.00    -0.481 OA
ATOM     11  H   LIG    1       24.169 -22.704   4.174  0.00  0.00    +0.295 HD
ENDBRANCH   8  10
ENDBRANCH   7   8
ENDBRANCH   1   7
TORSDOF 7
ENDMDL
MODEL 8
REMARK VINA RESULT:      -5.1      3.270      4.330
REMARK  Name = *****
REMARK                            x       y       z     vdW  Elec       q    Type
REMARK                         _______ _______ _______ _____ _____    ______ ____
ROOT
ATOM      1  C   LIG    1       23.249 -23.493   6.726  0.00  0.00    +0.011 C 
ENDROOT
BRANCH   1   2
ATOM      2  C   LIG    1       23.256 -22.108   7.389  0.00  0.00    +0.000 C 
BRANCH   2   3
ATOM      3  C   LIG    1       23.577 -20.975   6.406  0.00  0.00    -0.000 C 
BRANCH   3   4
ATOM      4  C   LIG    1       25.073 -20.624   6.432  0.00  0.00    -0.000 C 
BRANCH   4   6
ATOM      5  C   LIG    1       27.162 -20.456   7.859  0.00  0.00    +0.004 C 
ATOM      6  C   LIG    1       25.655 -20.679   7.848  0.00  0.00    -0.003 C 
ENDBRANCH   4   6
ENDBRANCH   3   4
ENDBRANCH   2   3
ENDBRANCH   1   2
BRANCH   1   7
ATOM      7  C   LIG    1       24.633 -24.151   6.803  0.00  0.00    +0.120 C 
BRANCH   7   8
ATOM      8  C   LIG    1       25.158 -24.541   5.435  0.00  0.00    +0.305 C 
ATOM      9  O   LIG    1       25.824 -25.536   5.207  0.00  0.00    -0.251 OA
BRANCH   8  10
ATOM     10  O   LIG    1       24.766 -23.690   4.461  0.00  0.00    -0.481 OA
ATOM     11  H   LIG    1       24.100 -23.035   4.740  0.00  0.00    +0.295 HD
ENDBRANCH   8  10
ENDBRANCH   7   8
ENDBRANCH   1   7
TORSDOF 7
ENDMDL
MODEL 9
REMARK VINA RESULT:      -5.1      2.618      4.131
REMARK  Name = *****
REMARK                            x       y       z     vdW  Elec       q    Type
REMARK                         _______ _______ _______ _____ _____    ______ ____
ROOT
ATOM      1  C   LIG    1       28.193 -19.979   7.603  0.00  0.00    +0.011 C 
ENDROOT
BRANCH   1   2
ATOM      2  C   LIG    1       27.278 -21.141   8.017  0.00  0.00    +0.000 C 
BRANCH   2   3
ATOM      3  C   LIG    1       25.812 -20.720   8.182  0.00  0.00    -0.000 C 
BRANCH   3   4
ATOM      4  C   LIG    1       25.071 -20.744   6.836  0.00  0.00    -0.000 C 
BRANCH   4   6
ATOM      5  C   LIG    1       22.813 -20.189   5.824  0.00  0.00    +0.004 C 
ATOM      6  C   LIG    1       23.550 -20.791   7.014  0.00  0.00    -0.003 C 
ENDBRANCH   4   6
ENDBRANCH   3   4
ENDBRANCH   2   3
ENDBRANCH   1   2
BRANCH   1   7
ATOM      7  C   LIG    1       29.664 -20.415   7.575  0.00  0.00    +0.120 C 
BRANCH   7   8
ATOM      8  C   LIG    1       30.549 -19.396   6.884  0.00  0.00    +0.305 C 
ATOM      9  O   LIG    1       30.140 -18.471   6.204  0.00  0.00    -0.251 OA
BRANCH   8  10
ATOM     10  O   LIG    1       31.863 -19.583   7.142  0.00  0.00    -0.481 OA
ATOM     11  H   LIG    1       32.445 -18.877   6.803  0.00  0.00    +0.295 HD
ENDBRANCH   8  10
ENDBRANCH   7   8
ENDBRANCH   1   7
TORSDOF 7
ENDMDL
