MODEL 1
REMARK VINA RESULT:      -6.9      0.000      0.000
REMARK  Name = *****
REMARK                            x       y       z     vdW  Elec       q    Type
REMARK                         _______ _______ _______ _____ _____    ______ ____
ROOT
ATOM      1  C   LIG    1       27.560 -20.265   6.155  0.00  0.00    +0.024 C 
ATOM      2  C   LIG    1       27.646 -21.229   7.350  0.00  0.00    +0.055 C 
ENDROOT
BRANCH   2   3
ATOM      3  N   LIG    1       28.750 -20.891   8.285  0.00  0.00    -0.312 NA
ATOM      4  H   LIG    1       29.432 -21.650   8.274  0.00  0.00    +0.122 HD
BRANCH   3   5
ATOM      5  C   LIG    1       29.425 -19.610   8.010  0.00  0.00    +0.096 C 
BRANCH   5   6
ATOM      6  C   LIG    1       30.954 -19.742   7.919  0.00  0.00    +0.133 C 
BRANCH   6   7
ATOM      7  C   LIG    1       31.434 -20.882   8.742  0.00  0.00    +0.064 C 
ATOM      8  N   LIG    1       31.786 -21.775   9.388  0.00  0.00    -0.197 NA
ENDBRANCH   6   7
ENDBRANCH   5   6
ENDBRANCH   3   5
ENDBRANCH   2   3
BRANCH   2   9
ATOM      9  C   LIG    1       26.253 -21.361   8.021  0.00  0.00    +0.053 C 
BRANCH   9  10
ATOM     10  C   LIG    1       25.337 -22.449   7.504  0.00  0.00    -0.046 A 
ATOM     11  C   LIG    1       23.965 -22.181   7.360  0.00  0.00    +0.003 A 
ATOM     12  C   LIG    1       23.091 -23.162   6.889  0.00  0.00    +0.000 A 
ATOM     13  C   LIG    1       23.576 -24.420   6.538  0.00  0.00    +0.000 A 
ATOM     14  C   LIG    1       24.937 -24.689   6.641  0.00  0.00    +0.000 A 
ATOM     15  C   LIG    1       25.813 -23.707   7.107  0.00  0.00    +0.003 A 
ENDBRANCH   9  10
ENDBRANCH   2   9
TORSDOF 6
ENDMDL
MODEL 2
REMARK VINA RESULT:      -6.9      2.454      3.367
REMARK  Name = *****
REMARK                            x       y       z     vdW  Elec       q    Type
REMARK                         _______ _______ _______ _____ _____    ______ ____
ROOT
ATOM      1  C   LIG    1       26.061 -20.642   8.684  0.00  0.00    +0.024 C 
ATOM      2  C   LIG    1       26.745 -20.722   7.310  0.00  0.00    +0.055 C 
ENDROOT
BRANCH   2   3
ATOM      3  N   LIG    1       28.121 -21.277   7.381  0.00  0.00    -0.312 NA
ATOM      4  H   LIG    1       28.147 -22.156   6.864  0.00  0.00    +0.122 HD
BRANCH   3   5
ATOM      5  C   LIG    1       29.179 -20.377   6.887  0.00  0.00    +0.096 C 
BRANCH   5   6
ATOM      6  C   LIG    1       29.627 -19.343   7.933  0.00  0.00    +0.133 C 
BRANCH   6   7
ATOM      7  C   LIG    1       30.884 -19.774   8.596  0.00  0.00    +0.064 C 
ATOM      8  N   LIG    1       31.851 -20.119   9.129  0.00  0.00    -0.197 NA
ENDBRANCH   6   7
ENDBRANCH   5   6
ENDBRANCH   3   5
ENDBRANCH   2   3
BRANCH   2   9
ATOM      9  C   LIG    1       25.813 -21.442   6.299  0.00  0.00    +0.053 C 
BRANCH   9  10
ATOM     10  C   LIG    1       24.801 -20.591   5.562  0.00  0.00    -0.046 A 
ATOM     11  C   LIG    1       25.175 -19.964   4.363  0.00  0.00    +0.003 A 
ATOM     12  C   LIG    1       24.267 -19.170   3.659  0.00  0.00    +0.000 A 
ATOM     13  C   LIG    1       22.969 -19.005   4.134  0.00  0.00    +0.000 A 
ATOM     14  C   LIG    1       22.573 -19.649   5.302  0.00  0.00    +0.000 A 
ATOM     15  C   LIG    1       23.479 -20.447   6.004  0.00  0.00    +0.003 A 
ENDBRANCH   9  10
ENDBRANCH   2   9
TORSDOF 6
ENDMDL
MODEL 3
REMARK VINA RESULT:      -6.9      4.249      6.234
REMARK  Name = *****
REMARK                            x       y       z     vdW  Elec       q    Type
REMARK                         _______ _______ _______ _____ _____    ______ ____
ROOT
ATOM      1  C   LIG    1       25.896 -23.537   7.192  0.00  0.00    +0.024 C 
ATOM      2  C   LIG    1       25.050 -23.279   5.935  0.00  0.00    +0.055 C 
ENDROOT
BRANCH   2   3
ATOM      3  N   LIG    1       24.652 -24.530   5.239  0.00  0.00    -0.312 NA
ATOM      4  H   LIG    1       25.485 -24.960   4.839  0.00  0.00    +0.122 HD
BRANCH   3   5
ATOM      5  C   LIG    1       23.941 -25.508   6.082  0.00  0.00    +0.096 C 
BRANCH   5   6
ATOM      6  C   LIG    1       24.448 -26.947   5.892  0.00  0.00    +0.133 C 
BRANCH   6   7
ATOM      7  C   LIG    1       25.814 -26.951   5.308  0.00  0.00    +0.064 C 
ATOM      8  N   LIG    1       26.885 -26.967   4.871  0.00  0.00    -0.197 NA
ENDBRANCH   6   7
ENDBRANCH   5   6
ENDBRANCH   3   5
ENDBRANCH   2   3
BRANCH   2   9
ATOM      9  C   LIG    1       23.869 -22.332   6.281  0.00  0.00    +0.053 C 
BRANCH   9  10
ATOM     10  C   LIG    1       23.709 -21.087   5.437  0.00  0.00    -0.046 A 
ATOM     11  C   LIG    1       24.718 -20.743   4.522  0.00  0.00    +0.003 A 
ATOM     12  C   LIG    1       24.606 -19.600   3.729  0.00  0.00    +0.000 A 
ATOM     13  C   LIG    1       23.476 -18.792   3.826  0.00  0.00    +0.000 A 
ATOM     14  C   LIG    1       22.451 -19.139   4.702  0.00  0.00    +0.000 A 
ATOM     15  C   LIG    1       22.561 -20.284   5.491  0.00  0.00    +0.003 A 
ENDBRANCH   9  10
ENDBRANCH   2   9
TORSDOF 6
ENDMDL
MODEL 4
REMARK VINA RESULT:      -6.8      0.887      1.573
REMARK  Name = *****
REMARK                            x       y       z     vdW  Elec       q    Type
REMARK                         _______ _______ _______ _____ _____    ______ ____
ROOT
ATOM      1  C   LIG    1       27.965 -19.964   5.960  0.00  0.00    +0.024 C 
ATOM      2  C   LIG    1       27.907 -20.502   7.399  0.00  0.00    +0.055 C 
ENDROOT
BRANCH   2   3
ATOM      3  N   LIG    1       28.910 -19.868   8.293  0.00  0.00    -0.312 NA
ATOM      4  H   LIG    1       29.545 -20.589   8.635  0.00  0.00    +0.122 HD
BRANCH   3   5
ATOM      5  C   LIG    1       29.683 -18.773   7.680  0.00  0.00    +0.096 C 
BRANCH   5   6
ATOM      6  C   LIG    1       31.068 -18.583   8.317  0.00  0.00    +0.133 C 
BRANCH   6   7
ATOM      7  C   LIG    1       31.585 -19.870   8.848  0.00  0.00    +0.064 C 
ATOM      8  N   LIG    1       31.975 -20.869   9.282  0.00  0.00    -0.197 NA
ENDBRANCH   6   7
ENDBRANCH   5   6
ENDBRANCH   3   5
ENDBRANCH   2   3
BRANCH   2   9
ATOM      9  C   LIG    1       26.447 -20.442   7.925  0.00  0.00    +0.053 C 
BRANCH   9  10
ATOM     10  C   LIG    1       25.517 -21.563   7.515  0.00  0.00    -0.046 A 
ATOM     11  C   LIG    1       26.046 -22.843   7.281  0.00  0.00    +0.003 A 
ATOM     12  C   LIG    1       25.217 -23.900   6.899  0.00  0.00    +0.000 A 
ATOM     13  C   LIG    1       23.846 -23.697   6.763  0.00  0.00    +0.000 A 
ATOM     14  C   LIG    1       23.303 -22.444   7.027  0.00  0.00    +0.000 A 
ATOM     15  C   LIG    1       24.130 -21.388   7.413  0.00  0.00    +0.003 A 
ENDBRANCH   9  10
ENDBRANCH   2   9
TORSDOF 6
ENDMDL
MODEL 5
REMARK VINA RESULT:      -6.8      3.553      5.714
REMARK  Name = *****
REMARK                            x       y       z     vdW  Elec       q    Type
REMARK                         _______ _______ _______ _____ _____    ______ ____
ROOT
ATOM      1  C   LIG    1       25.915 -22.071   8.399  0.00  0.00    +0.024 C 
ATOM      2  C   LIG    1       25.373 -22.449   7.011  0.00  0.00    +0.055 C 
ENDROOT
BRANCH   2   3
ATOM      3  N   LIG    1       25.441 -23.909   6.742  0.00  0.00    -0.312 NA
ATOM      4  H   LIG    1       25.937 -24.360   7.510  0.00  0.00    +0.122 HD
BRANCH   3   5
ATOM      5  C   LIG    1       24.136 -24.563   6.538  0.00  0.00    +0.096 C 
BRANCH   5   6
ATOM      6  C   LIG    1       24.226 -25.831   5.674  0.00  0.00    +0.133 C 
BRANCH   6   7
ATOM      7  C   LIG    1       25.640 -26.253   5.504  0.00  0.00    +0.064 C 
ATOM      8  N   LIG    1       26.735 -26.604   5.370  0.00  0.00    -0.197 NA
ENDBRANCH   6   7
ENDBRANCH   5   6
ENDBRANCH   3   5
ENDBRANCH   2   3
BRANCH   2   9
ATOM      9  C   LIG    1       23.967 -21.823   6.807  0.00  0.00    +0.053 C 
BRANCH   9  10
ATOM     10  C   LIG    1       23.824 -20.784   5.716  0.00  0.00    -0.046 A 
ATOM     11  C   LIG    1       22.659 -20.001   5.662  0.00  0.00    +0.003 A 
ATOM     12  C   LIG    1       22.493 -19.034   4.668  0.00  0.00    +0.000 A 
ATOM     13  C   LIG    1       23.495 -18.825   3.724  0.00  0.00    +0.000 A 
ATOM     14  C   LIG    1       24.669 -19.568   3.786  0.00  0.00    +0.000 A 
ATOM     15  C   LIG    1       24.839 -20.531   4.782  0.00  0.00    +0.003 A 
ENDBRANCH   9  10
ENDBRANCH   2   9
TORSDOF 6
ENDMDL
MODEL 6
REMARK VINA RESULT:      -6.6      2.734      3.873
REMARK  Name = *****
REMARK                            x       y       z     vdW  Elec       q    Type
REMARK                         _______ _______ _______ _____ _____    ______ ____
ROOT
ATOM      1  C   LIG    1       23.058 -20.583   5.934  0.00  0.00    +0.024 C 
ATOM      2  C   LIG    1       23.888 -21.837   5.615  0.00  0.00    +0.055 C 
ENDROOT
BRANCH   2   3
ATOM      3  N   LIG    1       25.255 -21.516   5.128  0.00  0.00    -0.312 NA
ATOM      4  H   LIG    1       25.221 -21.394   4.117  0.00  0.00    +0.122 HD
BRANCH   3   5
ATOM      5  C   LIG    1       25.873 -20.333   5.753  0.00  0.00    +0.096 C 
BRANCH   5   6
ATOM      6  C   LIG    1       26.934 -20.693   6.806  0.00  0.00    +0.133 C 
BRANCH   6   7
ATOM      7  C   LIG    1       26.369 -20.602   8.176  0.00  0.00    +0.064 C 
ATOM      8  N   LIG    1       25.939 -20.551   9.249  0.00  0.00    -0.197 NA
ENDBRANCH   6   7
ENDBRANCH   5   6
ENDBRANCH   3   5
ENDBRANCH   2   3
BRANCH   2   9
ATOM      9  C   LIG    1       23.847 -22.816   6.819  0.00  0.00    +0.053 C 
BRANCH   9  10
ATOM     10  C   LIG    1       24.464 -24.184   6.620  0.00  0.00    -0.046 A 
ATOM     11  C   LIG    1       23.667 -25.232   6.133  0.00  0.00    +0.003 A 
ATOM     12  C   LIG    1       24.202 -26.507   5.940  0.00  0.00    +0.000 A 
ATOM     13  C   LIG    1       25.546 -26.749   6.214  0.00  0.00    +0.000 A 
ATOM     14  C   LIG    1       26.357 -25.711   6.663  0.00  0.00    +0.000 A 
ATOM     15  C   LIG    1       25.823 -24.435   6.852  0.00  0.00    +0.003 A 
ENDBRANCH   9  10
ENDBRANCH   2   9
TORSDOF 6
ENDMDL
MODEL 7
REMARK VINA RESULT:      -6.6      3.276      5.673
REMARK  Name = *****
REMARK                            x       y       z     vdW  Elec       q    Type
REMARK                         _______ _______ _______ _____ _____    ______ ____
ROOT
ATOM      1  C   LIG    1       25.927 -22.438   8.463  0.00  0.00    +0.024 C 
ATOM      2  C   LIG    1       26.445 -22.320   7.020  0.00  0.00    +0.055 C 
ENDROOT
BRANCH   2   3
ATOM      3  N   LIG    1       25.798 -23.285   6.094  0.00  0.00    -0.312 NA
ATOM      4  H   LIG    1       26.221 -23.186   5.171  0.00  0.00    +0.122 HD
BRANCH   3   5
ATOM      5  C   LIG    1       25.862 -24.694   6.522  0.00  0.00    +0.096 C 
BRANCH   5   6
ATOM      6  C   LIG    1       24.520 -25.429   6.378  0.00  0.00    +0.133 C 
BRANCH   6   7
ATOM      7  C   LIG    1       23.383 -24.493   6.575  0.00  0.00    +0.064 C 
ATOM      8  N   LIG    1       22.513 -23.747   6.731  0.00  0.00    -0.197 NA
ENDBRANCH   6   7
ENDBRANCH   5   6
ENDBRANCH   3   5
ENDBRANCH   2   3
BRANCH   2   9
ATOM      9  C   LIG    1       26.379 -20.840   6.556  0.00  0.00    +0.053 C 
BRANCH   9  10
ATOM     10  C   LIG    1       25.144 -20.407   5.796  0.00  0.00    -0.046 A 
ATOM     11  C   LIG    1       25.264 -20.027   4.449  0.00  0.00    +0.003 A 
ATOM     12  C   LIG    1       24.147 -19.620   3.718  0.00  0.00    +0.000 A 
ATOM     13  C   LIG    1       22.890 -19.604   4.317  0.00  0.00    +0.000 A 
ATOM     14  C   LIG    1       22.748 -20.012   5.640  0.00  0.00    +0.000 A 
ATOM     15  C   LIG    1       23.865 -20.423   6.370  0.00  0.00    +0.003 A 
ENDBRANCH   9  10
ENDBRANCH   2   9
TORSDOF 6
ENDMDL
MODEL 8
REMARK VINA RESULT:      -6.5      2.864      4.700
REMARK  Name = *****
REMARK                            x       y       z     vdW  Elec       q    Type
REMARK                         _______ _______ _______ _____ _____    ______ ____
ROOT
ATOM      1  C   LIG    1       24.498 -24.679   6.444  0.00  0.00    +0.024 C 
ATOM      2  C   LIG    1       24.751 -23.163   6.489  0.00  0.00    +0.055 C 
ENDROOT
BRANCH   2   3
ATOM      3  N   LIG    1       25.939 -22.800   7.304  0.00  0.00    -0.312 NA
ATOM      4  H   LIG    1       26.624 -22.347   6.700  0.00  0.00    +0.122 HD
BRANCH   3   5
ATOM      5  C   LIG    1       25.653 -21.939   8.466  0.00  0.00    +0.096 C 
BRANCH   5   6
ATOM      6  C   LIG    1       26.287 -20.544   8.352  0.00  0.00    +0.133 C 
BRANCH   6   7
ATOM      7  C   LIG    1       26.942 -20.369   7.030  0.00  0.00    +0.064 C 
ATOM      8  N   LIG    1       27.467 -20.249   6.006  0.00  0.00    -0.197 NA
ENDBRANCH   6   7
ENDBRANCH   5   6
ENDBRANCH   3   5
ENDBRANCH   2   3
BRANCH   2   9
ATOM      9  C   LIG    1       24.761 -22.588   5.047  0.00  0.00    +0.053 C 
BRANCH   9  10
ATOM     10  C   LIG    1       24.098 -21.245   4.833  0.00  0.00    -0.046 A 
ATOM     11  C   LIG    1       24.529 -20.427   3.776  0.00  0.00    +0.003 A 
ATOM     12  C   LIG    1       23.941 -19.180   3.551  0.00  0.00    +0.000 A 
ATOM     13  C   LIG    1       22.903 -18.741   4.368  0.00  0.00    +0.000 A 
ATOM     14  C   LIG    1       22.441 -19.555   5.397  0.00  0.00    +0.000 A 
ATOM     15  C   LIG    1       23.025 -20.804   5.619  0.00  0.00    +0.003 A 
ENDBRANCH   9  10
ENDBRANCH   2   9
TORSDOF 6
ENDMDL
MODEL 9
REMARK VINA RESULT:      -6.3      3.005      4.999
REMARK  Name = *****
REMARK                            x       y       z     vdW  Elec       q    Type
REMARK                         _______ _______ _______ _____ _____    ______ ____
ROOT
ATOM      1  C   LIG    1       27.977 -20.396   6.622  0.00  0.00    +0.024 C 
ATOM      2  C   LIG    1       26.448 -20.559   6.586  0.00  0.00    +0.055 C 
ENDROOT
BRANCH   2   3
ATOM      3  N   LIG    1       25.931 -20.851   5.224  0.00  0.00    -0.312 NA
ATOM      4  H   LIG    1       25.085 -21.415   5.310  0.00  0.00    +0.122 HD
BRANCH   3   5
ATOM      5  C   LIG    1       25.656 -19.662   4.398  0.00  0.00    +0.096 C 
BRANCH   5   6
ATOM      6  C   LIG    1       24.424 -19.829   3.494  0.00  0.00    +0.133 C 
BRANCH   6   7
ATOM      7  C   LIG    1       23.235 -19.174   4.097  0.00  0.00    +0.064 C 
ATOM      8  N   LIG    1       22.297 -18.683   4.564  0.00  0.00    -0.197 NA
ENDBRANCH   6   7
ENDBRANCH   5   6
ENDBRANCH   3   5
ENDBRANCH   2   3
BRANCH   2   9
ATOM      9  C   LIG    1       26.000 -21.571   7.675  0.00  0.00    +0.053 C 
BRANCH   9  10
ATOM     10  C   LIG    1       25.246 -22.798   7.211  0.00  0.00    -0.046 A 
ATOM     11  C   LIG    1       25.957 -23.976   6.930  0.00  0.00    +0.003 A 
ATOM     12  C   LIG    1       25.294 -25.126   6.497  0.00  0.00    +0.000 A 
ATOM     13  C   LIG    1       23.909 -25.121   6.356  0.00  0.00    +0.000 A 
ATOM     14  C   LIG    1       23.187 -23.973   6.665  0.00  0.00    +0.000 A 
ATOM     15  C   LIG    1       23.849 -22.824   7.102  0.00  0.00    +0.003 A 
ENDBRANCH   9  10
ENDBRANCH   2   9
TORSDOF 6
ENDMDL
