MODEL 1
REMARK VINA RESULT:      -2.4      0.000      0.000
REMARK  Name = *****
REMARK                            x       y       z     vdW  Elec       q    Type
REMARK                         _______ _______ _______ _____ _____    ______ ____
ROOT
ATOM      1  N   LIG    1       24.094 -18.562   3.560  0.00  0.00    -0.087 NA
ATOM      2  C   LIG    1       24.228 -19.567   4.399  0.00  0.00    +0.108 C 
ENDROOT
BRANCH   2   3
ATOM      3  C   LIG    1       25.487 -19.943   5.151  0.00  0.00    +0.020 A 
ATOM      4  C   LIG    1       25.538 -20.853   6.237  0.00  0.00    +0.051 A 
ATOM      5 CL   LIG    1       24.155 -21.474   7.062  0.00  0.00    -0.083 Cl
ATOM      6  C   LIG    1       26.766 -21.242   6.786  0.00  0.00    +0.040 A 
ATOM      7  C   LIG    1       27.950 -20.665   6.347  0.00  0.00    +0.042 A 
ATOM      8 CL   LIG    1       29.443 -21.120   7.061  0.00  0.00    -0.084 Cl
ATOM      9  C   LIG    1       27.922 -19.711   5.337  0.00  0.00    +0.021 A 
ATOM     10  C   LIG    1       26.710 -19.392   4.725  0.00  0.00    +0.013 A 
ENDBRANCH   2   3
BRANCH   1  11
ATOM     11  O   LIG    1       25.209 -17.744   3.501  0.00  0.00    -0.389 OA
BRANCH  11  12
ATOM     12  C   LIG    1       24.813 -16.455   3.018  0.00  0.00    +0.299 C 
BRANCH  12  18
ATOM     13 CL   LIG    1       28.674 -12.359   5.208  0.00  0.00    -0.084 Cl
ATOM     14  C   LIG    1       27.565 -13.537   4.622  0.00  0.00    +0.042 A 
ATOM     15  C   LIG    1       26.198 -13.282   4.671  0.00  0.00    +0.040 A 
ATOM     16  C   LIG    1       25.295 -14.224   4.169  0.00  0.00    +0.049 A 
ATOM     17 CL   LIG    1       23.616 -13.828   4.275  0.00  0.00    -0.083 Cl
ATOM     18  C   LIG    1       25.750 -15.427   3.607  0.00  0.00    +0.011 A 
ATOM     19  C   LIG    1       27.137 -15.676   3.593  0.00  0.00    +0.010 A 
ATOM     20  C   LIG    1       28.039 -14.735   4.095  0.00  0.00    +0.020 A 
ENDBRANCH  12  18
ENDBRANCH  11  12
ENDBRANCH   1  11
BRANCH   2  21
ATOM     21  C   LIG    1       22.969 -20.422   4.569  0.00  0.00    +0.182 C 
BRANCH  21  22
ATOM     22  N   LIG    1       21.733 -19.752   4.225  0.00  0.00    -0.331 N 
ATOM     23  C   LIG    1       20.563 -20.372   3.872  0.00  0.00    +0.199 A 
ATOM     24  N   LIG    1       19.644 -19.493   3.532  0.00  0.00    -0.244 NA
ATOM     25  C   LIG    1       20.249 -18.270   3.648  0.00  0.00    +0.130 A 
ATOM     26  C   LIG    1       21.549 -18.409   4.070  0.00  0.00    +0.107 A 
ENDBRANCH  21  22
ENDBRANCH   2  21
TORSDOF 6
ENDMDL
MODEL 2
REMARK VINA RESULT:      -2.3      1.550      2.618
REMARK  Name = *****
REMARK                            x       y       z     vdW  Elec       q    Type
REMARK                         _______ _______ _______ _____ _____    ______ ____
ROOT
ATOM      1  N   LIG    1       25.957 -16.987   2.960  0.00  0.00    -0.087 NA
ATOM      2  C   LIG    1       25.742 -18.206   3.406  0.00  0.00    +0.108 C 
ENDROOT
BRANCH   2   3
ATOM      3  C   LIG    1       26.607 -18.964   4.390  0.00  0.00    +0.020 A 
ATOM      4  C   LIG    1       26.153 -20.027   5.212  0.00  0.00    +0.051 A 
ATOM      5 CL   LIG    1       24.496 -20.455   5.437  0.00  0.00    -0.083 Cl
ATOM      6  C   LIG    1       27.054 -20.759   5.995  0.00  0.00    +0.040 A 
ATOM      7  C   LIG    1       28.391 -20.392   6.062  0.00  0.00    +0.042 A 
ATOM      8 CL   LIG    1       29.475 -21.272   7.062  0.00  0.00    -0.084 Cl
ATOM      9  C   LIG    1       28.849 -19.305   5.327  0.00  0.00    +0.021 A 
ATOM     10  C   LIG    1       27.972 -18.634   4.474  0.00  0.00    +0.013 A 
ENDBRANCH   2   3
BRANCH   1  11
ATOM     11  O   LIG    1       27.022 -16.356   3.580  0.00  0.00    -0.389 OA
BRANCH  11  12
ATOM     12  C   LIG    1       27.216 -15.072   2.975  0.00  0.00    +0.299 C 
BRANCH  12  18
ATOM     13 CL   LIG    1       22.915 -11.448   5.176  0.00  0.00    -0.084 Cl
ATOM     14  C   LIG    1       24.161 -12.447   4.537  0.00  0.00    +0.042 A 
ATOM     15  C   LIG    1       25.356 -12.591   5.235  0.00  0.00    +0.040 A 
ATOM     16  C   LIG    1       26.359 -13.425   4.734  0.00  0.00    +0.049 A 
ATOM     17 CL   LIG    1       27.813 -13.541   5.661  0.00  0.00    -0.083 Cl
ATOM     18  C   LIG    1       26.175 -14.130   3.533  0.00  0.00    +0.011 A 
ATOM     19  C   LIG    1       24.968 -13.948   2.830  0.00  0.00    +0.010 A 
ATOM     20  C   LIG    1       23.965 -13.114   3.331  0.00  0.00    +0.020 A 
ENDBRANCH  12  18
ENDBRANCH  11  12
ENDBRANCH   1  11
BRANCH   2  21
ATOM     21  C   LIG    1       24.501 -18.885   2.819  0.00  0.00    +0.182 C 
BRANCH  21  22
ATOM     22  N   LIG    1       23.256 -18.535   3.469  0.00  0.00    -0.331 N 
ATOM     23  C   LIG    1       23.067 -17.465   4.304  0.00  0.00    +0.199 A 
ATOM     24  N   LIG    1       21.851 -17.464   4.807  0.00  0.00    -0.244 NA
ATOM     25  C   LIG    1       21.246 -18.582   4.298  0.00  0.00    +0.130 A 
ATOM     26  C   LIG    1       22.104 -19.265   3.470  0.00  0.00    +0.107 A 
ENDBRANCH  21  22
ENDBRANCH   2  21
TORSDOF 6
ENDMDL
MODEL 3
REMARK VINA RESULT:      -2.2      2.275      4.759
REMARK  Name = *****
REMARK                            x       y       z     vdW  Elec       q    Type
REMARK                         _______ _______ _______ _____ _____    ______ ____
ROOT
ATOM      1  N   LIG    1       26.272 -17.788   3.792  0.00  0.00    -0.087 NA
ATOM      2  C   LIG    1       26.102 -19.066   4.056  0.00  0.00    +0.108 C 
ENDROOT
BRANCH   2   3
ATOM      3  C   LIG    1       24.782 -19.756   4.328  0.00  0.00    +0.020 A 
ATOM      4  C   LIG    1       24.367 -20.233   5.597  0.00  0.00    +0.051 A 
ATOM      5 CL   LIG    1       25.392 -20.361   6.980  0.00  0.00    -0.083 Cl
ATOM      6  C   LIG    1       23.074 -20.738   5.782  0.00  0.00    +0.040 A 
ATOM      7  C   LIG    1       22.210 -20.878   4.705  0.00  0.00    +0.042 A 
ATOM      8 CL   LIG    1       20.644 -21.541   4.940  0.00  0.00    -0.084 Cl
ATOM      9  C   LIG    1       22.619 -20.491   3.434  0.00  0.00    +0.021 A 
ATOM     10  C   LIG    1       23.871 -19.901   3.265  0.00  0.00    +0.013 A 
ENDBRANCH   2   3
BRANCH   1  11
ATOM     11  O   LIG    1       25.083 -17.095   3.647  0.00  0.00    -0.389 OA
BRANCH  11  12
ATOM     12  C   LIG    1       25.296 -15.988   2.763  0.00  0.00    +0.299 C 
BRANCH  12  18
ATOM     13 CL   LIG    1       28.776 -11.864   5.477  0.00  0.00    -0.084 Cl
ATOM     14  C   LIG    1       27.786 -13.061   4.738  0.00  0.00    +0.042 A 
ATOM     15  C   LIG    1       26.437 -13.141   5.069  0.00  0.00    +0.040 A 
ATOM     16  C   LIG    1       25.622 -14.093   4.449  0.00  0.00    +0.049 A 
ATOM     17 CL   LIG    1       23.961 -14.126   4.923  0.00  0.00    -0.083 Cl
ATOM     18  C   LIG    1       26.147 -14.971   3.487  0.00  0.00    +0.011 A 
ATOM     19  C   LIG    1       27.521 -14.890   3.187  0.00  0.00    +0.010 A 
ATOM     20  C   LIG    1       28.335 -13.939   3.808  0.00  0.00    +0.020 A 
ENDBRANCH  12  18
ENDBRANCH  11  12
ENDBRANCH   1  11
BRANCH   2  21
ATOM     21  C   LIG    1       27.399 -19.879   4.109  0.00  0.00    +0.182 C 
BRANCH  21  22
ATOM     22  N   LIG    1       28.292 -19.521   5.190  0.00  0.00    -0.331 N 
ATOM     23  C   LIG    1       28.732 -20.369   6.173  0.00  0.00    +0.199 A 
ATOM     24  N   LIG    1       29.462 -19.729   7.061  0.00  0.00    -0.244 NA
ATOM     25  C   LIG    1       29.474 -18.422   6.649  0.00  0.00    +0.130 A 
ATOM     26  C   LIG    1       28.747 -18.271   5.493  0.00  0.00    +0.107 A 
ENDBRANCH  21  22
ENDBRANCH   2  21
TORSDOF 6
ENDMDL
MODEL 4
REMARK VINA RESULT:      -1.0      2.474      6.907
REMARK  Name = *****
REMARK                            x       y       z     vdW  Elec       q    Type
REMARK                         _______ _______ _______ _____ _____    ______ ____
ROOT
ATOM      1  N   LIG    1       25.065 -16.774   3.652  0.00  0.00    -0.087 NA
ATOM      2  C   LIG    1       25.006 -15.519   4.041  0.00  0.00    +0.108 C 
ENDROOT
BRANCH   2   3
ATOM      3  C   LIG    1       26.184 -14.611   4.318  0.00  0.00    +0.020 A 
ATOM      4  C   LIG    1       27.167 -14.249   3.362  0.00  0.00    +0.051 A 
ATOM      5 CL   LIG    1       27.348 -14.988   1.813  0.00  0.00    -0.083 Cl
ATOM      6  C   LIG    1       28.147 -13.297   3.671  0.00  0.00    +0.040 A 
ATOM      7  C   LIG    1       28.240 -12.768   4.950  0.00  0.00    +0.042 A 
ATOM      8 CL   LIG    1       29.475 -11.636   5.326  0.00  0.00    -0.084 Cl
ATOM      9  C   LIG    1       27.337 -13.164   5.930  0.00  0.00    +0.021 A 
ATOM     10  C   LIG    1       26.303 -14.040   5.599  0.00  0.00    +0.013 A 
ENDBRANCH   2   3
BRANCH   1  11
ATOM     11  O   LIG    1       26.352 -17.202   3.374  0.00  0.00    -0.389 OA
BRANCH  11  12
ATOM     12  C   LIG    1       26.314 -18.590   3.022  0.00  0.00    +0.299 C 
BRANCH  12  18
ATOM     13 CL   LIG    1       22.532 -21.482   6.738  0.00  0.00    -0.084 Cl
ATOM     14  C   LIG    1       23.613 -20.629   5.707  0.00  0.00    +0.042 A 
ATOM     15  C   LIG    1       24.981 -20.665   5.961  0.00  0.00    +0.040 A 
ATOM     16  C   LIG    1       25.865 -19.997   5.109  0.00  0.00    +0.049 A 
ATOM     17 CL   LIG    1       27.546 -20.089   5.502  0.00  0.00    -0.083 Cl
ATOM     18  C   LIG    1       25.392 -19.292   3.991  0.00  0.00    +0.011 A 
ATOM     19  C   LIG    1       24.001 -19.247   3.769  0.00  0.00    +0.010 A 
ATOM     20  C   LIG    1       23.117 -19.914   4.621  0.00  0.00    +0.020 A 
ENDBRANCH  12  18
ENDBRANCH  11  12
ENDBRANCH   1  11
BRANCH   2  21
ATOM     21  C   LIG    1       23.584 -14.987   4.246  0.00  0.00    +0.182 C 
BRANCH  21  22
ATOM     22  N   LIG    1       23.474 -13.544   4.249  0.00  0.00    -0.331 N 
ATOM     23  C   LIG    1       23.477 -12.743   3.136  0.00  0.00    +0.199 A 
ATOM     24  N   LIG    1       23.450 -11.470   3.468  0.00  0.00    -0.244 NA
ATOM     25  C   LIG    1       23.452 -11.450   4.837  0.00  0.00    +0.130 A 
ATOM     26  C   LIG    1       23.474 -12.728   5.342  0.00  0.00    +0.107 A 
ENDBRANCH  21  22
ENDBRANCH   2  21
TORSDOF 6
ENDMDL
MODEL 5
REMARK VINA RESULT:       0.5      2.906      7.084
REMARK  Name = *****
REMARK                            x       y       z     vdW  Elec       q    Type
REMARK                         _______ _______ _______ _____ _____    ______ ____
ROOT
ATOM      1  N   LIG    1       27.227 -16.551   3.305  0.00  0.00    -0.087 NA
ATOM      2  C   LIG    1       26.387 -15.538   3.267  0.00  0.00    +0.108 C 
ENDROOT
BRANCH   2   3
ATOM      3  C   LIG    1       25.141 -15.376   4.110  0.00  0.00    +0.020 A 
ATOM      4  C   LIG    1       24.928 -14.330   5.044  0.00  0.00    +0.051 A 
ATOM      5 CL   LIG    1       26.146 -13.231   5.580  0.00  0.00    -0.083 Cl
ATOM      6  C   LIG    1       23.691 -14.184   5.682  0.00  0.00    +0.040 A 
ATOM      7  C   LIG    1       22.683 -15.119   5.493  0.00  0.00    +0.042 A 
ATOM      8 CL   LIG    1       21.187 -14.951   6.318  0.00  0.00    -0.084 Cl
ATOM      9  C   LIG    1       22.892 -16.199   4.643  0.00  0.00    +0.021 A 
ATOM     10  C   LIG    1       24.089 -16.295   3.934  0.00  0.00    +0.013 A 
ENDBRANCH   2   3
BRANCH   1  11
ATOM     11  O   LIG    1       26.949 -17.454   4.317  0.00  0.00    -0.389 OA
BRANCH  11  12
ATOM     12  C   LIG    1       26.926 -18.776   3.764  0.00  0.00    +0.299 C 
BRANCH  12  18
ATOM     13 CL   LIG    1       21.652 -21.405   5.088  0.00  0.00    -0.084 Cl
ATOM     14  C   LIG    1       23.148 -20.629   4.740  0.00  0.00    +0.042 A 
ATOM     15  C   LIG    1       24.246 -20.847   5.567  0.00  0.00    +0.040 A 
ATOM     16  C   LIG    1       25.471 -20.241   5.272  0.00  0.00    +0.049 A 
ATOM     17 CL   LIG    1       26.780 -20.560   6.354  0.00  0.00    -0.083 Cl
ATOM     18  C   LIG    1       25.612 -19.418   4.143  0.00  0.00    +0.011 A 
ATOM     19  C   LIG    1       24.481 -19.190   3.336  0.00  0.00    +0.010 A 
ATOM     20  C   LIG    1       23.256 -19.795   3.632  0.00  0.00    +0.020 A 
ENDBRANCH  12  18
ENDBRANCH  11  12
ENDBRANCH   1  11
BRANCH   2  21
ATOM     21  C   LIG    1       26.737 -14.466   2.231  0.00  0.00    +0.182 C 
BRANCH  21  22
ATOM     22  N   LIG    1       25.776 -13.389   2.127  0.00  0.00    -0.331 N 
ATOM     23  C   LIG    1       24.424 -13.542   1.959  0.00  0.00    +0.199 A 
ATOM     24  N   LIG    1       23.829 -12.378   1.812  0.00  0.00    -0.244 NA
ATOM     25  C   LIG    1       24.832 -11.447   1.864  0.00  0.00    +0.130 A 
ATOM     26  C   LIG    1       26.050 -12.055   2.053  0.00  0.00    +0.107 A 
ENDBRANCH  21  22
ENDBRANCH   2  21
TORSDOF 6
ENDMDL
