MODEL 1
REMARK VINA RESULT:      -7.4      0.000      0.000
REMARK  Name = *****
REMARK                            x       y       z     vdW  Elec       q    Type
REMARK                         _______ _______ _______ _____ _____    ______ ____
ROOT
ATOM      1  C   LIG    1       24.416 -21.083   5.176  0.00  0.00    +0.140 C 
ATOM      2  C   LIG    1       24.518 -20.763   6.666  0.00  0.00    +0.239 C 
ATOM      3  O   LIG    1       23.519 -20.671   7.383  0.00  0.00    -0.274 OA
ATOM      4  N   LIG    1       25.804 -20.648   7.182  0.00  0.00    -0.228 N 
ATOM      5  C   LIG    1       25.938 -20.544   8.624  0.00  0.00    +0.143 C 
ATOM      6  C   LIG    1       26.896 -20.289   6.421  0.00  0.00    +0.315 C 
ATOM      7  O   LIG    1       27.958 -19.884   6.888  0.00  0.00    -0.252 OA
ATOM      8  N   LIG    1       26.735 -20.309   5.069  0.00  0.00    -0.239 N 
ATOM      9  H   LIG    1       27.486 -19.875   4.550  0.00  0.00    +0.159 HD
ATOM     10  C   LIG    1       25.534 -20.373   4.422  0.00  0.00    +0.237 C 
ATOM     11  O   LIG    1       25.455 -19.921   3.284  0.00  0.00    -0.274 OA
ENDROOT
BRANCH   1  12
ATOM     12  C   LIG    1       23.002 -20.687   4.635  0.00  0.00    +0.085 C 
ATOM     13  C   LIG    1       21.851 -21.452   5.311  0.00  0.00    +0.023 C 
BRANCH  12  14
ATOM     14  C   LIG    1       22.738 -19.232   4.756  0.00  0.00    -0.098 C 
ATOM     15  C   LIG    1       22.448 -18.069   4.794  0.00  0.00    -0.102 C 
BRANCH  15  16
ATOM     16  C   LIG    1       21.999 -16.670   4.780  0.00  0.00    +0.085 C 
ATOM     17  C   LIG    1       23.159 -15.738   4.467  0.00  0.00    +0.017 C 
ENDBRANCH  15  16
ENDBRANCH  12  14
ENDBRANCH   1  12
BRANCH   1  18
ATOM     18  C   LIG    1       24.697 -22.616   5.032  0.00  0.00    +0.053 C 
BRANCH  18  20
ATOM     19  C   LIG    1       23.752 -24.363   6.577  0.00  0.00    +0.004 C 
ATOM     20  C   LIG    1       24.654 -23.408   6.317  0.00  0.00    -0.033 C 
ENDBRANCH  18  20
ENDBRANCH   1  18
TORSDOF 5
ENDMDL
MODEL 2
REMARK VINA RESULT:      -7.3      2.546      5.076
REMARK  Name = *****
REMARK                            x       y       z     vdW  Elec       q    Type
REMARK                         _______ _______ _______ _____ _____    ______ ____
ROOT
ATOM      1  C   LIG    1       25.376 -21.562   6.601  0.00  0.00    +0.140 C 
ATOM      2  C   LIG    1       23.903 -21.759   6.956  0.00  0.00    +0.239 C 
ATOM      3  O   LIG    1       23.227 -20.858   7.458  0.00  0.00    -0.274 OA
ATOM      4  N   LIG    1       23.351 -22.990   6.620  0.00  0.00    -0.228 N 
ATOM      5  C   LIG    1       21.913 -23.137   6.759  0.00  0.00    +0.143 C 
ATOM      6  C   LIG    1       24.093 -24.145   6.498  0.00  0.00    +0.315 C 
ATOM      7  O   LIG    1       23.614 -25.277   6.511  0.00  0.00    -0.252 OA
ATOM      8  N   LIG    1       25.446 -24.003   6.452  0.00  0.00    -0.239 N 
ATOM      9  H   LIG    1       25.963 -24.867   6.543  0.00  0.00    +0.159 HD
ATOM     10  C   LIG    1       26.130 -22.872   6.796  0.00  0.00    +0.237 C 
ATOM     11  O   LIG    1       27.294 -22.979   7.171  0.00  0.00    -0.274 OA
ENDROOT
BRANCH   1  12
ATOM     12  C   LIG    1       25.986 -20.402   7.457  0.00  0.00    +0.085 C 
ATOM     13  C   LIG    1       25.987 -20.691   8.969  0.00  0.00    +0.023 C 
BRANCH  12  14
ATOM     14  C   LIG    1       27.368 -20.060   7.041  0.00  0.00    -0.098 C 
ATOM     15  C   LIG    1       28.451 -19.696   6.677  0.00  0.00    -0.102 C 
BRANCH  15  16
ATOM     16  C   LIG    1       29.732 -19.147   6.211  0.00  0.00    +0.085 C 
ATOM     17  C   LIG    1       30.854 -19.517   7.168  0.00  0.00    +0.017 C 
ENDBRANCH  15  16
ENDBRANCH  12  14
ENDBRANCH   1  12
BRANCH   1  18
ATOM     18  C   LIG    1       25.424 -21.254   5.068  0.00  0.00    +0.053 C 
BRANCH  18  20
ATOM     19  C   LIG    1       24.861 -19.279   3.614  0.00  0.00    +0.004 C 
ATOM     20  C   LIG    1       24.539 -20.122   4.604  0.00  0.00    -0.033 C 
ENDBRANCH  18  20
ENDBRANCH   1  18
TORSDOF 5
ENDMDL
MODEL 3
REMARK VINA RESULT:      -7.2      2.397      4.731
REMARK  Name = *****
REMARK                            x       y       z     vdW  Elec       q    Type
REMARK                         _______ _______ _______ _____ _____    ______ ____
ROOT
ATOM      1  C   LIG    1       24.889 -21.805   6.581  0.00  0.00    +0.140 C 
ATOM      2  C   LIG    1       25.447 -23.102   7.164  0.00  0.00    +0.239 C 
ATOM      3  O   LIG    1       26.014 -23.135   8.259  0.00  0.00    -0.274 OA
ATOM      4  N   LIG    1       25.223 -24.255   6.420  0.00  0.00    -0.228 N 
ATOM      5  C   LIG    1       25.562 -25.525   7.036  0.00  0.00    +0.143 C 
ATOM      6  C   LIG    1       25.031 -24.250   5.054  0.00  0.00    +0.315 C 
ATOM      7  O   LIG    1       25.139 -25.244   4.340  0.00  0.00    -0.252 OA
ATOM      8  N   LIG    1       24.795 -23.042   4.473  0.00  0.00    -0.239 N 
ATOM      9  H   LIG    1       24.837 -23.047   3.462  0.00  0.00    +0.159 HD
ATOM     10  C   LIG    1       25.012 -21.830   5.063  0.00  0.00    +0.237 C 
ATOM     11  O   LIG    1       25.226 -20.857   4.346  0.00  0.00    -0.274 OA
ENDROOT
BRANCH   1  12
ATOM     12  C   LIG    1       25.622 -20.573   7.208  0.00  0.00    +0.085 C 
ATOM     13  C   LIG    1       25.490 -20.495   8.740  0.00  0.00    +0.023 C 
BRANCH  12  14
ATOM     14  C   LIG    1       27.063 -20.533   6.856  0.00  0.00    -0.098 C 
ATOM     15  C   LIG    1       28.237 -20.429   6.637  0.00  0.00    -0.102 C 
BRANCH  15  16
ATOM     16  C   LIG    1       29.680 -20.225   6.454  0.00  0.00    +0.085 C 
ATOM     17  C   LIG    1       30.019 -18.742   6.466  0.00  0.00    +0.017 C 
ENDBRANCH  15  16
ENDBRANCH  12  14
ENDBRANCH   1  12
BRANCH   1  18
ATOM     18  C   LIG    1       23.356 -21.804   6.895  0.00  0.00    +0.053 C 
BRANCH  18  20
ATOM     19  C   LIG    1       22.523 -19.776   5.662  0.00  0.00    +0.004 C 
ATOM     20  C   LIG    1       22.485 -21.096   5.885  0.00  0.00    -0.033 C 
ENDBRANCH  18  20
ENDBRANCH   1  18
TORSDOF 5
ENDMDL
MODEL 4
REMARK VINA RESULT:      -6.9      1.951      5.240
REMARK  Name = *****
REMARK                            x       y       z     vdW  Elec       q    Type
REMARK                         _______ _______ _______ _____ _____    ______ ____
ROOT
ATOM      1  C   LIG    1       24.509 -21.871   7.136  0.00  0.00    +0.140 C 
ATOM      2  C   LIG    1       25.139 -21.658   5.760  0.00  0.00    +0.239 C 
ATOM      3  O   LIG    1       24.806 -22.328   4.780  0.00  0.00    -0.274 OA
ATOM      4  N   LIG    1       26.060 -20.621   5.661  0.00  0.00    -0.228 N 
ATOM      5  C   LIG    1       26.525 -20.265   4.333  0.00  0.00    +0.143 C 
ATOM      6  C   LIG    1       26.797 -20.158   6.730  0.00  0.00    +0.315 C 
ATOM      7  O   LIG    1       27.815 -19.478   6.623  0.00  0.00    -0.252 OA
ATOM      8  N   LIG    1       26.403 -20.566   7.969  0.00  0.00    -0.239 N 
ATOM      9  H   LIG    1       27.061 -20.358   8.708  0.00  0.00    +0.159 HD
ATOM     10  C   LIG    1       25.543 -21.595   8.221  0.00  0.00    +0.237 C 
ATOM     11  O   LIG    1       25.620 -22.175   9.300  0.00  0.00    -0.274 OA
ENDROOT
BRANCH   1  12
ATOM     12  C   LIG    1       23.921 -23.317   7.241  0.00  0.00    +0.085 C 
ATOM     13  C   LIG    1       22.585 -23.491   6.498  0.00  0.00    +0.023 C 
BRANCH  12  14
ATOM     14  C   LIG    1       24.869 -24.350   6.756  0.00  0.00    -0.098 C 
ATOM     15  C   LIG    1       25.587 -25.249   6.419  0.00  0.00    -0.102 C 
BRANCH  15  16
ATOM     16  C   LIG    1       26.398 -26.422   6.065  0.00  0.00    +0.085 C 
ATOM     17  C   LIG    1       25.947 -27.004   4.734  0.00  0.00    +0.017 C 
ENDBRANCH  15  16
ENDBRANCH  12  14
ENDBRANCH   1  12
BRANCH   1  18
ATOM     18  C   LIG    1       23.408 -20.771   7.292  0.00  0.00    +0.053 C 
BRANCH  18  20
ATOM     19  C   LIG    1       22.161 -20.214   5.179  0.00  0.00    +0.004 C 
ATOM     20  C   LIG    1       23.134 -19.944   6.059  0.00  0.00    -0.033 C 
ENDBRANCH  18  20
ENDBRANCH   1  18
TORSDOF 5
ENDMDL
MODEL 5
REMARK VINA RESULT:      -6.8      1.301      1.632
REMARK  Name = *****
REMARK                            x       y       z     vdW  Elec       q    Type
REMARK                         _______ _______ _______ _____ _____    ______ ____
ROOT
ATOM      1  C   LIG    1       25.110 -21.538   6.141  0.00  0.00    +0.140 C 
ATOM      2  C   LIG    1       25.727 -20.797   7.326  0.00  0.00    +0.239 C 
ATOM      3  O   LIG    1       25.123 -20.651   8.390  0.00  0.00    -0.274 OA
ATOM      4  N   LIG    1       27.035 -20.354   7.158  0.00  0.00    -0.228 N 
ATOM      5  C   LIG    1       27.716 -19.826   8.326  0.00  0.00    +0.143 C 
ATOM      6  C   LIG    1       27.587 -20.072   5.926  0.00  0.00    +0.315 C 
ATOM      7  O   LIG    1       28.603 -19.401   5.764  0.00  0.00    -0.252 OA
ATOM      8  N   LIG    1       26.897 -20.499   4.833  0.00  0.00    -0.239 N 
ATOM      9  H   LIG    1       27.230 -20.126   3.954  0.00  0.00    +0.159 HD
ATOM     10  C   LIG    1       25.598 -20.919   4.837  0.00  0.00    +0.237 C 
ATOM     11  O   LIG    1       24.946 -20.825   3.801  0.00  0.00    -0.274 OA
ENDROOT
BRANCH   1  12
ATOM     12  C   LIG    1       23.549 -21.522   6.249  0.00  0.00    +0.085 C 
ATOM     13  C   LIG    1       23.030 -21.798   7.671  0.00  0.00    +0.023 C 
BRANCH  12  14
ATOM     14  C   LIG    1       22.963 -20.246   5.771  0.00  0.00    -0.098 C 
ATOM     15  C   LIG    1       22.526 -19.235   5.297  0.00  0.00    -0.102 C 
BRANCH  15  16
ATOM     16  C   LIG    1       22.027 -18.034   4.614  0.00  0.00    +0.085 C 
ATOM     17  C   LIG    1       20.976 -18.403   3.578  0.00  0.00    +0.017 C 
ENDBRANCH  15  16
ENDBRANCH  12  14
ENDBRANCH   1  12
BRANCH   1  18
ATOM     18  C   LIG    1       25.691 -22.991   6.178  0.00  0.00    +0.053 C 
BRANCH  18  20
ATOM     19  C   LIG    1       24.307 -25.092   6.157  0.00  0.00    +0.004 C 
ATOM     20  C   LIG    1       24.843 -24.048   5.512  0.00  0.00    -0.033 C 
ENDBRANCH  18  20
ENDBRANCH   1  18
TORSDOF 5
ENDMDL
MODEL 6
REMARK VINA RESULT:      -6.8      2.400      3.826
REMARK  Name = *****
REMARK                            x       y       z     vdW  Elec       q    Type
REMARK                         _______ _______ _______ _____ _____    ______ ____
ROOT
ATOM      1  C   LIG    1       24.489 -22.431   6.384  0.00  0.00    +0.140 C 
ATOM      2  C   LIG    1       23.788 -23.789   6.389  0.00  0.00    +0.239 C 
ATOM      3  O   LIG    1       22.572 -23.895   6.565  0.00  0.00    -0.274 OA
ATOM      4  N   LIG    1       24.588 -24.893   6.118  0.00  0.00    -0.228 N 
ATOM      5  C   LIG    1       23.923 -26.167   5.918  0.00  0.00    +0.143 C 
ATOM      6  C   LIG    1       25.945 -24.923   6.361  0.00  0.00    +0.315 C 
ATOM      7  O   LIG    1       26.611 -25.954   6.426  0.00  0.00    -0.252 OA
ATOM      8  N   LIG    1       26.546 -23.731   6.630  0.00  0.00    -0.239 N 
ATOM      9  H   LIG    1       27.493 -23.807   6.976  0.00  0.00    +0.159 HD
ATOM     10  C   LIG    1       25.893 -22.577   6.956  0.00  0.00    +0.237 C 
ATOM     11  O   LIG    1       26.488 -21.733   7.619  0.00  0.00    -0.274 OA
ENDROOT
BRANCH   1  12
ATOM     12  C   LIG    1       23.639 -21.383   7.178  0.00  0.00    +0.085 C 
ATOM     13  C   LIG    1       24.458 -20.581   8.204  0.00  0.00    +0.023 C 
BRANCH  12  14
ATOM     14  C   LIG    1       22.938 -20.430   6.283  0.00  0.00    -0.098 C 
ATOM     15  C   LIG    1       22.438 -19.681   5.491  0.00  0.00    -0.102 C 
BRANCH  15  16
ATOM     16  C   LIG    1       21.900 -18.803   4.444  0.00  0.00    +0.085 C 
ATOM     17  C   LIG    1       22.347 -17.366   4.666  0.00  0.00    +0.017 C 
ENDBRANCH  15  16
ENDBRANCH  12  14
ENDBRANCH   1  12
BRANCH   1  18
ATOM     18  C   LIG    1       24.668 -22.032   4.882  0.00  0.00    +0.053 C 
BRANCH  18  20
ATOM     19  C   LIG    1       25.368 -19.967   3.626  0.00  0.00    +0.004 C 
ATOM     20  C   LIG    1       25.555 -20.837   4.628  0.00  0.00    -0.033 C 
ENDBRANCH  18  20
ENDBRANCH   1  18
TORSDOF 5
ENDMDL
MODEL 7
REMARK VINA RESULT:      -6.6      1.681      4.972
REMARK  Name = *****
REMARK                            x       y       z     vdW  Elec       q    Type
REMARK                         _______ _______ _______ _____ _____    ______ ____
ROOT
ATOM      1  C   LIG    1       24.264 -21.055   5.924  0.00  0.00    +0.140 C 
ATOM      2  C   LIG    1       25.768 -20.811   6.036  0.00  0.00    +0.239 C 
ATOM      3  O   LIG    1       26.519 -20.909   5.063  0.00  0.00    -0.274 OA
ATOM      4  N   LIG    1       26.232 -20.407   7.283  0.00  0.00    -0.228 N 
ATOM      5  C   LIG    1       27.615 -19.977   7.373  0.00  0.00    +0.143 C 
ATOM      6  C   LIG    1       25.588 -20.708   8.465  0.00  0.00    +0.315 C 
ATOM      7  O   LIG    1       26.116 -20.641   9.573  0.00  0.00    -0.252 OA
ATOM      8  N   LIG    1       24.319 -21.191   8.366  0.00  0.00    -0.239 N 
ATOM      9  H   LIG    1       23.944 -21.566   9.227  0.00  0.00    +0.159 HD
ATOM     10  C   LIG    1       23.745 -21.664   7.221  0.00  0.00    +0.237 C 
ATOM     11  O   LIG    1       22.833 -22.480   7.314  0.00  0.00    -0.274 OA
ENDROOT
BRANCH   1  12
ATOM     12  C   LIG    1       23.956 -21.963   4.687  0.00  0.00    +0.085 C 
ATOM     13  C   LIG    1       24.387 -21.341   3.347  0.00  0.00    +0.023 C 
BRANCH  12  14
ATOM     14  C   LIG    1       24.574 -23.307   4.804  0.00  0.00    -0.098 C 
ATOM     15  C   LIG    1       24.996 -24.419   4.954  0.00  0.00    -0.102 C 
BRANCH  15  16
ATOM     16  C   LIG    1       25.415 -25.807   5.189  0.00  0.00    +0.085 C 
ATOM     17  C   LIG    1       24.364 -26.557   5.993  0.00  0.00    +0.017 C 
ENDBRANCH  15  16
ENDBRANCH  12  14
ENDBRANCH   1  12
BRANCH   1  18
ATOM     18  C   LIG    1       23.595 -19.645   5.804  0.00  0.00    +0.053 C 
BRANCH  18  20
ATOM     19  C   LIG    1       21.930 -18.548   4.271  0.00  0.00    +0.004 C 
ATOM     20  C   LIG    1       22.314 -19.599   5.007  0.00  0.00    -0.033 C 
ENDBRANCH  18  20
ENDBRANCH   1  18
TORSDOF 5
ENDMDL
MODEL 8
REMARK VINA RESULT:      -6.5      1.914      4.634
REMARK  Name = *****
REMARK                            x       y       z     vdW  Elec       q    Type
REMARK                         _______ _______ _______ _____ _____    ______ ____
ROOT
ATOM      1  C   LIG    1       24.847 -21.506   6.355  0.00  0.00    +0.140 C 
ATOM      2  C   LIG    1       25.454 -20.561   5.319  0.00  0.00    +0.239 C 
ATOM      3  O   LIG    1       26.673 -20.467   5.157  0.00  0.00    -0.274 OA
ATOM      4  N   LIG    1       24.553 -19.862   4.524  0.00  0.00    -0.228 N 
ATOM      5  C   LIG    1       25.092 -19.113   3.404  0.00  0.00    +0.143 C 
ATOM      6  C   LIG    1       23.266 -19.563   4.921  0.00  0.00    +0.315 C 
ATOM      7  O   LIG    1       22.565 -18.703   4.393  0.00  0.00    -0.252 OA
ATOM      8  N   LIG    1       22.799 -20.210   6.024  0.00  0.00    -0.239 N 
ATOM      9  H   LIG    1       21.931 -19.842   6.390  0.00  0.00    +0.159 HD
ATOM     10  C   LIG    1       23.568 -20.897   6.918  0.00  0.00    +0.237 C 
ATOM     11  O   LIG    1       23.161 -21.025   8.069  0.00  0.00    -0.274 OA
ENDROOT
BRANCH   1  12
ATOM     12  C   LIG    1       25.891 -21.817   7.479  0.00  0.00    +0.085 C 
ATOM     13  C   LIG    1       26.559 -23.196   7.330  0.00  0.00    +0.023 C 
BRANCH  12  14
ATOM     14  C   LIG    1       26.953 -20.785   7.564  0.00  0.00    -0.098 C 
ATOM     15  C   LIG    1       27.865 -20.016   7.684  0.00  0.00    -0.102 C 
BRANCH  15  16
ATOM     16  C   LIG    1       29.042 -19.158   7.879  0.00  0.00    +0.085 C 
ATOM     17  C   LIG    1       29.675 -18.804   6.542  0.00  0.00    +0.017 C 
ENDBRANCH  15  16
ENDBRANCH  12  14
ENDBRANCH   1  12
BRANCH   1  18
ATOM     18  C   LIG    1       24.412 -22.793   5.578  0.00  0.00    +0.053 C 
BRANCH  18  20
ATOM     19  C   LIG    1       23.785 -25.105   6.346  0.00  0.00    +0.004 C 
ATOM     20  C   LIG    1       23.586 -23.781   6.366  0.00  0.00    -0.033 C 
ENDBRANCH  18  20
ENDBRANCH   1  18
TORSDOF 5
ENDMDL
MODEL 9
REMARK VINA RESULT:      -6.3      1.908      3.073
REMARK  Name = *****
REMARK                            x       y       z     vdW  Elec       q    Type
REMARK                         _______ _______ _______ _____ _____    ______ ____
ROOT
ATOM      1  C   LIG    1       26.090 -21.129   6.302  0.00  0.00    +0.140 C 
ATOM      2  C   LIG    1       27.251 -20.182   6.004  0.00  0.00    +0.239 C 
ATOM      3  O   LIG    1       27.256 -19.448   5.013  0.00  0.00    -0.274 OA
ATOM      4  N   LIG    1       28.271 -20.146   6.949  0.00  0.00    -0.228 N 
ATOM      5  C   LIG    1       29.284 -19.118   6.798  0.00  0.00    +0.143 C 
ATOM      6  C   LIG    1       28.563 -21.200   7.788  0.00  0.00    +0.315 C 
ATOM      7  O   LIG    1       29.622 -21.320   8.400  0.00  0.00    -0.252 OA
ATOM      8  N   LIG    1       27.643 -22.201   7.859  0.00  0.00    -0.239 N 
ATOM      9  H   LIG    1       27.962 -23.032   8.338  0.00  0.00    +0.159 HD
ATOM     10  C   LIG    1       26.616 -22.389   6.979  0.00  0.00    +0.237 C 
ATOM     11  O   LIG    1       26.160 -23.520   6.841  0.00  0.00    -0.274 OA
ENDROOT
BRANCH   1  12
ATOM     12  C   LIG    1       25.308 -21.455   4.986  0.00  0.00    +0.085 C 
ATOM     13  C   LIG    1       24.713 -22.874   4.961  0.00  0.00    +0.023 C 
BRANCH  12  14
ATOM     14  C   LIG    1       24.220 -20.482   4.720  0.00  0.00    -0.098 C 
ATOM     15  C   LIG    1       23.277 -19.764   4.534  0.00  0.00    -0.102 C 
BRANCH  15  16
ATOM     16  C   LIG    1       22.057 -18.967   4.353  0.00  0.00    +0.085 C 
ATOM     17  C   LIG    1       22.338 -17.492   4.598  0.00  0.00    +0.017 C 
ENDBRANCH  15  16
ENDBRANCH  12  14
ENDBRANCH   1  12
BRANCH   1  18
ATOM     18  C   LIG    1       25.191 -20.407   7.361  0.00  0.00    +0.053 C 
BRANCH  18  20
ATOM     19  C   LIG    1       23.071 -21.704   7.751  0.00  0.00    +0.004 C 
ATOM     20  C   LIG    1       24.282 -21.306   8.163  0.00  0.00    -0.033 C 
ENDBRANCH  18  20
ENDBRANCH   1  18
TORSDOF 5
ENDMDL
