MODEL 1
REMARK VINA RESULT:      -9.1      0.000      0.000
REMARK  Name = *****
REMARK                            x       y       z     vdW  Elec       q    Type
REMARK                         _______ _______ _______ _____ _____    ______ ____
ROOT
ATOM      1  C   LIG    1       27.867 -20.540   7.193  0.00  0.00    +0.084 C 
ATOM      2  C   LIG    1       27.989 -19.949   5.780  0.00  0.00    +0.027 C 
ENDROOT
BRANCH   1   3
ATOM      3  N   LIG    1       28.918 -19.986   8.108  0.00  0.00    -0.305 NA
ATOM      4  H   LIG    1       28.861 -18.964   8.074  0.00  0.00    +0.123 HD
BRANCH   3   6
ATOM      5  C   LIG    1       30.943 -21.220   8.885  0.00  0.00    +0.027 C 
ATOM      6  C   LIG    1       30.311 -20.387   7.763  0.00  0.00    +0.088 C 
BRANCH   6   7
ATOM      7  C   LIG    1       31.215 -19.148   7.488  0.00  0.00    +0.247 C 
BRANCH   7   8
ATOM      8  O   LIG    1       30.629 -17.935   7.996  0.00  0.00    -0.490 OA
BRANCH   8   9
ATOM      9  C   LIG    1       31.091 -17.440   9.184  0.00  0.00    +0.121 A 
ATOM     10  C   LIG    1       30.496 -17.647  10.427  0.00  0.00    +0.045 A 
ATOM     11  C   LIG    1       31.054 -17.092  11.580  0.00  0.00    +0.004 A 
ATOM     12  C   LIG    1       32.229 -16.345  11.504  0.00  0.00    +0.000 A 
ATOM     13  C   LIG    1       32.857 -16.172  10.272  0.00  0.00    +0.004 A 
ATOM     14  C   LIG    1       32.292 -16.723   9.118  0.00  0.00    +0.045 A 
ENDBRANCH   8   9
ENDBRANCH   7   8
ENDBRANCH   6   7
ENDBRANCH   3   6
ENDBRANCH   1   3
BRANCH   1  15
ATOM     15  C   LIG    1       26.432 -20.324   7.800  0.00  0.00    +0.161 C 
BRANCH  15  16
ATOM     16  C   LIG    1       25.336 -21.292   7.372  0.00  0.00    -0.018 A 
ATOM     17  C   LIG    1       23.995 -20.903   7.189  0.00  0.00    +0.010 A 
ATOM     18  C   LIG    1       22.991 -21.842   6.960  0.00  0.00    +0.046 A 
ATOM     19  C   LIG    1       23.322 -23.179   6.822  0.00  0.00    +0.117 A 
ATOM     20  C   LIG    1       24.648 -23.592   6.918  0.00  0.00    +0.046 A 
ATOM     21  C   LIG    1       25.645 -22.646   7.199  0.00  0.00    +0.010 A 
BRANCH  19  22
ATOM     22  O   LIG    1       22.304 -24.051   6.589  0.00  0.00    -0.507 OA
ATOM     23  H   LIG    1       22.676 -24.901   6.303  0.00  0.00    +0.292 HD
ENDBRANCH  19  22
ENDBRANCH  15  16
BRANCH  15  24
ATOM     24  O   LIG    1       26.524 -20.385   9.227  0.00  0.00    -0.386 OA
ATOM     25  H   LIG    1       27.299 -20.954   9.407  0.00  0.00    +0.210 HD
ENDBRANCH  15  24
ENDBRANCH   1  15
TORSDOF 9
ENDMDL
MODEL 2
REMARK VINA RESULT:      -8.9      2.128      8.281
REMARK  Name = *****
REMARK                            x       y       z     vdW  Elec       q    Type
REMARK                         _______ _______ _______ _____ _____    ______ ____
ROOT
ATOM      1  C   LIG    1       29.900 -20.435   7.862  0.00  0.00    +0.084 C 
ATOM      2  C   LIG    1       31.049 -20.918   8.761  0.00  0.00    +0.027 C 
ENDROOT
BRANCH   1   3
ATOM      3  N   LIG    1       28.589 -21.021   8.291  0.00  0.00    -0.305 NA
ATOM      4  H   LIG    1       28.546 -21.986   7.950  0.00  0.00    +0.123 HD
BRANCH   3   6
ATOM      5  C   LIG    1       26.151 -20.606   8.629  0.00  0.00    +0.027 C 
ATOM      6  C   LIG    1       27.391 -20.294   7.783  0.00  0.00    +0.088 C 
BRANCH   6   7
ATOM      7  C   LIG    1       27.089 -20.652   6.297  0.00  0.00    +0.247 C 
BRANCH   7   8
ATOM      8  O   LIG    1       25.762 -21.188   6.136  0.00  0.00    -0.490 OA
BRANCH   8   9
ATOM      9  C   LIG    1       24.846 -20.452   5.437  0.00  0.00    +0.121 A 
ATOM     10  C   LIG    1       25.091 -19.798   4.231  0.00  0.00    +0.045 A 
ATOM     11  C   LIG    1       24.079 -19.072   3.601  0.00  0.00    +0.004 A 
ATOM     12  C   LIG    1       22.803 -19.014   4.159  0.00  0.00    +0.000 A 
ATOM     13  C   LIG    1       22.535 -19.703   5.340  0.00  0.00    +0.004 A 
ATOM     14  C   LIG    1       23.553 -20.424   5.972  0.00  0.00    +0.045 A 
ENDBRANCH   8   9
ENDBRANCH   7   8
ENDBRANCH   6   7
ENDBRANCH   3   6
ENDBRANCH   1   3
BRANCH   1  15
ATOM     15  C   LIG    1       29.816 -18.865   7.809  0.00  0.00    +0.161 C 
BRANCH  15  16
ATOM     16  C   LIG    1       30.566 -18.085   8.882  0.00  0.00    -0.018 A 
ATOM     17  C   LIG    1       30.000 -17.750  10.127  0.00  0.00    +0.010 A 
ATOM     18  C   LIG    1       30.652 -16.898  11.015  0.00  0.00    +0.046 A 
ATOM     19  C   LIG    1       31.921 -16.434  10.714  0.00  0.00    +0.117 A 
ATOM     20  C   LIG    1       32.546 -16.808   9.528  0.00  0.00    +0.046 A 
ATOM     21  C   LIG    1       31.862 -17.625   8.617  0.00  0.00    +0.010 A 
BRANCH  19  22
ATOM     22  O   LIG    1       32.515 -15.613  11.623  0.00  0.00    -0.507 OA
ATOM     23  H   LIG    1       31.855 -15.339  12.280  0.00  0.00    +0.292 HD
ENDBRANCH  19  22
ENDBRANCH  15  16
BRANCH  15  24
ATOM     24  O   LIG    1       30.305 -18.422   6.538  0.00  0.00    -0.386 OA
ATOM     25  H   LIG    1       31.202 -18.077   6.719  0.00  0.00    +0.210 HD
ENDBRANCH  15  24
ENDBRANCH   1  15
TORSDOF 9
ENDMDL
MODEL 3
REMARK VINA RESULT:      -8.8      2.269      8.475
REMARK  Name = *****
REMARK                            x       y       z     vdW  Elec       q    Type
REMARK                         _______ _______ _______ _____ _____    ______ ____
ROOT
ATOM      1  C   LIG    1       29.402 -19.165   7.927  0.00  0.00    +0.084 C 
ATOM      2  C   LIG    1       29.599 -18.793   6.449  0.00  0.00    +0.027 C 
ENDROOT
BRANCH   1   3
ATOM      3  N   LIG    1       28.565 -20.401   8.071  0.00  0.00    -0.305 NA
ATOM      4  H   LIG    1       28.994 -21.141   7.508  0.00  0.00    +0.123 HD
BRANCH   3   6
ATOM      5  C   LIG    1       26.175 -20.593   8.762  0.00  0.00    +0.027 C 
ATOM      6  C   LIG    1       27.150 -20.242   7.631  0.00  0.00    +0.088 C 
BRANCH   6   7
ATOM      7  C   LIG    1       26.828 -21.135   6.396  0.00  0.00    +0.247 C 
BRANCH   7   8
ATOM      8  O   LIG    1       25.434 -21.491   6.341  0.00  0.00    -0.490 OA
BRANCH   8   9
ATOM      9  C   LIG    1       24.585 -20.684   5.634  0.00  0.00    +0.121 A 
ATOM     10  C   LIG    1       23.280 -20.369   6.005  0.00  0.00    +0.045 A 
ATOM     11  C   LIG    1       22.498 -19.533   5.206  0.00  0.00    +0.004 A 
ATOM     12  C   LIG    1       23.026 -18.981   4.039  0.00  0.00    +0.000 A 
ATOM     13  C   LIG    1       24.346 -19.252   3.684  0.00  0.00    +0.004 A 
ATOM     14  C   LIG    1       25.123 -20.096   4.483  0.00  0.00    +0.045 A 
ENDBRANCH   8   9
ENDBRANCH   7   8
ENDBRANCH   6   7
ENDBRANCH   3   6
ENDBRANCH   1   3
BRANCH   1  15
ATOM     15  C   LIG    1       30.773 -19.332   8.679  0.00  0.00    +0.161 C 
BRANCH  15  16
ATOM     16  C   LIG    1       31.275 -18.148   9.497  0.00  0.00    -0.018 A 
ATOM     17  C   LIG    1       32.288 -17.279   9.051  0.00  0.00    +0.010 A 
ATOM     18  C   LIG    1       32.836 -16.311   9.889  0.00  0.00    +0.046 A 
ATOM     19  C   LIG    1       32.320 -16.134  11.161  0.00  0.00    +0.117 A 
ATOM     20  C   LIG    1       31.263 -16.922  11.610  0.00  0.00    +0.046 A 
ATOM     21  C   LIG    1       30.753 -17.928  10.777  0.00  0.00    +0.010 A 
BRANCH  19  22
ATOM     22  O   LIG    1       32.885 -15.167  11.934  0.00  0.00    -0.507 OA
ATOM     23  H   LIG    1       33.813 -15.400  12.102  0.00  0.00    +0.292 HD
ENDBRANCH  19  22
ENDBRANCH  15  16
BRANCH  15  24
ATOM     24  O   LIG    1       30.677 -20.454   9.564  0.00  0.00    -0.386 OA
ATOM     25  H   LIG    1       30.064 -20.166  10.270  0.00  0.00    +0.210 HD
ENDBRANCH  15  24
ENDBRANCH   1  15
TORSDOF 9
ENDMDL
MODEL 4
REMARK VINA RESULT:      -8.8      2.409      7.885
REMARK  Name = *****
REMARK                            x       y       z     vdW  Elec       q    Type
REMARK                         _______ _______ _______ _____ _____    ______ ____
ROOT
ATOM      1  C   LIG    1       27.084 -21.636   7.800  0.00  0.00    +0.084 C 
ATOM      2  C   LIG    1       25.850 -21.420   8.689  0.00  0.00    +0.027 C 
ENDROOT
BRANCH   1   3
ATOM      3  N   LIG    1       26.853 -22.735   6.805  0.00  0.00    -0.305 NA
ATOM      4  H   LIG    1       26.889 -22.325   5.868  0.00  0.00    +0.123 HD
BRANCH   3   6
ATOM      5  C   LIG    1       25.730 -24.962   6.889  0.00  0.00    +0.027 C 
ATOM      6  C   LIG    1       25.549 -23.441   6.957  0.00  0.00    +0.088 C 
BRANCH   6   7
ATOM      7  C   LIG    1       24.530 -23.007   5.862  0.00  0.00    +0.247 C 
BRANCH   7   8
ATOM      8  O   LIG    1       25.077 -22.000   4.991  0.00  0.00    -0.490 OA
BRANCH   8   9
ATOM      9  C   LIG    1       24.330 -20.882   4.742  0.00  0.00    +0.121 A 
ATOM     10  C   LIG    1       24.537 -19.995   3.688  0.00  0.00    +0.045 A 
ATOM     11  C   LIG    1       23.712 -18.880   3.527  0.00  0.00    +0.004 A 
ATOM     12  C   LIG    1       22.653 -18.657   4.407  0.00  0.00    +0.000 A 
ATOM     13  C   LIG    1       22.410 -19.562   5.437  0.00  0.00    +0.004 A 
ATOM     14  C   LIG    1       23.243 -20.674   5.599  0.00  0.00    +0.045 A 
ENDBRANCH   8   9
ENDBRANCH   7   8
ENDBRANCH   6   7
ENDBRANCH   3   6
ENDBRANCH   1   3
BRANCH   1  15
ATOM     15  C   LIG    1       27.524 -20.312   7.073  0.00  0.00    +0.161 C 
BRANCH  15  16
ATOM     16  C   LIG    1       28.862 -19.703   7.473  0.00  0.00    -0.018 A 
ATOM     17  C   LIG    1       29.045 -18.955   8.652  0.00  0.00    +0.010 A 
ATOM     18  C   LIG    1       30.234 -18.275   8.904  0.00  0.00    +0.046 A 
ATOM     19  C   LIG    1       31.295 -18.402   8.024  0.00  0.00    +0.117 A 
ATOM     20  C   LIG    1       31.180 -19.198   6.888  0.00  0.00    +0.046 A 
ATOM     21  C   LIG    1       29.961 -19.837   6.617  0.00  0.00    +0.010 A 
BRANCH  19  22
ATOM     22  O   LIG    1       32.438 -17.725   8.324  0.00  0.00    -0.507 OA
ATOM     23  H   LIG    1       32.976 -18.265   8.926  0.00  0.00    +0.292 HD
ENDBRANCH  19  22
ENDBRANCH  15  16
BRANCH  15  24
ATOM     24  O   LIG    1       27.570 -20.557   5.663  0.00  0.00    -0.386 OA
ATOM     25  H   LIG    1       26.992 -21.334   5.523  0.00  0.00    +0.210 HD
ENDBRANCH  15  24
ENDBRANCH   1  15
TORSDOF 9
ENDMDL
MODEL 5
REMARK VINA RESULT:      -8.5      3.027      4.974
REMARK  Name = *****
REMARK                            x       y       z     vdW  Elec       q    Type
REMARK                         _______ _______ _______ _____ _____    ______ ____
ROOT
ATOM      1  C   LIG    1       23.886 -22.267   6.043  0.00  0.00    +0.084 C 
ATOM      2  C   LIG    1       23.315 -21.036   6.764  0.00  0.00    +0.027 C 
ENDROOT
BRANCH   1   3
ATOM      3  N   LIG    1       24.908 -21.873   5.018  0.00  0.00    -0.305 NA
ATOM      4  H   LIG    1       25.798 -22.311   5.274  0.00  0.00    +0.123 HD
BRANCH   3   6
ATOM      5  C   LIG    1       24.768 -19.899   3.498  0.00  0.00    +0.027 C 
ATOM      6  C   LIG    1       25.129 -20.404   4.900  0.00  0.00    +0.088 C 
BRANCH   6   7
ATOM      7  C   LIG    1       26.607 -20.018   5.207  0.00  0.00    +0.247 C 
BRANCH   7   8
ATOM      8  O   LIG    1       27.123 -20.738   6.342  0.00  0.00    -0.490 OA
BRANCH   8   9
ATOM      9  C   LIG    1       28.384 -20.441   6.780  0.00  0.00    +0.121 A 
ATOM     10  C   LIG    1       29.076 -21.136   7.770  0.00  0.00    +0.045 A 
ATOM     11  C   LIG    1       30.364 -20.745   8.142  0.00  0.00    +0.004 A 
ATOM     12  C   LIG    1       30.982 -19.668   7.507  0.00  0.00    +0.000 A 
ATOM     13  C   LIG    1       30.316 -18.995   6.485  0.00  0.00    +0.004 A 
ATOM     14  C   LIG    1       29.024 -19.386   6.120  0.00  0.00    +0.045 A 
ENDBRANCH   8   9
ENDBRANCH   7   8
ENDBRANCH   6   7
ENDBRANCH   3   6
ENDBRANCH   1   3
BRANCH   1  15
ATOM     15  C   LIG    1       24.487 -23.313   7.053  0.00  0.00    +0.161 C 
BRANCH  15  16
ATOM     16  C   LIG    1       24.852 -24.688   6.505  0.00  0.00    -0.018 A 
ATOM     17  C   LIG    1       23.894 -25.620   6.066  0.00  0.00    +0.010 A 
ATOM     18  C   LIG    1       24.250 -26.924   5.728  0.00  0.00    +0.046 A 
ATOM     19  C   LIG    1       25.583 -27.295   5.739  0.00  0.00    +0.117 A 
ATOM     20  C   LIG    1       26.569 -26.377   6.092  0.00  0.00    +0.046 A 
ATOM     21  C   LIG    1       26.195 -25.082   6.479  0.00  0.00    +0.010 A 
BRANCH  19  22
ATOM     22  O   LIG    1       25.876 -28.578   5.390  0.00  0.00    -0.507 OA
ATOM     23  H   LIG    1       26.748 -28.810   5.748  0.00  0.00    +0.292 HD
ENDBRANCH  19  22
ENDBRANCH  15  16
BRANCH  15  24
ATOM     24  O   LIG    1       25.670 -22.758   7.638  0.00  0.00    -0.386 OA
ATOM     25  H   LIG    1       26.354 -23.449   7.529  0.00  0.00    +0.210 HD
ENDBRANCH  15  24
ENDBRANCH   1  15
TORSDOF 9
ENDMDL
MODEL 6
REMARK VINA RESULT:      -8.5      1.656      8.079
REMARK  Name = *****
REMARK                            x       y       z     vdW  Elec       q    Type
REMARK                         _______ _______ _______ _____ _____    ______ ____
ROOT
ATOM      1  C   LIG    1       29.701 -19.098   6.792  0.00  0.00    +0.084 C 
ATOM      2  C   LIG    1       29.617 -18.253   5.511  0.00  0.00    +0.027 C 
ENDROOT
BRANCH   1   3
ATOM      3  N   LIG    1       29.411 -20.543   6.512  0.00  0.00    -0.305 NA
ATOM      4  H   LIG    1       29.688 -20.739   5.547  0.00  0.00    +0.123 HD
BRANCH   3   6
ATOM      5  C   LIG    1       27.097 -20.240   5.628  0.00  0.00    +0.027 C 
ATOM      6  C   LIG    1       27.981 -20.928   6.676  0.00  0.00    +0.088 C 
BRANCH   6   7
ATOM      7  C   LIG    1       27.447 -20.570   8.095  0.00  0.00    +0.247 C 
BRANCH   7   8
ATOM      8  O   LIG    1       26.755 -21.677   8.701  0.00  0.00    -0.490 OA
BRANCH   8   9
ATOM      9  C   LIG    1       25.691 -22.219   8.035  0.00  0.00    +0.121 A 
ATOM     10  C   LIG    1       25.661 -23.491   7.468  0.00  0.00    +0.045 A 
ATOM     11  C   LIG    1       24.518 -23.946   6.807  0.00  0.00    +0.004 A 
ATOM     12  C   LIG    1       23.382 -23.140   6.732  0.00  0.00    +0.000 A 
ATOM     13  C   LIG    1       23.386 -21.884   7.335  0.00  0.00    +0.004 A 
ATOM     14  C   LIG    1       24.535 -21.430   7.990  0.00  0.00    +0.045 A 
ENDBRANCH   8   9
ENDBRANCH   7   8
ENDBRANCH   6   7
ENDBRANCH   3   6
ENDBRANCH   1   3
BRANCH   1  15
ATOM     15  C   LIG    1       31.092 -18.940   7.510  0.00  0.00    +0.161 C 
BRANCH  15  16
ATOM     16  C   LIG    1       31.150 -18.040   8.738  0.00  0.00    -0.018 A 
ATOM     17  C   LIG    1       32.253 -17.218   9.039  0.00  0.00    +0.010 A 
ATOM     18  C   LIG    1       32.343 -16.537  10.251  0.00  0.00    +0.046 A 
ATOM     19  C   LIG    1       31.291 -16.594  11.148  0.00  0.00    +0.117 A 
ATOM     20  C   LIG    1       30.148 -17.332  10.851  0.00  0.00    +0.046 A 
ATOM     21  C   LIG    1       30.089 -18.056   9.652  0.00  0.00    +0.010 A 
BRANCH  19  22
ATOM     22  O   LIG    1       31.426 -15.900  12.312  0.00  0.00    -0.507 OA
ATOM     23  H   LIG    1       30.717 -16.165  12.920  0.00  0.00    +0.292 HD
ENDBRANCH  19  22
ENDBRANCH  15  16
BRANCH  15  24
ATOM     24  O   LIG    1       31.553 -20.236   7.907  0.00  0.00    -0.386 OA
ATOM     25  H   LIG    1       32.447 -20.317   7.517  0.00  0.00    +0.210 HD
ENDBRANCH  15  24
ENDBRANCH   1  15
TORSDOF 9
ENDMDL
MODEL 7
REMARK VINA RESULT:      -8.5      1.545      8.445
REMARK  Name = *****
REMARK                            x       y       z     vdW  Elec       q    Type
REMARK                         _______ _______ _______ _____ _____    ______ ____
ROOT
ATOM      1  C   LIG    1       29.860 -20.516   7.781  0.00  0.00    +0.084 C 
ATOM      2  C   LIG    1       30.970 -20.986   8.733  0.00  0.00    +0.027 C 
ENDROOT
BRANCH   1   3
ATOM      3  N   LIG    1       28.541 -21.139   8.130  0.00  0.00    -0.305 NA
ATOM      4  H   LIG    1       28.465 -22.024   7.621  0.00  0.00    +0.123 HD
BRANCH   3   6
ATOM      5  C   LIG    1       26.315 -20.336   8.920  0.00  0.00    +0.027 C 
ATOM      6  C   LIG    1       27.354 -20.303   7.794  0.00  0.00    +0.088 C 
BRANCH   6   7
ATOM      7  C   LIG    1       26.677 -20.771   6.471  0.00  0.00    +0.247 C 
BRANCH   7   8
ATOM      8  O   LIG    1       25.288 -21.095   6.667  0.00  0.00    -0.490 OA
BRANCH   8   9
ATOM      9  C   LIG    1       24.913 -22.408   6.606  0.00  0.00    +0.121 A 
ATOM     10  C   LIG    1       25.787 -23.492   6.552  0.00  0.00    +0.045 A 
ATOM     11  C   LIG    1       25.295 -24.797   6.491  0.00  0.00    +0.004 A 
ATOM     12  C   LIG    1       23.920 -25.032   6.509  0.00  0.00    +0.000 A 
ATOM     13  C   LIG    1       23.039 -23.957   6.608  0.00  0.00    +0.004 A 
ATOM     14  C   LIG    1       23.536 -22.651   6.663  0.00  0.00    +0.045 A 
ENDBRANCH   8   9
ENDBRANCH   7   8
ENDBRANCH   6   7
ENDBRANCH   3   6
ENDBRANCH   1   3
BRANCH   1  15
ATOM     15  C   LIG    1       29.740 -18.948   7.746  0.00  0.00    +0.161 C 
BRANCH  15  16
ATOM     16  C   LIG    1       30.493 -18.163   8.815  0.00  0.00    -0.018 A 
ATOM     17  C   LIG    1       29.938 -17.844  10.069  0.00  0.00    +0.010 A 
ATOM     18  C   LIG    1       30.588 -16.987  10.954  0.00  0.00    +0.046 A 
ATOM     19  C   LIG    1       31.846 -16.503  10.640  0.00  0.00    +0.117 A 
ATOM     20  C   LIG    1       32.462 -16.860   9.443  0.00  0.00    +0.046 A 
ATOM     21  C   LIG    1       31.778 -17.682   8.536  0.00  0.00    +0.010 A 
BRANCH  19  22
ATOM     22  O   LIG    1       32.440 -15.678  11.545  0.00  0.00    -0.507 OA
ATOM     23  H   LIG    1       32.159 -14.765  11.371  0.00  0.00    +0.292 HD
ENDBRANCH  19  22
ENDBRANCH  15  16
BRANCH  15  24
ATOM     24  O   LIG    1       30.197 -18.481   6.472  0.00  0.00    -0.386 OA
ATOM     25  H   LIG    1       30.661 -17.641   6.662  0.00  0.00    +0.210 HD
ENDBRANCH  15  24
ENDBRANCH   1  15
TORSDOF 9
ENDMDL
MODEL 8
REMARK VINA RESULT:      -8.4      3.295      8.992
REMARK  Name = *****
REMARK                            x       y       z     vdW  Elec       q    Type
REMARK                         _______ _______ _______ _____ _____    ______ ____
ROOT
ATOM      1  C   LIG    1       25.298 -21.293   6.261  0.00  0.00    +0.084 C 
ATOM      2  C   LIG    1       23.931 -20.685   6.611  0.00  0.00    +0.027 C 
ENDROOT
BRANCH   1   3
ATOM      3  N   LIG    1       25.155 -22.449   5.317  0.00  0.00    -0.305 NA
ATOM      4  H   LIG    1       24.363 -22.256   4.698  0.00  0.00    +0.123 HD
BRANCH   3   6
ATOM      5  C   LIG    1       25.817 -23.931   7.213  0.00  0.00    +0.027 C 
ATOM      6  C   LIG    1       24.919 -23.762   5.981  0.00  0.00    +0.088 C 
BRANCH   6   7
ATOM      7  C   LIG    1       25.173 -24.953   5.008  0.00  0.00    +0.247 C 
BRANCH   7   8
ATOM      8  O   LIG    1       26.108 -25.901   5.555  0.00  0.00    -0.490 OA
BRANCH   8   9
ATOM      9  C   LIG    1       25.617 -27.056   6.098  0.00  0.00    +0.121 A 
ATOM     10  C   LIG    1       25.944 -27.555   7.357  0.00  0.00    +0.045 A 
ATOM     11  C   LIG    1       25.383 -28.749   7.814  0.00  0.00    +0.004 A 
ATOM     12  C   LIG    1       24.468 -29.443   7.023  0.00  0.00    +0.000 A 
ATOM     13  C   LIG    1       24.100 -28.930   5.781  0.00  0.00    +0.004 A 
ATOM     14  C   LIG    1       24.669 -27.736   5.325  0.00  0.00    +0.045 A 
ENDBRANCH   8   9
ENDBRANCH   7   8
ENDBRANCH   6   7
ENDBRANCH   3   6
ENDBRANCH   1   3
BRANCH   1  15
ATOM     15  C   LIG    1       26.286 -20.217   5.676  0.00  0.00    +0.161 C 
BRANCH  15  16
ATOM     16  C   LIG    1       27.715 -20.214   6.207  0.00  0.00    -0.018 A 
ATOM     17  C   LIG    1       28.172 -21.113   7.189  0.00  0.00    +0.010 A 
ATOM     18  C   LIG    1       29.431 -20.976   7.770  0.00  0.00    +0.046 A 
ATOM     19  C   LIG    1       30.291 -19.991   7.317  0.00  0.00    +0.117 A 
ATOM     20  C   LIG    1       29.904 -19.132   6.291  0.00  0.00    +0.046 A 
ATOM     21  C   LIG    1       28.616 -19.246   5.749  0.00  0.00    +0.010 A 
BRANCH  19  22
ATOM     22  O   LIG    1       31.513 -19.908   7.911  0.00  0.00    -0.507 OA
ATOM     23  H   LIG    1       32.189 -19.785   7.226  0.00  0.00    +0.292 HD
ENDBRANCH  19  22
ENDBRANCH  15  16
BRANCH  15  24
ATOM     24  O   LIG    1       26.359 -20.385   4.256  0.00  0.00    -0.386 OA
ATOM     25  H   LIG    1       25.688 -21.067   4.048  0.00  0.00    +0.210 HD
ENDBRANCH  15  24
ENDBRANCH   1  15
TORSDOF 9
ENDMDL
MODEL 9
REMARK VINA RESULT:      -8.4      3.083      5.011
REMARK  Name = *****
REMARK                            x       y       z     vdW  Elec       q    Type
REMARK                         _______ _______ _______ _____ _____    ______ ____
ROOT
ATOM      1  C   LIG    1       23.633 -21.863   5.912  0.00  0.00    +0.084 C 
ATOM      2  C   LIG    1       23.076 -20.526   6.428  0.00  0.00    +0.027 C 
ENDROOT
BRANCH   1   3
ATOM      3  N   LIG    1       24.719 -21.647   4.900  0.00  0.00    -0.305 NA
ATOM      4  H   LIG    1       25.554 -22.143   5.221  0.00  0.00    +0.123 HD
BRANCH   3   6
ATOM      5  C   LIG    1       24.765 -19.782   3.242  0.00  0.00    +0.027 C 
ATOM      6  C   LIG    1       25.080 -20.218   4.678  0.00  0.00    +0.088 C 
BRANCH   6   7
ATOM      7  C   LIG    1       26.589 -19.956   4.963  0.00  0.00    +0.247 C 
BRANCH   7   8
ATOM      8  O   LIG    1       27.024 -20.597   6.177  0.00  0.00    -0.490 OA
BRANCH   8   9
ATOM      9  C   LIG    1       28.291 -20.346   6.625  0.00  0.00    +0.121 A 
ATOM     10  C   LIG    1       29.109 -19.308   6.184  0.00  0.00    +0.045 A 
ATOM     11  C   LIG    1       30.392 -19.144   6.710  0.00  0.00    +0.004 A 
ATOM     12  C   LIG    1       30.859 -20.004   7.704  0.00  0.00    +0.000 A 
ATOM     13  C   LIG    1       30.032 -21.017   8.184  0.00  0.00    +0.004 A 
ATOM     14  C   LIG    1       28.750 -21.182   7.650  0.00  0.00    +0.045 A 
ENDBRANCH   8   9
ENDBRANCH   7   8
ENDBRANCH   6   7
ENDBRANCH   3   6
ENDBRANCH   1   3
BRANCH   1  15
ATOM     15  C   LIG    1       24.143 -22.778   7.086  0.00  0.00    +0.161 C 
BRANCH  15  16
ATOM     16  C   LIG    1       24.649 -24.169   6.722  0.00  0.00    -0.018 A 
ATOM     17  C   LIG    1       26.013 -24.516   6.721  0.00  0.00    +0.010 A 
ATOM     18  C   LIG    1       26.451 -25.742   6.226  0.00  0.00    +0.046 A 
ATOM     19  C   LIG    1       25.525 -26.680   5.803  0.00  0.00    +0.117 A 
ATOM     20  C   LIG    1       24.162 -26.404   5.864  0.00  0.00    +0.046 A 
ATOM     21  C   LIG    1       23.734 -25.148   6.316  0.00  0.00    +0.010 A 
BRANCH  19  22
ATOM     22  O   LIG    1       26.007 -27.865   5.339  0.00  0.00    -0.507 OA
ATOM     23  H   LIG    1       25.311 -28.538   5.409  0.00  0.00    +0.292 HD
ENDBRANCH  19  22
ENDBRANCH  15  16
BRANCH  15  24
ATOM     24  O   LIG    1       25.205 -22.102   7.767  0.00  0.00    -0.386 OA
ATOM     25  H   LIG    1       24.773 -21.358   8.233  0.00  0.00    +0.210 HD
ENDBRANCH  15  24
ENDBRANCH   1  15
TORSDOF 9
ENDMDL
