MODEL 1
REMARK VINA RESULT:      -7.7      0.000      0.000
REMARK  Name = *****
REMARK                            x       y       z     vdW  Elec       q    Type
REMARK                         _______ _______ _______ _____ _____    ______ ____
ROOT
ATOM      1  O   LIG    1       26.064 -20.526   9.518  0.00  0.00    -0.268 OA
ATOM      2  C   LIG    1       26.288 -20.466   8.318  0.00  0.00    +0.252 C 
ATOM      3  N   LIG    1       25.317 -20.568   7.315  0.00  0.00    -0.312 N 
ATOM      4  C   LIG    1       23.946 -20.745   7.770  0.00  0.00    +0.130 C 
ATOM      5  C   LIG    1       22.955 -21.193   6.695  0.00  0.00    +0.023 C 
ATOM      6  C   LIG    1       23.117 -20.260   5.505  0.00  0.00    +0.017 C 
ATOM      7  C   LIG    1       24.500 -20.534   4.921  0.00  0.00    +0.050 C 
ATOM      8  C   LIG    1       24.453 -21.945   4.305  0.00  0.00    +0.090 C 
ATOM      9  N   LIG    1       24.110 -23.007   5.250  0.00  0.00    -0.315 NA
ATOM     10  H   LIG    1       23.798 -23.833   4.738  0.00  0.00    +0.122 HD
ATOM     11  C   LIG    1       23.139 -22.674   6.293  0.00  0.00    +0.086 C 
ATOM     12  C   LIG    1       25.615 -20.416   5.957  0.00  0.00    +0.026 C 
ATOM     13  C   LIG    1       26.889 -20.198   5.580  0.00  0.00    +0.022 C 
ATOM     14  C   LIG    1       27.951 -20.141   6.551  0.00  0.00    +0.007 C 
ATOM     15  C   LIG    1       27.688 -20.269   7.854  0.00  0.00    +0.070 C 
ENDROOT
TORSDOF 0
ENDMDL
MODEL 2
REMARK VINA RESULT:      -7.6      1.183      1.368
REMARK  Name = *****
REMARK                            x       y       z     vdW  Elec       q    Type
REMARK                         _______ _______ _______ _____ _____    ______ ____
ROOT
ATOM      1  O   LIG    1       28.139 -21.706   8.732  0.00  0.00    -0.268 OA
ATOM      2  C   LIG    1       27.764 -21.182   7.694  0.00  0.00    +0.252 C 
ATOM      3  N   LIG    1       26.450 -21.204   7.214  0.00  0.00    -0.312 N 
ATOM      4  C   LIG    1       25.479 -21.903   8.043  0.00  0.00    +0.130 C 
ATOM      5  C   LIG    1       24.147 -22.217   7.363  0.00  0.00    +0.023 C 
ATOM      6  C   LIG    1       23.638 -20.930   6.733  0.00  0.00    +0.017 C 
ATOM      7  C   LIG    1       24.601 -20.589   5.600  0.00  0.00    +0.050 C 
ATOM      8  C   LIG    1       24.405 -21.659   4.509  0.00  0.00    +0.090 C 
ATOM      9  N   LIG    1       24.650 -23.030   4.955  0.00  0.00    -0.315 NA
ATOM     10  H   LIG    1       24.215 -23.685   4.305  0.00  0.00    +0.122 HD
ATOM     11  C   LIG    1       24.259 -23.358   6.327  0.00  0.00    +0.086 C 
ATOM     12  C   LIG    1       26.056 -20.523   6.057  0.00  0.00    +0.026 C 
ATOM     13  C   LIG    1       26.974 -19.842   5.347  0.00  0.00    +0.022 C 
ATOM     14  C   LIG    1       28.357 -19.822   5.746  0.00  0.00    +0.007 C 
ATOM     15  C   LIG    1       28.754 -20.454   6.855  0.00  0.00    +0.070 C 
ENDROOT
TORSDOF 0
ENDMDL
MODEL 3
REMARK VINA RESULT:      -7.5      2.203      3.787
REMARK  Name = *****
REMARK                            x       y       z     vdW  Elec       q    Type
REMARK                         _______ _______ _______ _____ _____    ______ ____
ROOT
ATOM      1  O   LIG    1       26.018 -19.420   3.803  0.00  0.00    -0.268 OA
ATOM      2  C   LIG    1       24.951 -19.668   4.344  0.00  0.00    +0.252 C 
ATOM      3  N   LIG    1       24.788 -20.529   5.436  0.00  0.00    -0.312 N 
ATOM      4  C   LIG    1       26.001 -21.148   5.947  0.00  0.00    +0.130 C 
ATOM      5  C   LIG    1       25.781 -22.328   6.895  0.00  0.00    +0.023 C 
ATOM      6  C   LIG    1       24.795 -21.880   7.963  0.00  0.00    +0.017 C 
ATOM      7  C   LIG    1       23.457 -21.671   7.260  0.00  0.00    +0.050 C 
ATOM      8  C   LIG    1       22.957 -23.062   6.827  0.00  0.00    +0.090 C 
ATOM      9  N   LIG    1       23.865 -23.780   5.934  0.00  0.00    -0.315 NA
ATOM     10  H   LIG    1       23.636 -24.775   5.939  0.00  0.00    +0.122 HD
ATOM     11  C   LIG    1       25.298 -23.600   6.164  0.00  0.00    +0.086 C 
ATOM     12  C   LIG    1       23.555 -20.720   6.069  0.00  0.00    +0.026 C 
ATOM     13  C   LIG    1       22.465 -20.086   5.600  0.00  0.00    +0.022 C 
ATOM     14  C   LIG    1       22.544 -19.231   4.444  0.00  0.00    +0.007 C 
ATOM     15  C   LIG    1       23.713 -19.022   3.832  0.00  0.00    +0.070 C 
ENDROOT
TORSDOF 0
ENDMDL
MODEL 4
REMARK VINA RESULT:      -7.0      2.641      4.249
REMARK  Name = *****
REMARK                            x       y       z     vdW  Elec       q    Type
REMARK                         _______ _______ _______ _____ _____    ______ ____
ROOT
ATOM      1  O   LIG    1       22.208 -23.959   6.575  0.00  0.00    -0.268 OA
ATOM      2  C   LIG    1       23.416 -24.115   6.672  0.00  0.00    +0.252 C 
ATOM      3  N   LIG    1       24.318 -23.138   7.113  0.00  0.00    -0.312 N 
ATOM      4  C   LIG    1       23.738 -21.857   7.486  0.00  0.00    +0.130 C 
ATOM      5  C   LIG    1       24.736 -20.708   7.632  0.00  0.00    +0.023 C 
ATOM      6  C   LIG    1       25.859 -21.188   8.538  0.00  0.00    +0.017 C 
ATOM      7  C   LIG    1       26.603 -22.277   7.770  0.00  0.00    +0.050 C 
ATOM      8  C   LIG    1       27.320 -21.583   6.596  0.00  0.00    +0.090 C 
ATOM      9  N   LIG    1       26.432 -20.869   5.681  0.00  0.00    -0.315 NA
ATOM     10  H   LIG    1       26.972 -20.199   5.132  0.00  0.00    +0.122 HD
ATOM     11  C   LIG    1       25.270 -20.204   6.273  0.00  0.00    +0.086 C 
ATOM     12  C   LIG    1       25.683 -23.391   7.279  0.00  0.00    +0.026 C 
ATOM     13  C   LIG    1       26.172 -24.608   6.975  0.00  0.00    +0.022 C 
ATOM     14  C   LIG    1       25.316 -25.644   6.460  0.00  0.00    +0.007 C 
ATOM     15  C   LIG    1       24.006 -25.430   6.306  0.00  0.00    +0.070 C 
ENDROOT
TORSDOF 0
ENDMDL
MODEL 5
REMARK VINA RESULT:      -6.8      1.863      3.044
REMARK  Name = *****
REMARK                            x       y       z     vdW  Elec       q    Type
REMARK                         _______ _______ _______ _____ _____    ______ ____
ROOT
ATOM      1  O   LIG    1       27.892 -19.742   6.265  0.00  0.00    -0.268 OA
ATOM      2  C   LIG    1       26.824 -20.221   6.618  0.00  0.00    +0.252 C 
ATOM      3  N   LIG    1       25.743 -20.483   5.767  0.00  0.00    -0.312 N 
ATOM      4  C   LIG    1       25.944 -20.161   4.363  0.00  0.00    +0.130 C 
ATOM      5  C   LIG    1       24.672 -20.125   3.514  0.00  0.00    +0.023 C 
ATOM      6  C   LIG    1       23.913 -21.418   3.770  0.00  0.00    +0.017 C 
ATOM      7  C   LIG    1       23.436 -21.364   5.219  0.00  0.00    +0.050 C 
ATOM      8  C   LIG    1       22.363 -20.262   5.294  0.00  0.00    +0.090 C 
ATOM      9  N   LIG    1       22.827 -18.936   4.890  0.00  0.00    -0.315 NA
ATOM     10  H   LIG    1       22.025 -18.344   4.668  0.00  0.00    +0.122 HD
ATOM     11  C   LIG    1       23.800 -18.881   3.798  0.00  0.00    +0.086 C 
ATOM     12  C   LIG    1       24.570 -21.104   6.208  0.00  0.00    +0.026 C 
ATOM     13  C   LIG    1       24.445 -21.438   7.505  0.00  0.00    +0.022 C 
ATOM     14  C   LIG    1       25.491 -21.145   8.451  0.00  0.00    +0.007 C 
ATOM     15  C   LIG    1       26.626 -20.566   8.051  0.00  0.00    +0.070 C 
ENDROOT
TORSDOF 0
ENDMDL
MODEL 6
REMARK VINA RESULT:      -6.7      2.136      4.203
REMARK  Name = *****
REMARK                            x       y       z     vdW  Elec       q    Type
REMARK                         _______ _______ _______ _____ _____    ______ ____
ROOT
ATOM      1  O   LIG    1       25.425 -19.749   3.444  0.00  0.00    -0.268 OA
ATOM      2  C   LIG    1       24.786 -20.083   4.431  0.00  0.00    +0.252 C 
ATOM      3  N   LIG    1       25.336 -20.339   5.693  0.00  0.00    -0.312 N 
ATOM      4  C   LIG    1       26.777 -20.174   5.806  0.00  0.00    +0.130 C 
ATOM      5  C   LIG    1       27.405 -20.776   7.064  0.00  0.00    +0.023 C 
ATOM      6  C   LIG    1       26.610 -20.273   8.259  0.00  0.00    +0.017 C 
ATOM      7  C   LIG    1       25.224 -20.905   8.156  0.00  0.00    +0.050 C 
ATOM      8  C   LIG    1       25.401 -22.413   8.412  0.00  0.00    +0.090 C 
ATOM      9  N   LIG    1       26.307 -23.084   7.481  0.00  0.00    -0.315 NA
ATOM     10  H   LIG    1       26.614 -23.971   7.880  0.00  0.00    +0.122 HD
ATOM     11  C   LIG    1       27.466 -22.318   7.022  0.00  0.00    +0.086 C 
ATOM     12  C   LIG    1       24.552 -20.645   6.810  0.00  0.00    +0.026 C 
ATOM     13  C   LIG    1       23.216 -20.734   6.676  0.00  0.00    +0.022 C 
ATOM     14  C   LIG    1       22.584 -20.542   5.397  0.00  0.00    +0.007 C 
ATOM     15  C   LIG    1       23.311 -20.236   4.319  0.00  0.00    +0.070 C 
ENDROOT
TORSDOF 0
ENDMDL
MODEL 7
REMARK VINA RESULT:      -6.4      2.136      3.803
REMARK  Name = *****
REMARK                            x       y       z     vdW  Elec       q    Type
REMARK                         _______ _______ _______ _____ _____    ______ ____
ROOT
ATOM      1  O   LIG    1       22.157 -21.005   5.300  0.00  0.00    -0.268 OA
ATOM      2  C   LIG    1       23.321 -20.666   5.152  0.00  0.00    +0.252 C 
ATOM      3  N   LIG    1       24.404 -21.180   5.875  0.00  0.00    -0.312 N 
ATOM      4  C   LIG    1       24.085 -22.200   6.862  0.00  0.00    +0.130 C 
ATOM      5  C   LIG    1       25.196 -22.503   7.869  0.00  0.00    +0.023 C 
ATOM      6  C   LIG    1       26.472 -22.754   7.082  0.00  0.00    +0.017 C 
ATOM      7  C   LIG    1       26.858 -21.424   6.441  0.00  0.00    +0.050 C 
ATOM      8  C   LIG    1       27.284 -20.484   7.585  0.00  0.00    +0.090 C 
ATOM      9  N   LIG    1       26.252 -20.252   8.595  0.00  0.00    -0.315 NA
ATOM     10  H   LIG    1       26.682 -19.895   9.448  0.00  0.00    +0.122 HD
ATOM     11  C   LIG    1       25.376 -21.380   8.914  0.00  0.00    +0.086 C 
ATOM     12  C   LIG    1       25.729 -20.815   5.614  0.00  0.00    +0.026 C 
ATOM     13  C   LIG    1       25.987 -19.907   4.654  0.00  0.00    +0.022 C 
ATOM     14  C   LIG    1       24.920 -19.291   3.908  0.00  0.00    +0.007 C 
ATOM     15  C   LIG    1       23.649 -19.635   4.131  0.00  0.00    +0.070 C 
ENDROOT
TORSDOF 0
ENDMDL
MODEL 8
REMARK VINA RESULT:      -6.4      2.296      3.385
REMARK  Name = *****
REMARK                            x       y       z     vdW  Elec       q    Type
REMARK                         _______ _______ _______ _____ _____    ______ ____
ROOT
ATOM      1  O   LIG    1       28.235 -18.570   4.935  0.00  0.00    -0.268 OA
ATOM      2  C   LIG    1       28.377 -19.413   5.808  0.00  0.00    +0.252 C 
ATOM      3  N   LIG    1       27.431 -20.389   6.141  0.00  0.00    -0.312 N 
ATOM      4  C   LIG    1       26.202 -20.379   5.362  0.00  0.00    +0.130 C 
ATOM      5  C   LIG    1       25.054 -21.205   5.944  0.00  0.00    +0.023 C 
ATOM      6  C   LIG    1       25.599 -22.590   6.259  0.00  0.00    +0.017 C 
ATOM      7  C   LIG    1       26.595 -22.417   7.402  0.00  0.00    +0.050 C 
ATOM      8  C   LIG    1       25.779 -22.027   8.649  0.00  0.00    +0.090 C 
ATOM      9  N   LIG    1       24.996 -20.801   8.502  0.00  0.00    -0.315 NA
ATOM     10  H   LIG    1       24.267 -20.772   9.215  0.00  0.00    +0.122 HD
ATOM     11  C   LIG    1       24.413 -20.544   7.185  0.00  0.00    +0.086 C 
ATOM     12  C   LIG    1       27.674 -21.381   7.098  0.00  0.00    +0.026 C 
ATOM     13  C   LIG    1       28.846 -21.389   7.758  0.00  0.00    +0.022 C 
ATOM     14  C   LIG    1       29.844 -20.381   7.512  0.00  0.00    +0.007 C 
ATOM     15  C   LIG    1       29.640 -19.433   6.593  0.00  0.00    +0.070 C 
ENDROOT
TORSDOF 0
ENDMDL
MODEL 9
REMARK VINA RESULT:      -6.3      1.889      2.759
REMARK  Name = *****
REMARK                            x       y       z     vdW  Elec       q    Type
REMARK                         _______ _______ _______ _____ _____    ______ ____
ROOT
ATOM      1  O   LIG    1       28.075 -19.046   5.333  0.00  0.00    -0.268 OA
ATOM      2  C   LIG    1       27.656 -19.966   6.019  0.00  0.00    +0.252 C 
ATOM      3  N   LIG    1       26.470 -20.670   5.779  0.00  0.00    -0.312 N 
ATOM      4  C   LIG    1       25.709 -20.257   4.609  0.00  0.00    +0.130 C 
ATOM      5  C   LIG    1       24.274 -20.782   4.546  0.00  0.00    +0.023 C 
ATOM      6  C   LIG    1       24.325 -22.285   4.777  0.00  0.00    +0.017 C 
ATOM      7  C   LIG    1       24.769 -22.489   6.223  0.00  0.00    +0.050 C 
ATOM      8  C   LIG    1       23.615 -21.997   7.117  0.00  0.00    +0.090 C 
ATOM      9  N   LIG    1       23.250 -20.595   6.918  0.00  0.00    -0.315 NA
ATOM     10  H   LIG    1       22.316 -20.428   7.293  0.00  0.00    +0.122 HD
ATOM     11  C   LIG    1       23.336 -20.078   5.552  0.00  0.00    +0.086 C 
ATOM     12  C   LIG    1       26.073 -21.767   6.551  0.00  0.00    +0.026 C 
ATOM     13  C   LIG    1       26.834 -22.152   7.592  0.00  0.00    +0.022 C 
ATOM     14  C   LIG    1       28.036 -21.440   7.937  0.00  0.00    +0.007 C 
ATOM     15  C   LIG    1       28.442 -20.398   7.205  0.00  0.00    +0.070 C 
ENDROOT
TORSDOF 0
ENDMDL
