MODEL 1
REMARK VINA RESULT:      -5.0      0.000      0.000
REMARK  Name = *****
REMARK                            x       y       z     vdW  Elec       q    Type
REMARK                         _______ _______ _______ _____ _____    ______ ____
ROOT
ATOM      1  C   LIG    1       27.225 -13.986   4.671  0.00  0.00    +0.203 C 
ENDROOT
BRANCH   1   2
ATOM      2  N   LIG    1       26.041 -13.574   3.928  0.00  0.00    -0.293 N 
ATOM      3  C   LIG    1       25.913 -13.690   2.554  0.00  0.00    +0.216 C 
ATOM      4  O   LIG    1       26.674 -14.288   1.813  0.00  0.00    -0.276 OA
ATOM      5  C   LIG    1       24.683 -12.928   2.133  0.00  0.00    +0.097 C 
ATOM      6  C   LIG    1       23.954 -12.696   3.452  0.00  0.00    +0.028 C 
ATOM      7  C   LIG    1       25.069 -12.666   4.480  0.00  0.00    +0.109 C 
ENDBRANCH   1   2
BRANCH   1  11
ATOM      8  N   LIG    1       28.636 -12.192   5.581  0.00  0.00    -0.328 N 
ATOM      9  H   LIG    1       28.090 -12.265   6.438  0.00  0.00    +0.145 HD
ATOM     10  H   LIG    1       29.429 -11.567   5.554  0.00  0.00    +0.145 HD
ATOM     11  C   LIG    1       28.389 -13.004   4.513  0.00  0.00    +0.228 C 
ATOM     12  O   LIG    1       29.141 -13.009   3.541  0.00  0.00    -0.274 OA
ENDBRANCH   1  11
TORSDOF 2
ENDMDL
MODEL 2
REMARK VINA RESULT:      -4.8      7.160      7.577
REMARK  Name = *****
REMARK                            x       y       z     vdW  Elec       q    Type
REMARK                         _______ _______ _______ _____ _____    ______ ____
ROOT
ATOM      1  C   LIG    1       25.500 -21.073   5.044  0.00  0.00    +0.203 C 
ENDROOT
BRANCH   1   2
ATOM      2  N   LIG    1       24.342 -20.209   4.853  0.00  0.00    -0.293 N 
ATOM      3  C   LIG    1       23.153 -20.347   5.551  0.00  0.00    +0.216 C 
ATOM      4  O   LIG    1       22.968 -21.075   6.511  0.00  0.00    -0.276 OA
ATOM      5  C   LIG    1       22.124 -19.459   4.901  0.00  0.00    +0.097 C 
ATOM      6  C   LIG    1       22.966 -18.550   4.012  0.00  0.00    +0.028 C 
ATOM      7  C   LIG    1       24.178 -19.398   3.675  0.00  0.00    +0.109 C 
ENDBRANCH   1   2
BRANCH   1  11
ATOM      8  N   LIG    1       27.662 -19.907   5.128  0.00  0.00    -0.328 N 
ATOM      9  H   LIG    1       27.679 -19.970   4.111  0.00  0.00    +0.145 HD
ATOM     10  H   LIG    1       28.394 -19.398   5.602  0.00  0.00    +0.145 HD
ATOM     11  C   LIG    1       26.612 -20.395   5.850  0.00  0.00    +0.228 C 
ATOM     12  O   LIG    1       26.531 -20.187   7.058  0.00  0.00    -0.274 OA
ENDBRANCH   1  11
TORSDOF 2
ENDMDL
MODEL 3
REMARK VINA RESULT:      -4.7      6.890      7.272
REMARK  Name = *****
REMARK                            x       y       z     vdW  Elec       q    Type
REMARK                         _______ _______ _______ _____ _____    ______ ____
ROOT
ATOM      1  C   LIG    1       25.328 -21.253   5.072  0.00  0.00    +0.203 C 
ENDROOT
BRANCH   1   2
ATOM      2  N   LIG    1       24.157 -20.432   4.787  0.00  0.00    -0.293 N 
ATOM      3  C   LIG    1       24.187 -19.296   3.996  0.00  0.00    +0.216 C 
ATOM      4  O   LIG    1       25.124 -18.925   3.311  0.00  0.00    -0.276 OA
ATOM      5  C   LIG    1       22.866 -18.585   4.150  0.00  0.00    +0.097 C 
ATOM      6  C   LIG    1       21.984 -19.639   4.812  0.00  0.00    +0.028 C 
ATOM      7  C   LIG    1       22.966 -20.491   5.593  0.00  0.00    +0.109 C 
ENDBRANCH   1   2
BRANCH   1  11
ATOM      8  N   LIG    1       27.480 -20.072   5.188  0.00  0.00    -0.328 N 
ATOM      9  H   LIG    1       27.560 -20.223   4.183  0.00  0.00    +0.145 HD
ATOM     10  H   LIG    1       28.182 -19.520   5.660  0.00  0.00    +0.145 HD
ATOM     11  C   LIG    1       26.387 -20.502   5.883  0.00  0.00    +0.228 C 
ATOM     12  O   LIG    1       26.232 -20.192   7.062  0.00  0.00    -0.274 OA
ENDBRANCH   1  11
TORSDOF 2
ENDMDL
MODEL 4
REMARK VINA RESULT:      -4.5      2.164      2.814
REMARK  Name = *****
REMARK                            x       y       z     vdW  Elec       q    Type
REMARK                         _______ _______ _______ _____ _____    ______ ____
ROOT
ATOM      1  C   LIG    1       26.875 -14.058   2.597  0.00  0.00    +0.203 C 
ENDROOT
BRANCH   1   2
ATOM      2  N   LIG    1       25.759 -13.241   3.058  0.00  0.00    -0.293 N 
ATOM      3  C   LIG    1       25.444 -13.049   4.392  0.00  0.00    +0.216 C 
ATOM      4  O   LIG    1       26.128 -13.383   5.344  0.00  0.00    -0.276 OA
ATOM      5  C   LIG    1       24.097 -12.376   4.462  0.00  0.00    +0.097 C 
ATOM      6  C   LIG    1       23.880 -11.892   3.032  0.00  0.00    +0.028 C 
ATOM      7  C   LIG    1       24.666 -12.881   2.193  0.00  0.00    +0.109 C 
ENDBRANCH   1   2
BRANCH   1  11
ATOM      8  N   LIG    1       27.923 -15.595   4.203  0.00  0.00    -0.328 N 
ATOM      9  H   LIG    1       28.570 -14.840   4.427  0.00  0.00    +0.145 HD
ATOM     10  H   LIG    1       27.968 -16.455   4.731  0.00  0.00    +0.145 HD
ATOM     11  C   LIG    1       26.926 -15.424   3.287  0.00  0.00    +0.228 C 
ATOM     12  O   LIG    1       26.066 -16.287   3.128  0.00  0.00    -0.274 OA
ENDBRANCH   1  11
TORSDOF 2
ENDMDL
MODEL 5
REMARK VINA RESULT:      -4.3      1.721      2.293
REMARK  Name = *****
REMARK                            x       y       z     vdW  Elec       q    Type
REMARK                         _______ _______ _______ _____ _____    ______ ____
ROOT
ATOM      1  C   LIG    1       26.667 -13.990   2.394  0.00  0.00    +0.203 C 
ENDROOT
BRANCH   1   2
ATOM      2  N   LIG    1       25.598 -13.101   2.831  0.00  0.00    -0.293 N 
ATOM      3  C   LIG    1       25.048 -13.124   4.102  0.00  0.00    +0.216 C 
ATOM      4  O   LIG    1       25.477 -13.749   5.056  0.00  0.00    -0.276 OA
ATOM      5  C   LIG    1       23.813 -12.259   4.093  0.00  0.00    +0.097 C 
ATOM      6  C   LIG    1       23.954 -11.474   2.793  0.00  0.00    +0.028 C 
ATOM      7  C   LIG    1       24.756 -12.399   1.898  0.00  0.00    +0.109 C 
ENDBRANCH   1   2
BRANCH   1  11
ATOM      8  N   LIG    1       27.861 -15.341   4.063  0.00  0.00    -0.328 N 
ATOM      9  H   LIG    1       27.235 -16.107   3.819  0.00  0.00    +0.145 HD
ATOM     10  H   LIG    1       28.612 -15.509   4.718  0.00  0.00    +0.145 HD
ATOM     11  C   LIG    1       27.777 -14.131   3.438  0.00  0.00    +0.228 C 
ATOM     12  O   LIG    1       28.625 -13.264   3.635  0.00  0.00    -0.274 OA
ENDBRANCH   1  11
TORSDOF 2
ENDMDL
MODEL 6
REMARK VINA RESULT:      -4.3      7.352      8.622
REMARK  Name = *****
REMARK                            x       y       z     vdW  Elec       q    Type
REMARK                         _______ _______ _______ _____ _____    ______ ____
ROOT
ATOM      1  C   LIG    1       24.018 -21.393   4.557  0.00  0.00    +0.203 C 
ENDROOT
BRANCH   1   2
ATOM      2  N   LIG    1       25.195 -20.861   5.233  0.00  0.00    -0.293 N 
ATOM      3  C   LIG    1       25.997 -19.860   4.710  0.00  0.00    +0.216 C 
ATOM      4  O   LIG    1       25.749 -19.185   3.726  0.00  0.00    -0.276 OA
ATOM      5  C   LIG    1       27.241 -19.768   5.557  0.00  0.00    +0.097 C 
ATOM      6  C   LIG    1       26.867 -20.564   6.803  0.00  0.00    +0.028 C 
ATOM      7  C   LIG    1       25.854 -21.572   6.297  0.00  0.00    +0.109 C 
ENDBRANCH   1   2
BRANCH   1  11
ATOM      8  N   LIG    1       21.575 -21.474   4.813  0.00  0.00    -0.328 N 
ATOM      9  H   LIG    1       21.605 -22.375   4.337  0.00  0.00    +0.145 HD
ATOM     10  H   LIG    1       20.695 -21.139   5.178  0.00  0.00    +0.145 HD
ATOM     11  C   LIG    1       22.716 -20.770   5.067  0.00  0.00    +0.228 C 
ATOM     12  O   LIG    1       22.686 -19.759   5.765  0.00  0.00    -0.274 OA
ENDBRANCH   1  11
TORSDOF 2
ENDMDL
MODEL 7
REMARK VINA RESULT:      -4.3      7.586      8.815
REMARK  Name = *****
REMARK                            x       y       z     vdW  Elec       q    Type
REMARK                         _______ _______ _______ _____ _____    ______ ____
ROOT
ATOM      1  C   LIG    1       24.109 -20.952   4.168  0.00  0.00    +0.203 C 
ENDROOT
BRANCH   1   2
ATOM      2  N   LIG    1       25.232 -20.740   5.073  0.00  0.00    -0.293 N 
ATOM      3  C   LIG    1       25.183 -20.991   6.434  0.00  0.00    +0.216 C 
ATOM      4  O   LIG    1       24.284 -21.566   7.024  0.00  0.00    -0.276 OA
ATOM      5  C   LIG    1       26.424 -20.409   7.062  0.00  0.00    +0.097 C 
ATOM      6  C   LIG    1       27.324 -20.142   5.860  0.00  0.00    +0.028 C 
ATOM      7  C   LIG    1       26.347 -19.898   4.725  0.00  0.00    +0.109 C 
ENDBRANCH   1   2
BRANCH   1  11
ATOM      8  N   LIG    1       21.823 -21.350   4.978  0.00  0.00    -0.328 N 
ATOM      9  H   LIG    1       21.993 -22.342   4.818  0.00  0.00    +0.145 HD
ATOM     10  H   LIG    1       20.955 -21.061   5.406  0.00  0.00    +0.145 HD
ATOM     11  C   LIG    1       22.790 -20.418   4.733  0.00  0.00    +0.228 C 
ATOM     12  O   LIG    1       22.629 -19.246   5.063  0.00  0.00    -0.274 OA
ENDBRANCH   1  11
TORSDOF 2
ENDMDL
MODEL 8
REMARK VINA RESULT:      -4.2      6.763      7.706
REMARK  Name = *****
REMARK                            x       y       z     vdW  Elec       q    Type
REMARK                         _______ _______ _______ _____ _____    ______ ____
ROOT
ATOM      1  C   LIG    1       24.795 -19.971   3.603  0.00  0.00    +0.203 C 
ENDROOT
BRANCH   1   2
ATOM      2  N   LIG    1       24.576 -20.453   4.961  0.00  0.00    -0.293 N 
ATOM      3  C   LIG    1       23.352 -20.410   5.607  0.00  0.00    +0.216 C 
ATOM      4  O   LIG    1       22.282 -20.130   5.093  0.00  0.00    -0.276 OA
ATOM      5  C   LIG    1       23.577 -20.745   7.059  0.00  0.00    +0.097 C 
ATOM      6  C   LIG    1       24.984 -21.333   7.062  0.00  0.00    +0.028 C 
ATOM      7  C   LIG    1       25.661 -20.654   5.887  0.00  0.00    +0.109 C 
ENDBRANCH   1   2
BRANCH   1  11
ATOM      8  N   LIG    1       26.303 -18.050   3.321  0.00  0.00    -0.328 N 
ATOM      9  H   LIG    1       27.052 -18.724   3.172  0.00  0.00    +0.145 HD
ATOM     10  H   LIG    1       26.497 -17.065   3.214  0.00  0.00    +0.145 HD
ATOM     11  C   LIG    1       25.020 -18.458   3.546  0.00  0.00    +0.228 C 
ATOM     12  O   LIG    1       24.100 -17.643   3.581  0.00  0.00    -0.274 OA
ENDBRANCH   1  11
TORSDOF 2
ENDMDL
MODEL 9
REMARK VINA RESULT:      -4.1      7.062      7.890
REMARK  Name = *****
REMARK                            x       y       z     vdW  Elec       q    Type
REMARK                         _______ _______ _______ _____ _____    ______ ____
ROOT
ATOM      1  C   LIG    1       25.450 -20.046   3.970  0.00  0.00    +0.203 C 
ENDROOT
BRANCH   1   2
ATOM      2  N   LIG    1       24.606 -20.582   5.031  0.00  0.00    -0.293 N 
ATOM      3  C   LIG    1       25.033 -20.768   6.336  0.00  0.00    +0.216 C 
ATOM      4  O   LIG    1       26.083 -20.368   6.809  0.00  0.00    -0.276 OA
ATOM      5  C   LIG    1       23.984 -21.572   7.061  0.00  0.00    +0.097 C 
ATOM      6  C   LIG    1       22.781 -21.488   6.126  0.00  0.00    +0.028 C 
ATOM      7  C   LIG    1       23.402 -21.320   4.753  0.00  0.00    +0.109 C 
ENDBRANCH   1   2
BRANCH   1  11
ATOM      8  N   LIG    1       26.162 -17.813   3.231  0.00  0.00    -0.328 N 
ATOM      9  H   LIG    1       27.102 -18.198   3.139  0.00  0.00    +0.145 HD
ATOM     10  H   LIG    1       25.989 -16.863   2.938  0.00  0.00    +0.145 HD
ATOM     11  C   LIG    1       25.115 -18.592   3.631  0.00  0.00    +0.228 C 
ATOM     12  O   LIG    1       23.965 -18.159   3.600  0.00  0.00    -0.274 OA
ENDBRANCH   1  11
TORSDOF 2
ENDMDL
