MODEL 1
REMARK VINA RESULT:      -5.8      0.000      0.000
REMARK  Name = *****
REMARK                            x       y       z     vdW  Elec       q    Type
REMARK                         _______ _______ _______ _____ _____    ______ ____
ROOT
ATOM      1  C   LIG    1       25.399 -28.858  13.683  0.00  0.00    +0.129 C 
ATOM      2  C   LIG    1       25.103 -29.010  12.157  0.00  0.00    +0.061 C 
ATOM      3  C   LIG    1       26.344 -28.732  11.295  0.00  0.00    +0.190 C 
ATOM      4  C   LIG    1       26.124 -29.096   9.840  0.00  0.00    +0.141 C 
ATOM      5  C   LIG    1       25.167 -29.957   9.433  0.00  0.00    +0.047 C 
ATOM      6  C   LIG    1       24.191 -30.639  10.364  0.00  0.00    +0.062 C 
ATOM      7  C   LIG    1       24.000 -32.151  10.000  0.00  0.00    +0.096 C 
ATOM      8  C   LIG    1       22.893 -32.757  10.887  0.00  0.00    +0.047 C 
ATOM      9  C   LIG    1       23.722 -32.330   8.507  0.00  0.00    -0.002 A 
ATOM     10  C   LIG    1       24.194 -31.397   7.561  0.00  0.00    +0.069 A 
ATOM     11  C   LIG    1       23.940 -31.592   6.190  0.00  0.00    +0.128 A 
ATOM     12  C   LIG    1       23.231 -32.701   5.744  0.00  0.00    +0.046 A 
ATOM     13  C   LIG    1       22.787 -33.644   6.661  0.00  0.00    +0.004 A 
ATOM     14  C   LIG    1       23.038 -33.466   8.024  0.00  0.00    +0.007 A 
ATOM     15  C   LIG    1       25.003 -30.229   7.980  0.00  0.00    +0.197 C 
ATOM     16  O   LIG    1       25.530 -29.507   7.133  0.00  0.00    -0.287 OA
ATOM     17  C   LIG    1       27.519 -29.542  11.880  0.00  0.00    +0.210 C 
ATOM     18  O   LIG    1       28.046 -30.495  11.310  0.00  0.00    -0.288 OA
ATOM     19  C   LIG    1       27.902 -29.184  13.272  0.00  0.00    +0.121 C 
ATOM     20  C   LIG    1       24.557 -30.424  11.855  0.00  0.00    +0.020 C 
ATOM     21  C   LIG    1       26.876 -28.871  14.088  0.00  0.00    +0.127 C 
ENDROOT
BRANCH  19  22
ATOM     22  C   LIG    1       29.338 -29.150  13.644  0.00  0.00    +0.248 C 
ATOM     23  O   LIG    1       29.719 -28.936  14.789  0.00  0.00    -0.270 OA
ATOM     24  N   LIG    1       30.236 -29.397  12.651  0.00  0.00    -0.325 N 
ATOM     25  H   LIG    1       29.917 -29.771  11.763  0.00  0.00    +0.145 HD
ATOM     26  H   LIG    1       31.210 -29.478  12.905  0.00  0.00    +0.145 HD
ENDBRANCH  19  22
BRANCH   1  28
ATOM     27  C   LIG    1       23.725 -28.195  15.347  0.00  0.00    +0.105 C 
ATOM     28  N   LIG    1       24.732 -27.726  14.392  0.00  0.00    -0.298 NA
ATOM     29  C   LIG    1       24.140 -26.731  13.489  0.00  0.00    +0.105 C 
ENDBRANCH   1  28
BRANCH   3  30
ATOM     30  O   LIG    1       26.627 -27.331  11.336  0.00  0.00    -0.373 OA
ATOM     31  H   LIG    1       27.499 -27.240  10.893  0.00  0.00    +0.211 HD
ENDBRANCH   3  30
BRANCH   4  32
ATOM     32  O   LIG    1       26.952 -28.397   8.967  0.00  0.00    -0.507 OA
ATOM     33  H   LIG    1       27.870 -28.736   9.067  0.00  0.00    +0.292 HD
ENDBRANCH   4  32
BRANCH   7  34
ATOM     34  O   LIG    1       25.197 -32.860  10.331  0.00  0.00    -0.384 OA
ATOM     35  H   LIG    1       25.958 -32.459   9.875  0.00  0.00    +0.211 HD
ENDBRANCH   7  34
BRANCH  11  36
ATOM     36  O   LIG    1       24.366 -30.733   5.210  0.00  0.00    -0.506 OA
ATOM     37  H   LIG    1       24.889 -31.244   4.555  0.00  0.00    +0.292 HD
ENDBRANCH  11  36
BRANCH  21  38
ATOM     38  O   LIG    1       27.084 -28.477  15.411  0.00  0.00    -0.509 OA
ATOM     39  H   LIG    1       26.859 -27.516  15.415  0.00  0.00    +0.292 HD
ENDBRANCH  21  38
TORSDOF 7
ENDMDL
MODEL 2
REMARK VINA RESULT:      -5.2      4.299      6.893
REMARK  Name = *****
REMARK                            x       y       z     vdW  Elec       q    Type
REMARK                         _______ _______ _______ _____ _____    ______ ____
ROOT
ATOM      1  C   LIG    1       25.170 -29.695  11.564  0.00  0.00    +0.129 C 
ATOM      2  C   LIG    1       23.647 -29.908  11.836  0.00  0.00    +0.061 C 
ATOM      3  C   LIG    1       23.379 -31.148  12.701  0.00  0.00    +0.190 C 
ATOM      4  C   LIG    1       21.935 -31.231  13.153  0.00  0.00    +0.141 C 
ATOM      5  C   LIG    1       21.113 -30.161  13.191  0.00  0.00    +0.047 C 
ATOM      6  C   LIG    1       21.519 -28.767  12.768  0.00  0.00    +0.062 C 
ATOM      7  C   LIG    1       20.993 -27.681  13.766  0.00  0.00    +0.096 C 
ATOM      8  C   LIG    1       21.311 -26.277  13.212  0.00  0.00    +0.047 C 
ATOM      9  C   LIG    1       19.505 -27.874  14.061  0.00  0.00    -0.002 A 
ATOM     10  C   LIG    1       18.903 -29.145  13.970  0.00  0.00    +0.069 A 
ATOM     11  C   LIG    1       17.534 -29.301  14.263  0.00  0.00    +0.128 A 
ATOM     12  C   LIG    1       16.757 -28.216  14.649  0.00  0.00    +0.046 A 
ATOM     13  C   LIG    1       17.342 -26.964  14.774  0.00  0.00    +0.004 A 
ATOM     14  C   LIG    1       18.701 -26.797  14.493  0.00  0.00    +0.007 A 
ATOM     15  C   LIG    1       19.700 -30.342  13.617  0.00  0.00    +0.197 C 
ATOM     16  O   LIG    1       19.195 -31.464  13.685  0.00  0.00    -0.287 OA
ATOM     17  C   LIG    1       24.323 -31.089  13.920  0.00  0.00    +0.210 C 
ATOM     18  O   LIG    1       23.939 -30.910  15.075  0.00  0.00    -0.288 OA
ATOM     19  C   LIG    1       25.774 -31.122  13.599  0.00  0.00    +0.121 C 
ATOM     20  C   LIG    1       23.043 -28.655  12.509  0.00  0.00    +0.020 C 
ATOM     21  C   LIG    1       26.132 -30.453  12.484  0.00  0.00    +0.127 C 
ENDROOT
BRANCH  19  22
ATOM     22  C   LIG    1       26.693 -31.900  14.467  0.00  0.00    +0.248 C 
ATOM     23  O   LIG    1       27.840 -31.541  14.705  0.00  0.00    -0.270 OA
ATOM     24  N   LIG    1       26.195 -33.038  15.024  0.00  0.00    -0.325 N 
ATOM     25  H   LIG    1       25.198 -33.222  14.992  0.00  0.00    +0.145 HD
ATOM     26  H   LIG    1       26.770 -33.525  15.696  0.00  0.00    +0.145 HD
ENDBRANCH  19  22
BRANCH   1  28
ATOM     27  C   LIG    1       26.317 -28.676   9.651  0.00  0.00    +0.105 C 
ATOM     28  N   LIG    1       25.638 -29.871  10.157  0.00  0.00    -0.298 NA
ATOM     29  C   LIG    1       24.574 -30.273   9.227  0.00  0.00    +0.105 C 
ENDBRANCH   1  28
BRANCH   3  30
ATOM     30  O   LIG    1       23.640 -32.318  11.920  0.00  0.00    -0.373 OA
ATOM     31  H   LIG    1       23.051 -33.007  12.300  0.00  0.00    +0.211 HD
ENDBRANCH   3  30
BRANCH   4  32
ATOM     32  O   LIG    1       21.525 -32.527  13.449  0.00  0.00    -0.507 OA
ATOM     33  H   LIG    1       20.572 -32.614  13.222  0.00  0.00    +0.292 HD
ENDBRANCH   4  32
BRANCH   7  34
ATOM     34  O   LIG    1       21.720 -27.791  14.993  0.00  0.00    -0.384 OA
ATOM     35  H   LIG    1       21.711 -28.713  15.304  0.00  0.00    +0.211 HD
ENDBRANCH   7  34
BRANCH  11  36
ATOM     36  O   LIG    1       16.878 -30.503  14.199  0.00  0.00    -0.506 OA
ATOM     37  H   LIG    1       17.535 -31.223  14.323  0.00  0.00    +0.292 HD
ENDBRANCH  11  36
BRANCH  21  38
ATOM     38  O   LIG    1       27.453 -30.429  12.035  0.00  0.00    -0.509 OA
ATOM     39  H   LIG    1       27.402 -29.973  11.161  0.00  0.00    +0.292 HD
ENDBRANCH  21  38
TORSDOF 7
ENDMDL
MODEL 3
REMARK VINA RESULT:      -5.0      3.491      6.908
REMARK  Name = *****
REMARK                            x       y       z     vdW  Elec       q    Type
REMARK                         _______ _______ _______ _____ _____    ______ ____
ROOT
ATOM      1  C   LIG    1       24.503 -31.788   6.363  0.00  0.00    +0.129 C 
ATOM      2  C   LIG    1       24.741 -32.187   7.854  0.00  0.00    +0.061 C 
ATOM      3  C   LIG    1       25.591 -31.152   8.604  0.00  0.00    +0.190 C 
ATOM      4  C   LIG    1       25.635 -31.417  10.096  0.00  0.00    +0.141 C 
ATOM      5  C   LIG    1       24.708 -32.160  10.738  0.00  0.00    +0.047 C 
ATOM      6  C   LIG    1       23.540 -32.832  10.054  0.00  0.00    +0.062 C 
ATOM      7  C   LIG    1       22.215 -32.669  10.874  0.00  0.00    +0.096 C 
ATOM      8  C   LIG    1       21.094 -33.492  10.205  0.00  0.00    +0.047 C 
ATOM      9  C   LIG    1       22.422 -33.041  12.342  0.00  0.00    -0.002 A 
ATOM     10  C   LIG    1       23.687 -32.920  12.953  0.00  0.00    +0.069 A 
ATOM     11  C   LIG    1       23.850 -33.252  14.312  0.00  0.00    +0.128 A 
ATOM     12  C   LIG    1       22.777 -33.698  15.073  0.00  0.00    +0.046 A 
ATOM     13  C   LIG    1       21.519 -33.794  14.494  0.00  0.00    +0.004 A 
ATOM     14  C   LIG    1       21.342 -33.460  13.148  0.00  0.00    +0.007 A 
ATOM     15  C   LIG    1       24.850 -32.395  12.200  0.00  0.00    +0.197 C 
ATOM     16  O   LIG    1       25.908 -32.156  12.784  0.00  0.00    -0.287 OA
ATOM     17  C   LIG    1       24.995 -29.757   8.323  0.00  0.00    +0.210 C 
ATOM     18  O   LIG    1       24.438 -29.065   9.173  0.00  0.00    -0.288 OA
ATOM     19  C   LIG    1       25.010 -29.339   6.896  0.00  0.00    +0.121 C 
ATOM     20  C   LIG    1       23.390 -32.385   8.577  0.00  0.00    +0.020 C 
ATOM     21  C   LIG    1       24.773 -30.324   6.006  0.00  0.00    +0.127 C 
ENDROOT
BRANCH  19  22
ATOM     22  C   LIG    1       25.321 -27.928   6.554  0.00  0.00    +0.248 C 
ATOM     23  O   LIG    1       24.699 -27.301   5.705  0.00  0.00    -0.270 OA
ATOM     24  N   LIG    1       26.327 -27.335   7.254  0.00  0.00    -0.325 N 
ATOM     25  H   LIG    1       26.697 -27.784   8.085  0.00  0.00    +0.145 HD
ATOM     26  H   LIG    1       26.485 -26.349   7.108  0.00  0.00    +0.145 HD
ENDBRANCH  19  22
BRANCH   1  28
ATOM     27  C   LIG    1       24.162 -33.457   4.599  0.00  0.00    +0.105 C 
ATOM     28  N   LIG    1       25.145 -32.646   5.322  0.00  0.00    -0.298 NA
ATOM     29  C   LIG    1       26.216 -33.504   5.843  0.00  0.00    +0.105 C 
ENDBRANCH   1  28
BRANCH   3  30
ATOM     30  O   LIG    1       26.937 -31.230   8.127  0.00  0.00    -0.373 OA
ATOM     31  H   LIG    1       27.443 -30.623   8.710  0.00  0.00    +0.211 HD
ENDBRANCH   3  30
BRANCH   4  32
ATOM     32  O   LIG    1       26.761 -30.886  10.716  0.00  0.00    -0.507 OA
ATOM     33  H   LIG    1       27.441 -30.705  10.028  0.00  0.00    +0.292 HD
ENDBRANCH   4  32
BRANCH   7  34
ATOM     34  O   LIG    1       21.793 -31.304  10.802  0.00  0.00    -0.384 OA
ATOM     35  H   LIG    1       21.040 -31.221  10.191  0.00  0.00    +0.211 HD
ENDBRANCH   7  34
BRANCH  11  36
ATOM     36  O   LIG    1       25.046 -33.159  14.976  0.00  0.00    -0.506 OA
ATOM     37  H   LIG    1       25.400 -32.251  14.852  0.00  0.00    +0.292 HD
ENDBRANCH  11  36
BRANCH  21  38
ATOM     38  O   LIG    1       24.793 -30.090   4.630  0.00  0.00    -0.509 OA
ATOM     39  H   LIG    1       23.845 -30.143   4.363  0.00  0.00    +0.292 HD
ENDBRANCH  21  38
TORSDOF 7
ENDMDL
MODEL 4
REMARK VINA RESULT:      -5.0      1.237      1.495
REMARK  Name = *****
REMARK                            x       y       z     vdW  Elec       q    Type
REMARK                         _______ _______ _______ _____ _____    ______ ____
ROOT
ATOM      1  C   LIG    1       25.552 -27.436  13.818  0.00  0.00    +0.129 C 
ATOM      2  C   LIG    1       25.271 -28.059  12.413  0.00  0.00    +0.061 C 
ATOM      3  C   LIG    1       26.566 -28.411  11.665  0.00  0.00    +0.190 C 
ATOM      4  C   LIG    1       26.300 -29.216  10.409  0.00  0.00    +0.141 C 
ATOM      5  C   LIG    1       25.164 -29.918  10.210  0.00  0.00    +0.047 C 
ATOM      6  C   LIG    1       24.017 -29.966  11.194  0.00  0.00    +0.062 C 
ATOM      7  C   LIG    1       23.448 -31.417  11.352  0.00  0.00    +0.096 C 
ATOM      8  C   LIG    1       22.195 -31.381  12.252  0.00  0.00    +0.047 C 
ATOM      9  C   LIG    1       23.176 -32.056   9.990  0.00  0.00    -0.002 A 
ATOM     10  C   LIG    1       23.902 -31.669   8.846  0.00  0.00    +0.069 A 
ATOM     11  C   LIG    1       23.646 -32.285   7.605  0.00  0.00    +0.128 A 
ATOM     12  C   LIG    1       22.685 -33.281   7.486  0.00  0.00    +0.046 A 
ATOM     13  C   LIG    1       21.983 -33.694   8.609  0.00  0.00    +0.004 A 
ATOM     14  C   LIG    1       22.232 -33.096   9.848  0.00  0.00    +0.007 A 
ATOM     15  C   LIG    1       24.976 -30.653   8.932  0.00  0.00    +0.197 C 
ATOM     16  O   LIG    1       25.698 -30.433   7.959  0.00  0.00    -0.287 OA
ATOM     17  C   LIG    1       27.470 -29.203  12.632  0.00  0.00    +0.210 C 
ATOM     18  O   LIG    1       27.746 -30.393  12.493  0.00  0.00    -0.288 OA
ATOM     19  C   LIG    1       27.893 -28.464  13.851  0.00  0.00    +0.121 C 
ATOM     20  C   LIG    1       24.383 -29.315  12.553  0.00  0.00    +0.020 C 
ATOM     21  C   LIG    1       26.962 -27.644  14.379  0.00  0.00    +0.127 C 
ENDROOT
BRANCH  19  22
ATOM     22  C   LIG    1       29.277 -28.633  14.360  0.00  0.00    +0.248 C 
ATOM     23  O   LIG    1       29.617 -28.275  15.482  0.00  0.00    -0.270 OA
ATOM     24  N   LIG    1       30.168 -29.238  13.527  0.00  0.00    -0.325 N 
ATOM     25  H   LIG    1       29.838 -29.711  12.692  0.00  0.00    +0.145 HD
ATOM     26  H   LIG    1       31.084 -29.454  13.892  0.00  0.00    +0.145 HD
ENDBRANCH  19  22
BRANCH   1  28
ATOM     27  C   LIG    1       23.745 -25.778  13.849  0.00  0.00    +0.105 C 
ATOM     28  N   LIG    1       25.184 -26.000  14.008  0.00  0.00    -0.298 NA
ATOM     29  C   LIG    1       25.931 -25.081  13.140  0.00  0.00    +0.105 C 
ENDBRANCH   1  28
BRANCH   3  30
ATOM     30  O   LIG    1       27.204 -27.199  11.256  0.00  0.00    -0.373 OA
ATOM     31  H   LIG    1       27.990 -27.122  11.841  0.00  0.00    +0.211 HD
ENDBRANCH   3  30
BRANCH   4  32
ATOM     32  O   LIG    1       27.307 -29.097   9.457  0.00  0.00    -0.507 OA
ATOM     33  H   LIG    1       27.321 -28.169   9.130  0.00  0.00    +0.292 HD
ENDBRANCH   4  32
BRANCH   7  34
ATOM     34  O   LIG    1       24.407 -32.216  12.050  0.00  0.00    -0.384 OA
ATOM     35  H   LIG    1       24.160 -32.287  12.989  0.00  0.00    +0.211 HD
ENDBRANCH   7  34
BRANCH  11  36
ATOM     36  O   LIG    1       24.310 -31.965   6.449  0.00  0.00    -0.506 OA
ATOM     37  H   LIG    1       25.146 -31.508   6.688  0.00  0.00    +0.292 HD
ENDBRANCH  11  36
BRANCH  21  38
ATOM     38  O   LIG    1       27.227 -26.857  15.500  0.00  0.00    -0.509 OA
ATOM     39  H   LIG    1       27.613 -26.029  15.127  0.00  0.00    +0.292 HD
ENDBRANCH  21  38
TORSDOF 7
ENDMDL
MODEL 5
REMARK VINA RESULT:      -5.0      2.882      4.585
REMARK  Name = *****
REMARK                            x       y       z     vdW  Elec       q    Type
REMARK                         _______ _______ _______ _____ _____    ______ ____
ROOT
ATOM      1  C   LIG    1       23.552 -28.708  12.644  0.00  0.00    +0.129 C 
ATOM      2  C   LIG    1       24.561 -29.536  11.786  0.00  0.00    +0.061 C 
ATOM      3  C   LIG    1       24.622 -31.008  12.222  0.00  0.00    +0.190 C 
ATOM      4  C   LIG    1       25.424 -31.858  11.256  0.00  0.00    +0.141 C 
ATOM      5  C   LIG    1       25.659 -31.496   9.977  0.00  0.00    +0.047 C 
ATOM      6  C   LIG    1       25.181 -30.201   9.363  0.00  0.00    +0.062 C 
ATOM      7  C   LIG    1       24.611 -30.418   7.920  0.00  0.00    +0.096 C 
ATOM      8  C   LIG    1       24.272 -29.050   7.291  0.00  0.00    +0.047 C 
ATOM      9  C   LIG    1       25.575 -31.238   7.062  0.00  0.00    -0.002 A 
ATOM     10  C   LIG    1       26.471 -32.155   7.647  0.00  0.00    +0.069 A 
ATOM     11  C   LIG    1       27.337 -32.912   6.835  0.00  0.00    +0.128 A 
ATOM     12  C   LIG    1       27.323 -32.775   5.452  0.00  0.00    +0.046 A 
ATOM     13  C   LIG    1       26.426 -31.899   4.860  0.00  0.00    +0.004 A 
ATOM     14  C   LIG    1       25.555 -31.147   5.653  0.00  0.00    +0.007 A 
ATOM     15  C   LIG    1       26.485 -32.379   9.111  0.00  0.00    +0.197 C 
ATOM     16  O   LIG    1       27.166 -33.286   9.591  0.00  0.00    -0.287 OA
ATOM     17  C   LIG    1       23.175 -31.531  12.327  0.00  0.00    +0.210 C 
ATOM     18  O   LIG    1       22.694 -32.373  11.570  0.00  0.00    -0.288 OA
ATOM     19  C   LIG    1       22.325 -30.843  13.334  0.00  0.00    +0.121 C 
ATOM     20  C   LIG    1       24.194 -29.443  10.289  0.00  0.00    +0.020 C 
ATOM     21  C   LIG    1       22.532 -29.516  13.452  0.00  0.00    +0.127 C 
ENDROOT
BRANCH  19  22
ATOM     22  C   LIG    1       21.375 -31.641  14.150  0.00  0.00    +0.248 C 
ATOM     23  O   LIG    1       20.287 -31.206  14.510  0.00  0.00    -0.270 OA
ATOM     24  N   LIG    1       21.752 -32.910  14.466  0.00  0.00    -0.325 N 
ATOM     25  H   LIG    1       22.550 -33.331  14.001  0.00  0.00    +0.145 HD
ATOM     26  H   LIG    1       21.078 -33.500  14.932  0.00  0.00    +0.145 HD
ENDBRANCH  19  22
BRANCH   1  28
ATOM     27  C   LIG    1       23.499 -26.351  13.316  0.00  0.00    +0.105 C 
ATOM     28  N   LIG    1       24.124 -27.657  13.537  0.00  0.00    -0.298 NA
ATOM     29  C   LIG    1       25.584 -27.534  13.442  0.00  0.00    +0.105 C 
ENDBRANCH   1  28
BRANCH   3  30
ATOM     30  O   LIG    1       25.279 -31.085  13.490  0.00  0.00    -0.373 OA
ATOM     31  H   LIG    1       25.640 -31.997  13.527  0.00  0.00    +0.211 HD
ENDBRANCH   3  30
BRANCH   4  32
ATOM     32  O   LIG    1       25.952 -33.004  11.842  0.00  0.00    -0.507 OA
ATOM     33  H   LIG    1       26.900 -32.842  12.048  0.00  0.00    +0.292 HD
ENDBRANCH   4  32
BRANCH   7  34
ATOM     34  O   LIG    1       23.370 -31.122   8.014  0.00  0.00    -0.384 OA
ATOM     35  H   LIG    1       23.528 -32.036   8.309  0.00  0.00    +0.211 HD
ENDBRANCH   7  34
BRANCH  11  36
ATOM     36  O   LIG    1       28.234 -33.824   7.327  0.00  0.00    -0.506 OA
ATOM     37  H   LIG    1       28.845 -34.082   6.602  0.00  0.00    +0.292 HD
ENDBRANCH  11  36
BRANCH  21  38
ATOM     38  O   LIG    1       21.837 -28.745  14.384  0.00  0.00    -0.509 OA
ATOM     39  H   LIG    1       21.194 -28.231  13.840  0.00  0.00    +0.292 HD
ENDBRANCH  21  38
TORSDOF 7
ENDMDL
MODEL 6
REMARK VINA RESULT:      -5.0      2.442      4.133
REMARK  Name = *****
REMARK                            x       y       z     vdW  Elec       q    Type
REMARK                         _______ _______ _______ _____ _____    ______ ____
ROOT
ATOM      1  C   LIG    1       25.560 -28.378  12.836  0.00  0.00    +0.129 C 
ATOM      2  C   LIG    1       26.033 -29.348  11.707  0.00  0.00    +0.061 C 
ATOM      3  C   LIG    1       25.608 -30.800  11.972  0.00  0.00    +0.190 C 
ATOM      4  C   LIG    1       25.865 -31.699  10.780  0.00  0.00    +0.141 C 
ATOM      5  C   LIG    1       26.008 -31.231   9.521  0.00  0.00    +0.047 C 
ATOM      6  C   LIG    1       25.957 -29.765   9.154  0.00  0.00    +0.062 C 
ATOM      7  C   LIG    1       25.121 -29.523   7.851  0.00  0.00    +0.096 C 
ATOM      8  C   LIG    1       25.222 -28.037   7.446  0.00  0.00    +0.047 C 
ATOM      9  C   LIG    1       25.555 -30.469   6.731  0.00  0.00    -0.002 A 
ATOM     10  C   LIG    1       26.124 -31.726   7.018  0.00  0.00    +0.069 A 
ATOM     11  C   LIG    1       26.500 -32.588   5.970  0.00  0.00    +0.128 A 
ATOM     12  C   LIG    1       26.314 -32.223   4.643  0.00  0.00    +0.046 A 
ATOM     13  C   LIG    1       25.727 -31.002   4.344  0.00  0.00    +0.004 A 
ATOM     14  C   LIG    1       25.343 -30.139   5.375  0.00  0.00    +0.007 A 
ATOM     15  C   LIG    1       26.290 -32.185   8.417  0.00  0.00    +0.197 C 
ATOM     16  O   LIG    1       26.650 -33.340   8.650  0.00  0.00    -0.287 OA
ATOM     17  C   LIG    1       24.107 -30.796  12.331  0.00  0.00    +0.210 C 
ATOM     18  O   LIG    1       23.230 -31.276  11.615  0.00  0.00    -0.288 OA
ATOM     19  C   LIG    1       23.753 -30.037  13.559  0.00  0.00    +0.121 C 
ATOM     20  C   LIG    1       25.489 -28.881  10.338  0.00  0.00    +0.020 C 
ATOM     21  C   LIG    1       24.458 -28.905  13.760  0.00  0.00    +0.127 C 
ENDROOT
BRANCH  19  22
ATOM     22  C   LIG    1       22.718 -30.579  14.476  0.00  0.00    +0.248 C 
ATOM     23  O   LIG    1       21.928 -29.863  15.078  0.00  0.00    -0.270 OA
ATOM     24  N   LIG    1       22.662 -31.933  14.604  0.00  0.00    -0.325 N 
ATOM     25  H   LIG    1       23.173 -32.524  13.957  0.00  0.00    +0.145 HD
ATOM     26  H   LIG    1       21.902 -32.325  15.142  0.00  0.00    +0.145 HD
ENDBRANCH  19  22
BRANCH   1  28
ATOM     27  C   LIG    1       26.933 -26.392  13.263  0.00  0.00    +0.105 C 
ATOM     28  N   LIG    1       26.621 -27.759  13.686  0.00  0.00    -0.298 NA
ATOM     29  C   LIG    1       27.855 -28.553  13.760  0.00  0.00    +0.105 C 
ENDBRANCH   1  28
BRANCH   3  30
ATOM     30  O   LIG    1       26.384 -31.314  13.057  0.00  0.00    -0.373 OA
ATOM     31  H   LIG    1       25.986 -32.190  13.254  0.00  0.00    +0.211 HD
ENDBRANCH   3  30
BRANCH   4  32
ATOM     32  O   LIG    1       26.012 -33.039  11.124  0.00  0.00    -0.507 OA
ATOM     33  H   LIG    1       25.264 -33.297  11.708  0.00  0.00    +0.292 HD
ENDBRANCH   4  32
BRANCH   7  34
ATOM     34  O   LIG    1       23.740 -29.756   8.138  0.00  0.00    -0.384 OA
ATOM     35  H   LIG    1       23.300 -30.144   7.361  0.00  0.00    +0.211 HD
ENDBRANCH   7  34
BRANCH  11  36
ATOM     36  O   LIG    1       27.057 -33.825   6.169  0.00  0.00    -0.506 OA
ATOM     37  H   LIG    1       27.020 -34.031   7.128  0.00  0.00    +0.292 HD
ENDBRANCH  11  36
BRANCH  21  38
ATOM     38  O   LIG    1       24.263 -28.110  14.890  0.00  0.00    -0.509 OA
ATOM     39  H   LIG    1       25.140 -27.683  15.038  0.00  0.00    +0.292 HD
ENDBRANCH  21  38
TORSDOF 7
ENDMDL
MODEL 7
REMARK VINA RESULT:      -4.9      3.598      6.183
REMARK  Name = *****
REMARK                            x       y       z     vdW  Elec       q    Type
REMARK                         _______ _______ _______ _____ _____    ______ ____
ROOT
ATOM      1  C   LIG    1       26.798 -28.893  11.915  0.00  0.00    +0.129 C 
ATOM      2  C   LIG    1       25.345 -29.416  12.155  0.00  0.00    +0.061 C 
ATOM      3  C   LIG    1       25.312 -30.623  13.105  0.00  0.00    +0.190 C 
ATOM      4  C   LIG    1       23.900 -30.989  13.516  0.00  0.00    +0.141 C 
ATOM      5  C   LIG    1       22.865 -30.125  13.445  0.00  0.00    +0.047 C 
ATOM      6  C   LIG    1       22.979 -28.709  12.928  0.00  0.00    +0.062 C 
ATOM      7  C   LIG    1       22.183 -27.699  13.822  0.00  0.00    +0.096 C 
ATOM      8  C   LIG    1       22.216 -26.300  13.171  0.00  0.00    +0.047 C 
ATOM      9  C   LIG    1       20.760 -28.192  14.084  0.00  0.00    -0.002 A 
ATOM     10  C   LIG    1       20.452 -29.568  14.073  0.00  0.00    +0.069 A 
ATOM     11  C   LIG    1       19.138 -30.000  14.334  0.00  0.00    +0.128 A 
ATOM     12  C   LIG    1       18.127 -29.088  14.611  0.00  0.00    +0.046 A 
ATOM     13  C   LIG    1       18.420 -27.733  14.656  0.00  0.00    +0.004 A 
ATOM     14  C   LIG    1       19.723 -27.291  14.405  0.00  0.00    +0.007 A 
ATOM     15  C   LIG    1       21.506 -30.583  13.840  0.00  0.00    +0.197 C 
ATOM     16  O   LIG    1       21.253 -31.780  13.979  0.00  0.00    -0.287 OA
ATOM     17  C   LIG    1       26.161 -30.273  14.344  0.00  0.00    +0.210 C 
ATOM     18  O   LIG    1       25.693 -30.104  15.469  0.00  0.00    -0.288 OA
ATOM     19  C   LIG    1       27.598 -30.009  14.073  0.00  0.00    +0.121 C 
ATOM     20  C   LIG    1       24.453 -28.283  12.710  0.00  0.00    +0.020 C 
ATOM     21  C   LIG    1       27.856 -29.357  12.921  0.00  0.00    +0.127 C 
ENDROOT
BRANCH  19  22
ATOM     22  C   LIG    1       28.622 -30.505  15.027  0.00  0.00    +0.248 C 
ATOM     23  O   LIG    1       28.593 -31.635  15.499  0.00  0.00    -0.270 OA
ATOM     24  N   LIG    1       29.631 -29.648  15.344  0.00  0.00    -0.325 N 
ATOM     25  H   LIG    1       29.763 -28.800  14.803  0.00  0.00    +0.145 HD
ATOM     26  H   LIG    1       30.389 -30.001  15.910  0.00  0.00    +0.145 HD
ENDBRANCH  19  22
BRANCH   1  28
ATOM     27  C   LIG    1       26.687 -28.196   9.567  0.00  0.00    +0.105 C 
ATOM     28  N   LIG    1       27.359 -29.059  10.541  0.00  0.00    -0.298 NA
ATOM     29  C   LIG    1       27.353 -30.449  10.066  0.00  0.00    +0.105 C 
ENDBRANCH   1  28
BRANCH   3  30
ATOM     30  O   LIG    1       25.856 -31.757  12.425  0.00  0.00    -0.373 OA
ATOM     31  H   LIG    1       26.061 -31.432  11.522  0.00  0.00    +0.211 HD
ENDBRANCH   3  30
BRANCH   4  32
ATOM     32  O   LIG    1       23.767 -32.320  13.899  0.00  0.00    -0.507 OA
ATOM     33  H   LIG    1       23.570 -32.858  13.098  0.00  0.00    +0.292 HD
ENDBRANCH   4  32
BRANCH   7  34
ATOM     34  O   LIG    1       22.858 -27.561  15.076  0.00  0.00    -0.384 OA
ATOM     35  H   LIG    1       23.704 -28.043  15.053  0.00  0.00    +0.211 HD
ENDBRANCH   7  34
BRANCH  11  36
ATOM     36  O   LIG    1       18.761 -31.318  14.343  0.00  0.00    -0.506 OA
ATOM     37  H   LIG    1       19.521 -31.856  14.657  0.00  0.00    +0.292 HD
ENDBRANCH  11  36
BRANCH  21  38
ATOM     38  O   LIG    1       29.160 -29.074  12.513  0.00  0.00    -0.509 OA
ATOM     39  H   LIG    1       29.494 -29.933  12.162  0.00  0.00    +0.292 HD
ENDBRANCH  21  38
TORSDOF 7
ENDMDL
MODEL 8
REMARK VINA RESULT:      -4.8      9.697     12.651
REMARK  Name = *****
REMARK                            x       y       z     vdW  Elec       q    Type
REMARK                         _______ _______ _______ _____ _____    ______ ____
ROOT
ATOM      1  C   LIG    1       25.127 -20.926   4.655  0.00  0.00    +0.129 C 
ATOM      2  C   LIG    1       25.841 -20.208   5.844  0.00  0.00    +0.061 C 
ATOM      3  C   LIG    1       25.615 -20.931   7.179  0.00  0.00    +0.190 C 
ATOM      4  C   LIG    1       26.484 -20.371   8.288  0.00  0.00    +0.141 C 
ATOM      5  C   LIG    1       27.612 -19.668   8.055  0.00  0.00    +0.047 C 
ATOM      6  C   LIG    1       28.130 -19.332   6.675  0.00  0.00    +0.062 C 
ATOM      7  C   LIG    1       29.680 -19.531   6.572  0.00  0.00    +0.096 C 
ATOM      8  C   LIG    1       30.171 -19.040   5.194  0.00  0.00    +0.047 C 
ATOM      9  C   LIG    1       30.405 -18.849   7.732  0.00  0.00    -0.002 A 
ATOM     10  C   LIG    1       29.768 -18.651   8.974  0.00  0.00    +0.069 A 
ATOM     11  C   LIG    1       30.461 -18.034  10.034  0.00  0.00    +0.128 A 
ATOM     12  C   LIG    1       31.777 -17.617   9.880  0.00  0.00    +0.046 A 
ATOM     13  C   LIG    1       32.428 -17.833   8.674  0.00  0.00    +0.004 A 
ATOM     14  C   LIG    1       31.754 -18.450   7.616  0.00  0.00    +0.007 A 
ATOM     15  C   LIG    1       28.385 -19.129   9.205  0.00  0.00    +0.197 C 
ATOM     16  O   LIG    1       27.896 -19.081  10.335  0.00  0.00    -0.287 OA
ATOM     17  C   LIG    1       25.915 -22.429   6.964  0.00  0.00    +0.210 C 
ATOM     18  O   LIG    1       26.872 -23.015   7.467  0.00  0.00    -0.288 OA
ATOM     19  C   LIG    1       25.040 -23.114   5.977  0.00  0.00    +0.121 C 
ATOM     20  C   LIG    1       27.355 -20.082   5.561  0.00  0.00    +0.020 C 
ATOM     21  C   LIG    1       24.692 -22.374   4.905  0.00  0.00    +0.127 C 
ENDROOT
BRANCH  19  22
ATOM     22  C   LIG    1       24.582 -24.499   6.250  0.00  0.00    +0.248 C 
ATOM     23  O   LIG    1       23.424 -24.766   6.550  0.00  0.00    -0.270 OA
ATOM     24  N   LIG    1       25.509 -25.488   6.125  0.00  0.00    -0.325 N 
ATOM     25  H   LIG    1       26.401 -25.291   5.683  0.00  0.00    +0.145 HD
ATOM     26  H   LIG    1       25.194 -26.444   6.206  0.00  0.00    +0.145 HD
ENDBRANCH  19  22
BRANCH   1  28
ATOM     27  C   LIG    1       24.406 -18.921   3.441  0.00  0.00    +0.105 C 
ATOM     28  N   LIG    1       23.988 -20.204   4.012  0.00  0.00    -0.298 NA
ATOM     29  C   LIG    1       22.839 -20.003   4.904  0.00  0.00    +0.105 C 
ENDBRANCH   1  28
BRANCH   3  30
ATOM     30  O   LIG    1       24.255 -20.743   7.580  0.00  0.00    -0.373 OA
ATOM     31  H   LIG    1       24.062 -19.803   7.371  0.00  0.00    +0.211 HD
ENDBRANCH   3  30
BRANCH   4  32
ATOM     32  O   LIG    1       25.962 -20.590   9.559  0.00  0.00    -0.507 OA
ATOM     33  H   LIG    1       25.009 -20.821   9.471  0.00  0.00    +0.292 HD
ENDBRANCH   4  32
BRANCH   7  34
ATOM     34  O   LIG    1       29.970 -20.932   6.613  0.00  0.00    -0.384 OA
ATOM     35  H   LIG    1       30.642 -21.152   5.944  0.00  0.00    +0.211 HD
ENDBRANCH   7  34
BRANCH  11  36
ATOM     36  O   LIG    1       29.911 -17.809  11.269  0.00  0.00    -0.506 OA
ATOM     37  H   LIG    1       29.858 -16.838  11.412  0.00  0.00    +0.292 HD
ENDBRANCH  11  36
BRANCH  21  38
ATOM     38  O   LIG    1       23.843 -22.869   3.915  0.00  0.00    -0.509 OA
ATOM     39  H   LIG    1       23.202 -23.435   4.408  0.00  0.00    +0.292 HD
ENDBRANCH  21  38
TORSDOF 7
ENDMDL
MODEL 9
REMARK VINA RESULT:      -4.8      3.296      7.785
REMARK  Name = *****
REMARK                            x       y       z     vdW  Elec       q    Type
REMARK                         _______ _______ _______ _____ _____    ______ ____
ROOT
ATOM      1  C   LIG    1       24.087 -31.405  11.539  0.00  0.00    +0.129 C 
ATOM      2  C   LIG    1       24.384 -29.906  11.865  0.00  0.00    +0.061 C 
ATOM      3  C   LIG    1       23.207 -29.222  12.575  0.00  0.00    +0.190 C 
ATOM      4  C   LIG    1       23.572 -27.844  13.091  0.00  0.00    +0.141 C 
ATOM      5  C   LIG    1       24.845 -27.454  13.312  0.00  0.00    +0.047 C 
ATOM      6  C   LIG    1       26.054 -28.324  13.052  0.00  0.00    +0.062 C 
ATOM      7  C   LIG    1       27.103 -28.222  14.210  0.00  0.00    +0.096 C 
ATOM      8  C   LIG    1       28.371 -29.014  13.825  0.00  0.00    +0.047 C 
ATOM      9  C   LIG    1       27.403 -26.764  14.558  0.00  0.00    -0.002 A 
ATOM     10  C   LIG    1       26.449 -25.751  14.336  0.00  0.00    +0.069 A 
ATOM     11  C   LIG    1       26.742 -24.417  14.681  0.00  0.00    +0.128 A 
ATOM     12  C   LIG    1       27.964 -24.077  15.247  0.00  0.00    +0.046 A 
ATOM     13  C   LIG    1       28.902 -25.067  15.500  0.00  0.00    +0.004 A 
ATOM     14  C   LIG    1       28.621 -26.396  15.169  0.00  0.00    +0.007 A 
ATOM     15  C   LIG    1       25.111 -26.071  13.788  0.00  0.00    +0.197 C 
ATOM     16  O   LIG    1       24.239 -25.202  13.738  0.00  0.00    -0.287 OA
ATOM     17  C   LIG    1       22.761 -30.132  13.738  0.00  0.00    +0.210 C 
ATOM     18  O   LIG    1       22.898 -29.843  14.925  0.00  0.00    -0.288 OA
ATOM     19  C   LIG    1       22.269 -31.476  13.336  0.00  0.00    +0.121 C 
ATOM     20  C   LIG    1       25.661 -29.789  12.727  0.00  0.00    +0.020 C 
ATOM     21  C   LIG    1       22.919 -32.041  12.299  0.00  0.00    +0.127 C 
ENDROOT
BRANCH  19  22
ATOM     22  C   LIG    1       21.104 -32.065  14.044  0.00  0.00    +0.248 C 
ATOM     23  O   LIG    1       20.971 -33.272  14.207  0.00  0.00    -0.270 OA
ATOM     24  N   LIG    1       20.183 -31.194  14.541  0.00  0.00    -0.325 N 
ATOM     25  H   LIG    1       20.396 -30.203  14.584  0.00  0.00    +0.145 HD
ATOM     26  H   LIG    1       19.440 -31.569  15.112  0.00  0.00    +0.145 HD
ENDBRANCH  19  22
BRANCH   1  28
ATOM     27  C   LIG    1       25.109 -32.545   9.624  0.00  0.00    +0.105 C 
ATOM     28  N   LIG    1       23.958 -31.772  10.097  0.00  0.00    -0.298 NA
ATOM     29  C   LIG    1       23.730 -30.622   9.214  0.00  0.00    +0.105 C 
ENDBRANCH   1  28
BRANCH   3  30
ATOM     30  O   LIG    1       22.143 -29.047  11.636  0.00  0.00    -0.373 OA
ATOM     31  H   LIG    1       22.357 -29.662  10.900  0.00  0.00    +0.211 HD
ENDBRANCH   3  30
BRANCH   4  32
ATOM     32  O   LIG    1       22.473 -27.004  13.238  0.00  0.00    -0.507 OA
ATOM     33  H   LIG    1       21.759 -27.500  13.699  0.00  0.00    +0.292 HD
ENDBRANCH   4  32
BRANCH   7  34
ATOM     34  O   LIG    1       26.575 -28.871  15.370  0.00  0.00    -0.384 OA
ATOM     35  H   LIG    1       26.723 -29.831  15.310  0.00  0.00    +0.211 HD
ENDBRANCH   7  34
BRANCH  11  36
ATOM     36  O   LIG    1       25.867 -23.378  14.498  0.00  0.00    -0.506 OA
ATOM     37  H   LIG    1       26.383 -22.542  14.453  0.00  0.00    +0.292 HD
ENDBRANCH  11  36
BRANCH  21  38
ATOM     38  O   LIG    1       22.543 -33.283  11.786  0.00  0.00    -0.509 OA
ATOM     39  H   LIG    1       23.018 -33.341  10.923  0.00  0.00    +0.292 HD
ENDBRANCH  21  38
TORSDOF 7
ENDMDL
