MODEL 1
REMARK VINA RESULT:      -3.7      0.000      0.000
REMARK  Name = *****
REMARK                            x       y       z     vdW  Elec       q    Type
REMARK                         _______ _______ _______ _____ _____    ______ ____
ROOT
ATOM      1  C   LIG    1       25.476 -13.501   2.188  0.00  0.00    +0.282 C 
ENDROOT
BRANCH   1   2
ATOM      2  O   LIG    1       24.156 -13.054   2.553  0.00  0.00    -0.459 OA
BRANCH   2   4
ATOM      3  C   LIG    1       23.668 -14.573   4.287  0.00  0.00    +0.136 C 
ATOM      4  C   LIG    1       23.866 -13.140   3.882  0.00  0.00    +0.304 C 
ATOM      5  O   LIG    1       23.784 -12.184   4.620  0.00  0.00    -0.251 OA
ENDBRANCH   2   4
ENDBRANCH   1   2
BRANCH   1   6
ATOM      6  C   LIG    1       26.609 -12.757   2.915  0.00  0.00    +0.174 C 
BRANCH   6   7
ATOM      7  N   LIG    1       27.446 -13.607   3.916  0.00  0.00    +0.239 N 
ATOM      8  C   LIG    1       27.332 -15.097   3.627  0.00  0.00    +0.192 C 
ATOM      9  C   LIG    1       27.032 -13.374   5.363  0.00  0.00    +0.192 C 
ATOM     10  C   LIG    1       28.920 -13.210   3.741  0.00  0.00    +0.192 C 
ENDBRANCH   6   7
ENDBRANCH   1   6
TORSDOF 4
ENDMDL
MODEL 2
REMARK VINA RESULT:      -3.4      1.207      1.933
REMARK  Name = *****
REMARK                            x       y       z     vdW  Elec       q    Type
REMARK                         _______ _______ _______ _____ _____    ______ ____
ROOT
ATOM      1  C   LIG    1       24.588 -14.158   4.331  0.00  0.00    +0.282 C 
ENDROOT
BRANCH   1   2
ATOM      2  O   LIG    1       23.752 -13.430   3.411  0.00  0.00    -0.459 OA
BRANCH   2   4
ATOM      3  C   LIG    1       24.239 -11.481   2.180  0.00  0.00    +0.136 C 
ATOM      4  C   LIG    1       23.840 -12.073   3.502  0.00  0.00    +0.304 C 
ATOM      5  O   LIG    1       23.623 -11.447   4.515  0.00  0.00    -0.251 OA
ENDBRANCH   2   4
ENDBRANCH   1   2
BRANCH   1   6
ATOM      6  C   LIG    1       25.966 -13.514   4.564  0.00  0.00    +0.174 C 
BRANCH   6   7
ATOM      7  N   LIG    1       27.135 -14.086   3.709  0.00  0.00    +0.239 N 
ATOM      8  C   LIG    1       26.828 -14.029   2.220  0.00  0.00    +0.192 C 
ATOM      9  C   LIG    1       27.465 -15.529   4.069  0.00  0.00    +0.192 C 
ATOM     10  C   LIG    1       28.369 -13.206   3.964  0.00  0.00    +0.192 C 
ENDBRANCH   6   7
ENDBRANCH   1   6
TORSDOF 4
ENDMDL
MODEL 3
REMARK VINA RESULT:      -3.4      6.927      8.329
REMARK  Name = *****
REMARK                            x       y       z     vdW  Elec       q    Type
REMARK                         _______ _______ _______ _____ _____    ______ ____
ROOT
ATOM      1  C   LIG    1       26.304 -20.860   5.997  0.00  0.00    +0.282 C 
ENDROOT
BRANCH   1   2
ATOM      2  O   LIG    1       27.147 -20.072   6.859  0.00  0.00    -0.459 OA
BRANCH   2   4
ATOM      3  C   LIG    1       29.121 -19.095   6.022  0.00  0.00    +0.136 C 
ATOM      4  C   LIG    1       28.485 -20.275   6.700  0.00  0.00    +0.304 C 
ATOM      5  O   LIG    1       29.065 -21.274   7.062  0.00  0.00    -0.251 OA
ENDBRANCH   2   4
ENDBRANCH   1   2
BRANCH   1   6
ATOM      6  C   LIG    1       25.710 -20.073   4.816  0.00  0.00    +0.174 C 
BRANCH   6   7
ATOM      7  N   LIG    1       24.177 -20.233   4.597  0.00  0.00    +0.239 N 
ATOM      8  C   LIG    1       23.853 -21.429   3.714  0.00  0.00    +0.192 C 
ATOM      9  C   LIG    1       23.548 -18.996   3.966  0.00  0.00    +0.192 C 
ATOM     10  C   LIG    1       23.536 -20.481   5.971  0.00  0.00    +0.192 C 
ENDBRANCH   6   7
ENDBRANCH   1   6
TORSDOF 4
ENDMDL
MODEL 4
REMARK VINA RESULT:      -3.4      3.209      3.992
REMARK  Name = *****
REMARK                            x       y       z     vdW  Elec       q    Type
REMARK                         _______ _______ _______ _____ _____    ______ ____
ROOT
ATOM      1  C   LIG    1       25.846 -16.336   3.293  0.00  0.00    +0.282 C 
ENDROOT
BRANCH   1   2
ATOM      2  O   LIG    1       26.060 -17.745   3.085  0.00  0.00    -0.459 OA
BRANCH   2   4
ATOM      3  C   LIG    1       25.726 -19.782   4.221  0.00  0.00    +0.136 C 
ATOM      4  C   LIG    1       25.102 -18.557   3.615  0.00  0.00    +0.304 C 
ATOM      5  O   LIG    1       23.917 -18.310   3.594  0.00  0.00    -0.251 OA
ENDBRANCH   2   4
ENDBRANCH   1   2
BRANCH   1   6
ATOM      6  C   LIG    1       27.117 -15.565   3.690  0.00  0.00    +0.174 C 
BRANCH   6   7
ATOM      7  N   LIG    1       26.985 -14.014   3.728  0.00  0.00    +0.239 N 
ATOM      8  C   LIG    1       28.344 -13.330   3.746  0.00  0.00    +0.192 C 
ATOM      9  C   LIG    1       26.197 -13.528   4.938  0.00  0.00    +0.192 C 
ATOM     10  C   LIG    1       26.262 -13.578   2.445  0.00  0.00    +0.192 C 
ENDBRANCH   6   7
ENDBRANCH   1   6
TORSDOF 4
ENDMDL
MODEL 5
REMARK VINA RESULT:      -3.4      6.979      8.376
REMARK  Name = *****
REMARK                            x       y       z     vdW  Elec       q    Type
REMARK                         _______ _______ _______ _____ _____    ______ ____
ROOT
ATOM      1  C   LIG    1       26.291 -20.886   6.002  0.00  0.00    +0.282 C 
ENDROOT
BRANCH   1   2
ATOM      2  O   LIG    1       27.131 -20.151   6.911  0.00  0.00    -0.459 OA
BRANCH   2   4
ATOM      3  C   LIG    1       29.085 -19.125   6.084  0.00  0.00    +0.136 C 
ATOM      4  C   LIG    1       28.470 -20.333   6.734  0.00  0.00    +0.304 C 
ATOM      5  O   LIG    1       29.067 -21.334   7.061  0.00  0.00    -0.251 OA
ENDBRANCH   2   4
ENDBRANCH   1   2
BRANCH   1   6
ATOM      6  C   LIG    1       24.800 -20.514   6.091  0.00  0.00    +0.174 C 
BRANCH   6   7
ATOM      7  N   LIG    1       24.103 -20.179   4.739  0.00  0.00    +0.239 N 
ATOM      8  C   LIG    1       24.943 -19.242   3.885  0.00  0.00    +0.192 C 
ATOM      9  C   LIG    1       22.734 -19.540   4.936  0.00  0.00    +0.192 C 
ATOM     10  C   LIG    1       23.940 -21.496   3.964  0.00  0.00    +0.192 C 
ENDBRANCH   6   7
ENDBRANCH   1   6
TORSDOF 4
ENDMDL
MODEL 6
REMARK VINA RESULT:      -3.2      3.730      4.520
REMARK  Name = *****
REMARK                            x       y       z     vdW  Elec       q    Type
REMARK                         _______ _______ _______ _____ _____    ______ ____
ROOT
ATOM      1  C   LIG    1       25.383 -16.857   3.370  0.00  0.00    +0.282 C 
ENDROOT
BRANCH   1   2
ATOM      2  O   LIG    1       25.995 -18.158   3.283  0.00  0.00    -0.459 OA
BRANCH   2   4
ATOM      3  C   LIG    1       23.802 -18.928   3.672  0.00  0.00    +0.136 C 
ATOM      4  C   LIG    1       25.275 -19.171   3.842  0.00  0.00    +0.304 C 
ATOM      5  O   LIG    1       25.770 -20.128   4.394  0.00  0.00    -0.251 OA
ENDBRANCH   2   4
ENDBRANCH   1   2
BRANCH   1   6
ATOM      6  C   LIG    1       26.391 -15.695   3.405  0.00  0.00    +0.174 C 
BRANCH   6   7
ATOM      7  N   LIG    1       25.796 -14.289   3.714  0.00  0.00    +0.239 N 
ATOM      8  C   LIG    1       26.524 -13.606   4.862  0.00  0.00    +0.192 C 
ATOM      9  C   LIG    1       24.315 -14.350   4.063  0.00  0.00    +0.192 C 
ATOM     10  C   LIG    1       25.985 -13.421   2.460  0.00  0.00    +0.192 C 
ENDBRANCH   6   7
ENDBRANCH   1   6
TORSDOF 4
ENDMDL
MODEL 7
REMARK VINA RESULT:      -3.2      3.706      4.550
REMARK  Name = *****
REMARK                            x       y       z     vdW  Elec       q    Type
REMARK                         _______ _______ _______ _____ _____    ______ ____
ROOT
ATOM      1  C   LIG    1       25.390 -16.824   3.369  0.00  0.00    +0.282 C 
ENDROOT
BRANCH   1   2
ATOM      2  O   LIG    1       25.988 -18.131   3.267  0.00  0.00    -0.459 OA
BRANCH   2   4
ATOM      3  C   LIG    1       23.789 -18.871   3.681  0.00  0.00    +0.136 C 
ATOM      4  C   LIG    1       25.261 -19.141   3.822  0.00  0.00    +0.304 C 
ATOM      5  O   LIG    1       25.748 -20.116   4.350  0.00  0.00    -0.251 OA
ENDBRANCH   2   4
ENDBRANCH   1   2
BRANCH   1   6
ATOM      6  C   LIG    1       26.411 -15.673   3.405  0.00  0.00    +0.174 C 
BRANCH   6   7
ATOM      7  N   LIG    1       25.830 -14.260   3.707  0.00  0.00    +0.239 N 
ATOM      8  C   LIG    1       25.934 -13.336   2.503  0.00  0.00    +0.192 C 
ATOM      9  C   LIG    1       26.526 -13.585   4.882  0.00  0.00    +0.192 C 
ATOM     10  C   LIG    1       24.338 -14.433   4.034  0.00  0.00    +0.192 C 
ENDBRANCH   6   7
ENDBRANCH   1   6
TORSDOF 4
ENDMDL
MODEL 8
REMARK VINA RESULT:      -3.1      4.429      5.554
REMARK  Name = *****
REMARK                            x       y       z     vdW  Elec       q    Type
REMARK                         _______ _______ _______ _____ _____    ______ ____
ROOT
ATOM      1  C   LIG    1       25.341 -17.308   3.304  0.00  0.00    +0.282 C 
ENDROOT
BRANCH   1   2
ATOM      2  O   LIG    1       26.485 -16.435   3.247  0.00  0.00    -0.459 OA
BRANCH   2   4
ATOM      3  C   LIG    1       25.180 -14.602   3.946  0.00  0.00    +0.136 C 
ATOM      4  C   LIG    1       26.200 -15.130   2.978  0.00  0.00    +0.304 C 
ATOM      5  O   LIG    1       26.709 -14.497   2.080  0.00  0.00    -0.251 OA
ENDBRANCH   2   4
ENDBRANCH   1   2
BRANCH   1   6
ATOM      6  C   LIG    1       25.687 -18.765   3.659  0.00  0.00    +0.174 C 
BRANCH   6   7
ATOM      7  N   LIG    1       24.482 -19.674   4.042  0.00  0.00    +0.239 N 
ATOM      8  C   LIG    1       24.287 -20.806   3.044  0.00  0.00    +0.192 C 
ATOM      9  C   LIG    1       23.175 -18.897   4.135  0.00  0.00    +0.192 C 
ATOM     10  C   LIG    1       24.794 -20.305   5.407  0.00  0.00    +0.192 C 
ENDBRANCH   6   7
ENDBRANCH   1   6
TORSDOF 4
ENDMDL
MODEL 9
REMARK VINA RESULT:      -3.1      6.947      8.188
REMARK  Name = *****
REMARK                            x       y       z     vdW  Elec       q    Type
REMARK                         _______ _______ _______ _____ _____    ______ ____
ROOT
ATOM      1  C   LIG    1       25.320 -19.766   4.520  0.00  0.00    +0.282 C 
ENDROOT
BRANCH   1   2
ATOM      2  O   LIG    1       26.518 -20.511   4.810  0.00  0.00    -0.459 OA
BRANCH   2   4
ATOM      3  C   LIG    1       28.542 -19.666   5.670  0.00  0.00    +0.136 C 
ATOM      4  C   LIG    1       27.152 -20.156   5.963  0.00  0.00    +0.304 C 
ATOM      5  O   LIG    1       26.650 -20.231   7.062  0.00  0.00    -0.251 OA
ENDBRANCH   2   4
ENDBRANCH   1   2
BRANCH   1   6
ATOM      6  C   LIG    1       24.096 -20.649   4.215  0.00  0.00    +0.174 C 
BRANCH   6   7
ATOM      7  N   LIG    1       22.843 -20.402   5.105  0.00  0.00    +0.239 N 
ATOM      8  C   LIG    1       23.174 -20.492   6.587  0.00  0.00    +0.192 C 
ATOM      9  C   LIG    1       21.719 -21.388   4.812  0.00  0.00    +0.192 C 
ATOM     10  C   LIG    1       22.349 -18.974   4.824  0.00  0.00    +0.192 C 
ENDBRANCH   6   7
ENDBRANCH   1   6
TORSDOF 4
ENDMDL
