MODEL 1
REMARK VINA RESULT:      -4.0      0.000      0.000
REMARK  Name = *****
REMARK                            x       y       z     vdW  Elec       q    Type
REMARK                         _______ _______ _______ _____ _____    ______ ____
ROOT
ATOM      1  N   LIG    1       24.641 -20.767   3.997  0.00  0.00    -0.180 NA
ATOM      2  C   LIG    1       23.679 -20.005   3.553  0.00  0.00    +0.177 C 
ENDROOT
BRANCH   1   9
ATOM      3  O   LIG    1       28.507 -19.802   6.526  0.00  0.00    -0.274 OA
ATOM      4  C   LIG    1       27.351 -20.036   6.209  0.00  0.00    +0.240 C 
ATOM      5  N   LIG    1       26.368 -20.419   7.062  0.00  0.00    -0.237 N 
ATOM      6  H   LIG    1       26.513 -20.613   8.038  0.00  0.00    +0.159 HD
ATOM      7  C   LIG    1       25.269 -20.815   6.365  0.00  0.00    +0.328 C 
ATOM      8  O   LIG    1       24.366 -21.503   6.825  0.00  0.00    -0.250 OA
ATOM      9  N   LIG    1       25.422 -20.355   5.039  0.00  0.00    -0.168 N 
ATOM     10  C   LIG    1       26.810 -20.038   4.795  0.00  0.00    +0.232 C 
ENDBRANCH   1   9
BRANCH   2  11
ATOM     11  C   LIG    1       23.302 -18.654   3.898  0.00  0.00    +0.154 A 
ATOM     12  O   LIG    1       24.140 -17.605   3.633  0.00  0.00    -0.399 OA
ATOM     13  C   LIG    1       23.554 -16.495   4.142  0.00  0.00    +0.438 A 
ATOM     14  C   LIG    1       22.310 -16.769   4.653  0.00  0.00    +0.132 A 
ATOM     15  C   LIG    1       22.143 -18.169   4.489  0.00  0.00    +0.058 A 
BRANCH  13  16
ATOM     16  N   LIG    1       24.315 -15.290   4.060  0.00  0.00    +0.119 N 
ATOM     17  O   LIG    1       25.475 -15.365   3.631  0.00  0.00    -0.574 OA
ATOM     18  O   LIG    1       23.743 -14.254   4.426  0.00  0.00    +0.045 OA
ENDBRANCH  13  16
ENDBRANCH   2  11
TORSDOF 3
ENDMDL
MODEL 2
REMARK VINA RESULT:      -3.9      2.845      6.047
REMARK  Name = *****
REMARK                            x       y       z     vdW  Elec       q    Type
REMARK                         _______ _______ _______ _____ _____    ______ ____
ROOT
ATOM      1  N   LIG    1       24.158 -14.088   4.426  0.00  0.00    -0.180 NA
ATOM      2  C   LIG    1       23.549 -15.241   4.429  0.00  0.00    +0.177 C 
ENDROOT
BRANCH   1   9
ATOM      3  O   LIG    1       28.748 -13.044   4.091  0.00  0.00    -0.274 OA
ATOM      4  C   LIG    1       27.594 -13.320   3.808  0.00  0.00    +0.240 C 
ATOM      5  N   LIG    1       27.031 -13.169   2.583  0.00  0.00    -0.237 N 
ATOM      6  H   LIG    1       27.497 -12.749   1.797  0.00  0.00    +0.159 HD
ATOM      7  C   LIG    1       25.686 -13.351   2.658  0.00  0.00    +0.328 C 
ATOM      8  O   LIG    1       24.885 -12.969   1.812  0.00  0.00    -0.250 OA
ATOM      9  N   LIG    1       25.412 -13.971   3.896  0.00  0.00    -0.168 N 
ATOM     10  C   LIG    1       26.537 -13.794   4.784  0.00  0.00    +0.232 C 
ENDBRANCH   1   9
BRANCH   2  11
ATOM     11  C   LIG    1       24.006 -16.557   4.046  0.00  0.00    +0.154 A 
ATOM     12  O   LIG    1       23.234 -17.662   4.283  0.00  0.00    -0.399 OA
ATOM     13  C   LIG    1       23.960 -18.740   3.897  0.00  0.00    +0.438 A 
ATOM     14  C   LIG    1       25.151 -18.369   3.325  0.00  0.00    +0.132 A 
ATOM     15  C   LIG    1       25.179 -16.952   3.415  0.00  0.00    +0.058 A 
BRANCH  13  16
ATOM     16  N   LIG    1       23.372 -20.016   4.152  0.00  0.00    +0.119 N 
ATOM     17  O   LIG    1       23.918 -21.014   3.661  0.00  0.00    -0.574 OA
ATOM     18  O   LIG    1       22.353 -20.019   4.855  0.00  0.00    +0.045 OA
ENDBRANCH  13  16
ENDBRANCH   2  11
TORSDOF 3
ENDMDL
MODEL 3
REMARK VINA RESULT:      -3.9      1.709      2.135
REMARK  Name = *****
REMARK                            x       y       z     vdW  Elec       q    Type
REMARK                         _______ _______ _______ _____ _____    ______ ____
ROOT
ATOM      1  N   LIG    1       25.187 -19.895   3.723  0.00  0.00    -0.180 NA
ATOM      2  C   LIG    1       25.069 -18.777   3.061  0.00  0.00    +0.177 C 
ENDROOT
BRANCH   1   9
ATOM      3  O   LIG    1       28.438 -20.640   7.062  0.00  0.00    -0.274 OA
ATOM      4  C   LIG    1       27.378 -20.421   6.497  0.00  0.00    +0.240 C 
ATOM      5  N   LIG    1       26.151 -20.544   7.062  0.00  0.00    -0.237 N 
ATOM      6  H   LIG    1       25.991 -20.896   7.990  0.00  0.00    +0.159 HD
ATOM      7  C   LIG    1       25.184 -20.448   6.110  0.00  0.00    +0.328 C 
ATOM      8  O   LIG    1       24.030 -20.835   6.251  0.00  0.00    -0.250 OA
ATOM      9  N   LIG    1       25.784 -19.909   4.951  0.00  0.00    -0.168 N 
ATOM     10  C   LIG    1       27.218 -20.061   5.035  0.00  0.00    +0.232 C 
ENDBRANCH   1   9
BRANCH   2  11
ATOM     11  C   LIG    1       25.574 -17.452   3.336  0.00  0.00    +0.154 A 
ATOM     12  O   LIG    1       24.724 -16.435   3.674  0.00  0.00    -0.399 OA
ATOM     13  C   LIG    1       25.475 -15.313   3.785  0.00  0.00    +0.438 A 
ATOM     14  C   LIG    1       26.811 -15.582   3.622  0.00  0.00    +0.132 A 
ATOM     15  C   LIG    1       26.877 -16.972   3.338  0.00  0.00    +0.058 A 
BRANCH  13  16
ATOM     16  N   LIG    1       24.762 -14.102   4.037  0.00  0.00    +0.119 N 
ATOM     17  O   LIG    1       25.374 -13.173   4.582  0.00  0.00    -0.574 OA
ATOM     18  O   LIG    1       23.576 -14.081   3.683  0.00  0.00    +0.045 OA
ENDBRANCH  13  16
ENDBRANCH   2  11
TORSDOF 3
ENDMDL
MODEL 4
REMARK VINA RESULT:      -3.8      2.626      5.999
REMARK  Name = *****
REMARK                            x       y       z     vdW  Elec       q    Type
REMARK                         _______ _______ _______ _____ _____    ______ ____
ROOT
ATOM      1  N   LIG    1       26.466 -15.715   3.101  0.00  0.00    -0.180 NA
ATOM      2  C   LIG    1       26.135 -16.972   3.207  0.00  0.00    +0.177 C 
ENDROOT
BRANCH   1   9
ATOM      3  O   LIG    1       23.681 -11.905   3.129  0.00  0.00    -0.274 OA
ATOM      4  C   LIG    1       24.401 -12.823   3.487  0.00  0.00    +0.240 C 
ATOM      5  N   LIG    1       25.020 -12.908   4.691  0.00  0.00    -0.237 N 
ATOM      6  H   LIG    1       24.998 -12.183   5.388  0.00  0.00    +0.159 HD
ATOM      7  C   LIG    1       25.919 -13.929   4.687  0.00  0.00    +0.328 C 
ATOM      8  O   LIG    1       26.838 -14.048   5.488  0.00  0.00    -0.250 OA
ATOM      9  N   LIG    1       25.631 -14.740   3.568  0.00  0.00    -0.168 N 
ATOM     10  C   LIG    1       24.822 -13.997   2.629  0.00  0.00    +0.232 C 
ENDBRANCH   1   9
BRANCH   2  11
ATOM     11  C   LIG    1       24.915 -17.597   3.662  0.00  0.00    +0.154 A 
ATOM     12  O   LIG    1       24.849 -18.952   3.843  0.00  0.00    -0.399 OA
ATOM     13  C   LIG    1       23.571 -19.242   4.186  0.00  0.00    +0.438 A 
ATOM     14  C   LIG    1       22.815 -18.105   4.328  0.00  0.00    +0.132 A 
ATOM     15  C   LIG    1       23.689 -17.037   3.995  0.00  0.00    +0.058 A 
BRANCH  13  16
ATOM     16  N   LIG    1       23.258 -20.628   4.327  0.00  0.00    +0.119 N 
ATOM     17  O   LIG    1       22.187 -20.928   4.875  0.00  0.00    -0.574 OA
ATOM     18  O   LIG    1       24.092 -21.427   3.880  0.00  0.00    +0.045 OA
ENDBRANCH  13  16
ENDBRANCH   2  11
TORSDOF 3
ENDMDL
MODEL 5
REMARK VINA RESULT:      -3.6      3.217      5.807
REMARK  Name = *****
REMARK                            x       y       z     vdW  Elec       q    Type
REMARK                         _______ _______ _______ _____ _____    ______ ____
ROOT
ATOM      1  N   LIG    1       27.030 -15.322   3.296  0.00  0.00    -0.180 NA
ATOM      2  C   LIG    1       26.905 -16.620   3.322  0.00  0.00    +0.177 C 
ENDROOT
BRANCH   1   9
ATOM      3  O   LIG    1       23.738 -11.999   2.668  0.00  0.00    -0.274 OA
ATOM      4  C   LIG    1       24.485 -12.816   3.184  0.00  0.00    +0.240 C 
ATOM      5  N   LIG    1       24.779 -12.879   4.507  0.00  0.00    -0.237 N 
ATOM      6  H   LIG    1       24.460 -12.212   5.188  0.00  0.00    +0.159 HD
ATOM      7  C   LIG    1       25.806 -13.746   4.718  0.00  0.00    +0.328 C 
ATOM      8  O   LIG    1       26.496 -13.772   5.731  0.00  0.00    -0.250 OA
ATOM      9  N   LIG    1       25.953 -14.520   3.546  0.00  0.00    -0.168 N 
ATOM     10  C   LIG    1       25.300 -13.854   2.444  0.00  0.00    +0.232 C 
ENDBRANCH   1   9
BRANCH   2  11
ATOM     11  C   LIG    1       25.738 -17.458   3.472  0.00  0.00    +0.154 A 
ATOM     12  O   LIG    1       24.520 -16.914   3.777  0.00  0.00    -0.399 OA
ATOM     13  C   LIG    1       23.655 -17.945   3.935  0.00  0.00    +0.438 A 
ATOM     14  C   LIG    1       24.248 -19.150   3.649  0.00  0.00    +0.132 A 
ATOM     15  C   LIG    1       25.598 -18.834   3.341  0.00  0.00    +0.058 A 
BRANCH  13  16
ATOM     16  N   LIG    1       22.336 -17.600   4.357  0.00  0.00    +0.119 N 
ATOM     17  O   LIG    1       22.174 -16.502   4.910  0.00  0.00    -0.574 OA
ATOM     18  O   LIG    1       21.452 -18.436   4.131  0.00  0.00    +0.045 OA
ENDBRANCH  13  16
ENDBRANCH   2  11
TORSDOF 3
ENDMDL
MODEL 6
REMARK VINA RESULT:      -3.3      2.839      5.746
REMARK  Name = *****
REMARK                            x       y       z     vdW  Elec       q    Type
REMARK                         _______ _______ _______ _____ _____    ______ ____
ROOT
ATOM      1  N   LIG    1       23.948 -13.606   4.601  0.00  0.00    -0.180 NA
ATOM      2  C   LIG    1       23.089 -14.572   4.773  0.00  0.00    +0.177 C 
ENDROOT
BRANCH   1   9
ATOM      3  O   LIG    1       28.592 -13.695   3.768  0.00  0.00    -0.274 OA
ATOM      4  C   LIG    1       27.381 -13.726   3.616  0.00  0.00    +0.240 C 
ATOM      5  N   LIG    1       26.738 -13.585   2.430  0.00  0.00    -0.237 N 
ATOM      6  H   LIG    1       27.198 -13.373   1.562  0.00  0.00    +0.159 HD
ATOM      7  C   LIG    1       25.401 -13.441   2.635  0.00  0.00    +0.328 C 
ATOM      8  O   LIG    1       24.618 -12.980   1.812  0.00  0.00    -0.250 OA
ATOM      9  N   LIG    1       25.132 -13.841   3.962  0.00  0.00    -0.168 N 
ATOM     10  C   LIG    1       26.357 -13.832   4.726  0.00  0.00    +0.232 C 
ENDBRANCH   1   9
BRANCH   2  11
ATOM     11  C   LIG    1       23.183 -15.987   4.496  0.00  0.00    +0.154 A 
ATOM     12  O   LIG    1       24.368 -16.544   4.099  0.00  0.00    -0.399 OA
ATOM     13  C   LIG    1       24.121 -17.850   3.836  0.00  0.00    +0.438 A 
ATOM     14  C   LIG    1       22.827 -18.191   4.140  0.00  0.00    +0.132 A 
ATOM     15  C   LIG    1       22.219 -16.983   4.575  0.00  0.00    +0.058 A 
BRANCH  13  16
ATOM     16  N   LIG    1       25.213 -18.602   3.307  0.00  0.00    +0.119 N 
ATOM     17  O   LIG    1       25.087 -19.832   3.230  0.00  0.00    -0.574 OA
ATOM     18  O   LIG    1       26.209 -17.952   2.961  0.00  0.00    +0.045 OA
ENDBRANCH  13  16
ENDBRANCH   2  11
TORSDOF 3
ENDMDL
MODEL 7
REMARK VINA RESULT:      -3.2      1.743      2.374
REMARK  Name = *****
REMARK                            x       y       z     vdW  Elec       q    Type
REMARK                         _______ _______ _______ _____ _____    ______ ____
ROOT
ATOM      1  N   LIG    1       21.964 -20.801   4.856  0.00  0.00    -0.180 NA
ATOM      2  C   LIG    1       21.646 -19.587   4.498  0.00  0.00    +0.177 C 
ENDROOT
BRANCH   1   9
ATOM      3  O   LIG    1       26.117 -20.399   7.061  0.00  0.00    -0.274 OA
ATOM      4  C   LIG    1       25.241 -20.735   6.279  0.00  0.00    +0.240 C 
ATOM      5  N   LIG    1       25.451 -21.334   5.081  0.00  0.00    -0.237 N 
ATOM      6  H   LIG    1       26.361 -21.502   4.686  0.00  0.00    +0.159 HD
ATOM      7  C   LIG    1       24.296 -21.367   4.363  0.00  0.00    +0.328 C 
ATOM      8  O   LIG    1       24.236 -21.542   3.151  0.00  0.00    -0.250 OA
ATOM      9  N   LIG    1       23.237 -21.091   5.255  0.00  0.00    -0.168 N 
ATOM     10  C   LIG    1       23.761 -20.465   6.446  0.00  0.00    +0.232 C 
ENDBRANCH   1   9
BRANCH   2  11
ATOM     11  C   LIG    1       22.457 -18.405   4.325  0.00  0.00    +0.154 A 
ATOM     12  O   LIG    1       23.689 -18.483   3.734  0.00  0.00    -0.399 OA
ATOM     13  C   LIG    1       24.233 -17.244   3.793  0.00  0.00    +0.438 A 
ATOM     14  C   LIG    1       23.356 -16.330   4.321  0.00  0.00    +0.132 A 
ATOM     15  C   LIG    1       22.200 -17.083   4.661  0.00  0.00    +0.058 A 
BRANCH  13  16
ATOM     16  N   LIG    1       25.573 -17.123   3.314  0.00  0.00    +0.119 N 
ATOM     17  O   LIG    1       26.178 -18.163   3.018  0.00  0.00    -0.574 OA
ATOM     18  O   LIG    1       26.024 -15.973   3.230  0.00  0.00    +0.045 OA
ENDBRANCH  13  16
ENDBRANCH   2  11
TORSDOF 3
ENDMDL
MODEL 8
REMARK VINA RESULT:      -2.9      2.390      3.403
REMARK  Name = *****
REMARK                            x       y       z     vdW  Elec       q    Type
REMARK                         _______ _______ _______ _____ _____    ______ ____
ROOT
ATOM      1  N   LIG    1       25.610 -19.504   3.381  0.00  0.00    -0.180 NA
ATOM      2  C   LIG    1       26.040 -18.369   2.904  0.00  0.00    +0.177 C 
ENDROOT
BRANCH   1   9
ATOM      3  O   LIG    1       23.065 -21.002   7.062  0.00  0.00    -0.274 OA
ATOM      4  C   LIG    1       23.424 -20.400   6.063  0.00  0.00    +0.240 C 
ATOM      5  N   LIG    1       22.607 -19.698   5.237  0.00  0.00    -0.237 N 
ATOM      6  H   LIG    1       21.607 -19.660   5.333  0.00  0.00    +0.159 HD
ATOM      7  C   LIG    1       23.275 -19.343   4.107  0.00  0.00    +0.328 C 
ATOM      8  O   LIG    1       22.737 -18.999   3.061  0.00  0.00    -0.250 OA
ATOM      9  N   LIG    1       24.653 -19.525   4.355  0.00  0.00    -0.168 N 
ATOM     10  C   LIG    1       24.827 -20.395   5.494  0.00  0.00    +0.232 C 
ENDBRANCH   1   9
BRANCH   2  11
ATOM     11  C   LIG    1       25.764 -17.007   3.299  0.00  0.00    +0.154 A 
ATOM     12  O   LIG    1       26.768 -16.081   3.364  0.00  0.00    -0.399 OA
ATOM     13  C   LIG    1       26.219 -14.937   3.841  0.00  0.00    +0.438 A 
ATOM     14  C   LIG    1       24.861 -15.057   4.002  0.00  0.00    +0.132 A 
ATOM     15  C   LIG    1       24.564 -16.399   3.644  0.00  0.00    +0.058 A 
BRANCH  13  16
ATOM     16  N   LIG    1       27.124 -13.859   4.082  0.00  0.00    +0.119 N 
ATOM     17  O   LIG    1       27.827 -13.471   3.138  0.00  0.00    -0.574 OA
ATOM     18  O   LIG    1       27.128 -13.394   5.229  0.00  0.00    +0.045 OA
ENDBRANCH  13  16
ENDBRANCH   2  11
TORSDOF 3
ENDMDL
MODEL 9
REMARK VINA RESULT:      -2.7      2.193      3.367
REMARK  Name = *****
REMARK                            x       y       z     vdW  Elec       q    Type
REMARK                         _______ _______ _______ _____ _____    ______ ____
ROOT
ATOM      1  N   LIG    1       25.455 -19.606   3.173  0.00  0.00    -0.180 NA
ATOM      2  C   LIG    1       26.040 -18.524   2.739  0.00  0.00    +0.177 C 
ENDROOT
BRANCH   1   9
ATOM      3  O   LIG    1       23.134 -20.936   7.061  0.00  0.00    -0.274 OA
ATOM      4  C   LIG    1       23.461 -20.340   6.047  0.00  0.00    +0.240 C 
ATOM      5  N   LIG    1       22.658 -19.511   5.334  0.00  0.00    -0.237 N 
ATOM      6  H   LIG    1       21.686 -19.356   5.537  0.00  0.00    +0.159 HD
ATOM      7  C   LIG    1       23.245 -19.193   4.149  0.00  0.00    +0.328 C 
ATOM      8  O   LIG    1       22.650 -18.743   3.177  0.00  0.00    -0.250 OA
ATOM      9  N   LIG    1       24.608 -19.550   4.243  0.00  0.00    -0.168 N 
ATOM     10  C   LIG    1       24.788 -20.482   5.332  0.00  0.00    +0.232 C 
ENDBRANCH   1   9
BRANCH   2  11
ATOM     11  C   LIG    1       26.059 -17.179   3.266  0.00  0.00    +0.154 A 
ATOM     12  O   LIG    1       24.894 -16.495   3.481  0.00  0.00    -0.399 OA
ATOM     13  C   LIG    1       25.237 -15.249   3.890  0.00  0.00    +0.438 A 
ATOM     14  C   LIG    1       26.595 -15.124   4.042  0.00  0.00    +0.132 A 
ATOM     15  C   LIG    1       27.129 -16.378   3.644  0.00  0.00    +0.058 A 
BRANCH  13  16
ATOM     16  N   LIG    1       24.160 -14.331   4.077  0.00  0.00    +0.119 N 
ATOM     17  O   LIG    1       23.036 -14.796   4.315  0.00  0.00    -0.574 OA
ATOM     18  O   LIG    1       24.443 -13.129   3.988  0.00  0.00    +0.045 OA
ENDBRANCH  13  16
ENDBRANCH   2  11
TORSDOF 3
ENDMDL
