MODEL 1
REMARK VINA RESULT:      -5.3      0.000      0.000
REMARK  Name = *****
REMARK                            x       y       z     vdW  Elec       q    Type
REMARK                         _______ _______ _______ _____ _____    ______ ____
ROOT
ATOM      1  C   LIG    1       30.485 -17.817   9.188  0.00  0.00    +0.176 C 
ENDROOT
BRANCH   1   2
ATOM      2  O   LIG    1       29.975 -18.287  10.448  0.00  0.00    -0.387 OA
ATOM      3  H   LIG    1       29.093 -18.667  10.263  0.00  0.00    +0.210 HD
ENDBRANCH   1   2
BRANCH   1   4
ATOM      4  C   LIG    1       31.338 -16.559   9.434  0.00  0.00    +0.171 C 
BRANCH   4   5
ATOM      5  O   LIG    1       32.493 -16.568   8.583  0.00  0.00    -0.387 OA
ATOM      6  H   LIG    1       32.372 -15.784   8.007  0.00  0.00    +0.210 HD
ENDBRANCH   4   5
BRANCH   4   7
ATOM      7  C   LIG    1       31.791 -16.358  10.885  0.00  0.00    +0.190 C 
BRANCH   7   8
ATOM      8  O   LIG    1       32.728 -17.394  11.211  0.00  0.00    -0.392 OA
ATOM      9  H   LIG    1       33.441 -16.965  11.719  0.00  0.00    +0.209 HD
ENDBRANCH   7   8
ENDBRANCH   4   7
ENDBRANCH   1   4
BRANCH   1  10
ATOM     10  C   LIG    1       31.225 -18.970   8.461  0.00  0.00    +0.176 C 
BRANCH  10  11
ATOM     11  O   LIG    1       32.217 -19.537   9.338  0.00  0.00    -0.387 OA
ATOM     12  H   LIG    1       32.821 -20.034   8.744  0.00  0.00    +0.210 HD
ENDBRANCH  10  11
BRANCH  10  13
ATOM     13  C   LIG    1       30.252 -20.101   8.047  0.00  0.00    +0.171 C 
BRANCH  13  14
ATOM     14  O   LIG    1       28.903 -19.680   8.331  0.00  0.00    -0.387 OA
ATOM     15  H   LIG    1       28.391 -19.897   7.521  0.00  0.00    +0.210 HD
ENDBRANCH  13  14
BRANCH  13  16
ATOM     16  C   LIG    1       30.513 -21.424   8.787  0.00  0.00    +0.190 C 
BRANCH  16  17
ATOM     17  O   LIG    1       31.744 -22.010   8.356  0.00  0.00    -0.392 OA
ATOM     18  H   LIG    1       31.968 -22.702   9.011  0.00  0.00    +0.209 HD
ENDBRANCH  16  17
ENDBRANCH  13  16
ENDBRANCH  10  13
ENDBRANCH   1  10
TORSDOF 11
ENDMDL
MODEL 2
REMARK VINA RESULT:      -5.3      1.731      2.581
REMARK  Name = *****
REMARK                            x       y       z     vdW  Elec       q    Type
REMARK                         _______ _______ _______ _____ _____    ______ ____
ROOT
ATOM      1  C   LIG    1       30.337 -18.130   8.319  0.00  0.00    +0.176 C 
ENDROOT
BRANCH   1   2
ATOM      2  O   LIG    1       29.569 -18.380   9.510  0.00  0.00    -0.387 OA
ATOM      3  H   LIG    1       28.791 -17.789   9.464  0.00  0.00    +0.210 HD
ENDBRANCH   1   2
BRANCH   1   4
ATOM      4  C   LIG    1       31.833 -18.257   8.656  0.00  0.00    +0.171 C 
BRANCH   4   5
ATOM      5  O   LIG    1       32.104 -19.539   9.242  0.00  0.00    -0.387 OA
ATOM      6  H   LIG    1       31.215 -19.921   9.405  0.00  0.00    +0.210 HD
ENDBRANCH   4   5
BRANCH   4   7
ATOM      7  C   LIG    1       32.384 -17.164   9.579  0.00  0.00    +0.190 C 
BRANCH   7   8
ATOM      8  O   LIG    1       32.663 -16.003   8.784  0.00  0.00    -0.392 OA
ATOM      9  H   LIG    1       33.590 -16.089   8.494  0.00  0.00    +0.209 HD
ENDBRANCH   7   8
ENDBRANCH   4   7
ENDBRANCH   1   4
BRANCH   1  10
ATOM     10  C   LIG    1       29.848 -19.060   7.178  0.00  0.00    +0.176 C 
BRANCH  10  11
ATOM     11  O   LIG    1       30.968 -19.777   6.625  0.00  0.00    -0.387 OA
ATOM     12  H   LIG    1       31.742 -19.195   6.787  0.00  0.00    +0.210 HD
ENDBRANCH  10  11
BRANCH  10  13
ATOM     13  C   LIG    1       28.822 -20.100   7.689  0.00  0.00    +0.171 C 
BRANCH  13  14
ATOM     14  O   LIG    1       29.527 -21.139   8.398  0.00  0.00    -0.387 OA
ATOM     15  H   LIG    1       29.564 -21.896   7.773  0.00  0.00    +0.210 HD
ENDBRANCH  13  14
BRANCH  13  16
ATOM     16  C   LIG    1       28.007 -20.752   6.559  0.00  0.00    +0.190 C 
BRANCH  16  17
ATOM     17  O   LIG    1       28.220 -20.067   5.322  0.00  0.00    -0.392 OA
ATOM     18  H   LIG    1       27.491 -19.420   5.232  0.00  0.00    +0.209 HD
ENDBRANCH  16  17
ENDBRANCH  13  16
ENDBRANCH  10  13
ENDBRANCH   1  10
TORSDOF 11
ENDMDL
MODEL 3
REMARK VINA RESULT:      -5.3      0.614      4.228
REMARK  Name = *****
REMARK                            x       y       z     vdW  Elec       q    Type
REMARK                         _______ _______ _______ _____ _____    ______ ____
ROOT
ATOM      1  C   LIG    1       31.137 -18.952   8.485  0.00  0.00    +0.176 C 
ENDROOT
BRANCH   1   2
ATOM      2  O   LIG    1       32.273 -19.557   9.127  0.00  0.00    -0.387 OA
ATOM      3  H   LIG    1       32.923 -19.742   8.419  0.00  0.00    +0.210 HD
ENDBRANCH   1   2
BRANCH   1   4
ATOM      4  C   LIG    1       30.193 -20.064   7.992  0.00  0.00    +0.171 C 
BRANCH   4   5
ATOM      5  O   LIG    1       28.842 -19.778   8.383  0.00  0.00    -0.387 OA
ATOM      6  H   LIG    1       28.925 -19.012   8.989  0.00  0.00    +0.210 HD
ENDBRANCH   4   5
BRANCH   4   7
ATOM      7  C   LIG    1       30.557 -21.477   8.462  0.00  0.00    +0.190 C 
BRANCH   7   8
ATOM      8  O   LIG    1       30.690 -21.457   9.890  0.00  0.00    -0.392 OA
ATOM      9  H   LIG    1       29.872 -21.853  10.244  0.00  0.00    +0.209 HD
ENDBRANCH   7   8
ENDBRANCH   4   7
ENDBRANCH   1   4
BRANCH   1  10
ATOM     10  C   LIG    1       30.482 -17.923   9.441  0.00  0.00    +0.176 C 
BRANCH  10  11
ATOM     11  O   LIG    1       30.392 -18.482  10.766  0.00  0.00    -0.387 OA
ATOM     12  H   LIG    1       29.437 -18.677  10.890  0.00  0.00    +0.210 HD
ENDBRANCH  10  11
BRANCH  10  13
ATOM     13  C   LIG    1       31.312 -16.619   9.532  0.00  0.00    +0.171 C 
BRANCH  13  14
ATOM     14  O   LIG    1       32.354 -16.662   8.536  0.00  0.00    -0.387 OA
ATOM     15  H   LIG    1       31.942 -16.303   7.718  0.00  0.00    +0.210 HD
ENDBRANCH  13  14
BRANCH  13  16
ATOM     16  C   LIG    1       31.966 -16.412  10.908  0.00  0.00    +0.190 C 
BRANCH  16  17
ATOM     17  O   LIG    1       33.025 -17.351  11.111  0.00  0.00    -0.392 OA
ATOM     18  H   LIG    1       33.845 -16.920  10.797  0.00  0.00    +0.209 HD
ENDBRANCH  16  17
ENDBRANCH  13  16
ENDBRANCH  10  13
ENDBRANCH   1  10
TORSDOF 11
ENDMDL
MODEL 4
REMARK VINA RESULT:      -5.1      1.781      4.578
REMARK  Name = *****
REMARK                            x       y       z     vdW  Elec       q    Type
REMARK                         _______ _______ _______ _____ _____    ______ ____
ROOT
ATOM      1  C   LIG    1       31.560 -18.124   8.517  0.00  0.00    +0.176 C 
ENDROOT
BRANCH   1   2
ATOM      2  O   LIG    1       32.092 -19.313   9.126  0.00  0.00    -0.387 OA
ATOM      3  H   LIG    1       32.960 -19.065   9.501  0.00  0.00    +0.210 HD
ENDBRANCH   1   2
BRANCH   1   4
ATOM      4  C   LIG    1       30.208 -18.462   7.862  0.00  0.00    +0.171 C 
BRANCH   4   5
ATOM      5  O   LIG    1       29.408 -19.252   8.753  0.00  0.00    -0.387 OA
ATOM      6  H   LIG    1       29.140 -20.025   8.213  0.00  0.00    +0.210 HD
ENDBRANCH   4   5
BRANCH   4   7
ATOM      7  C   LIG    1       30.305 -19.181   6.512  0.00  0.00    +0.190 C 
BRANCH   7   8
ATOM      8  O   LIG    1       30.030 -18.230   5.474  0.00  0.00    -0.392 OA
ATOM      9  H   LIG    1       29.133 -17.888   5.651  0.00  0.00    +0.209 HD
ENDBRANCH   7   8
ENDBRANCH   4   7
ENDBRANCH   1   4
BRANCH   1  10
ATOM     10  C   LIG    1       31.506 -16.981   9.563  0.00  0.00    +0.176 C 
BRANCH  10  11
ATOM     11  O   LIG    1       30.171 -16.441   9.621  0.00  0.00    -0.387 OA
ATOM     12  H   LIG    1       29.715 -16.817   8.837  0.00  0.00    +0.210 HD
ENDBRANCH  10  11
BRANCH  10  13
ATOM     13  C   LIG    1       31.877 -17.484  10.979  0.00  0.00    +0.171 C 
BRANCH  13  14
ATOM     14  O   LIG    1       30.779 -18.259  11.499  0.00  0.00    -0.387 OA
ATOM     15  H   LIG    1       29.988 -17.685  11.395  0.00  0.00    +0.210 HD
ENDBRANCH  13  14
BRANCH  13  16
ATOM     16  C   LIG    1       32.177 -16.344  11.967  0.00  0.00    +0.190 C 
BRANCH  16  17
ATOM     17  O   LIG    1       30.982 -15.627  12.288  0.00  0.00    -0.392 OA
ATOM     18  H   LIG    1       30.233 -16.205  12.039  0.00  0.00    +0.209 HD
ENDBRANCH  16  17
ENDBRANCH  13  16
ENDBRANCH  10  13
ENDBRANCH   1  10
TORSDOF 11
ENDMDL
MODEL 5
REMARK VINA RESULT:      -5.1      1.068      1.711
REMARK  Name = *****
REMARK                            x       y       z     vdW  Elec       q    Type
REMARK                         _______ _______ _______ _____ _____    ______ ____
ROOT
ATOM      1  C   LIG    1       30.603 -17.841   9.497  0.00  0.00    +0.176 C 
ENDROOT
BRANCH   1   2
ATOM      2  O   LIG    1       30.427 -18.407  10.807  0.00  0.00    -0.387 OA
ATOM      3  H   LIG    1       30.465 -17.660  11.437  0.00  0.00    +0.210 HD
ENDBRANCH   1   2
BRANCH   1   4
ATOM      4  C   LIG    1       31.431 -16.549   9.620  0.00  0.00    +0.171 C 
BRANCH   4   5
ATOM      5  O   LIG    1       32.460 -16.521   8.621  0.00  0.00    -0.387 OA
ATOM      6  H   LIG    1       32.706 -17.463   8.504  0.00  0.00    +0.210 HD
ENDBRANCH   4   5
BRANCH   4   7
ATOM      7  C   LIG    1       32.068 -16.317  10.995  0.00  0.00    +0.190 C 
BRANCH   7   8
ATOM      8  O   LIG    1       33.022 -17.362  11.231  0.00  0.00    -0.392 OA
ATOM      9  H   LIG    1       33.552 -17.077  11.999  0.00  0.00    +0.209 HD
ENDBRANCH   7   8
ENDBRANCH   4   7
ENDBRANCH   1   4
BRANCH   1  10
ATOM     10  C   LIG    1       31.202 -18.906   8.543  0.00  0.00    +0.176 C 
BRANCH  10  11
ATOM     11  O   LIG    1       32.218 -19.658   9.234  0.00  0.00    -0.387 OA
ATOM     12  H   LIG    1       33.055 -19.424   8.777  0.00  0.00    +0.210 HD
ENDBRANCH  10  11
BRANCH  10  13
ATOM     13  C   LIG    1       30.124 -19.903   8.051  0.00  0.00    +0.171 C 
BRANCH  13  14
ATOM     14  O   LIG    1       30.687 -21.231   8.050  0.00  0.00    -0.387 OA
ATOM     15  H   LIG    1       30.539 -21.572   8.960  0.00  0.00    +0.210 HD
ENDBRANCH  13  14
BRANCH  13  16
ATOM     16  C   LIG    1       29.613 -19.592   6.635  0.00  0.00    +0.190 C 
BRANCH  16  17
ATOM     17  O   LIG    1       30.288 -18.454   6.092  0.00  0.00    -0.392 OA
ATOM     18  H   LIG    1       29.795 -18.195   5.287  0.00  0.00    +0.209 HD
ENDBRANCH  16  17
ENDBRANCH  13  16
ENDBRANCH  10  13
ENDBRANCH   1  10
TORSDOF 11
ENDMDL
MODEL 6
REMARK VINA RESULT:      -5.0      1.759      4.430
REMARK  Name = *****
REMARK                            x       y       z     vdW  Elec       q    Type
REMARK                         _______ _______ _______ _____ _____    ______ ____
ROOT
ATOM      1  C   LIG    1       30.755 -19.122   7.690  0.00  0.00    +0.176 C 
ENDROOT
BRANCH   1   2
ATOM      2  O   LIG    1       31.858 -19.497   6.846  0.00  0.00    -0.387 OA
ATOM      3  H   LIG    1       32.556 -19.835   7.441  0.00  0.00    +0.210 HD
ENDBRANCH   1   2
BRANCH   1   4
ATOM      4  C   LIG    1       29.468 -19.764   7.142  0.00  0.00    +0.171 C 
BRANCH   4   5
ATOM      5  O   LIG    1       29.612 -21.190   7.080  0.00  0.00    -0.387 OA
ATOM      6  H   LIG    1       28.789 -21.495   6.642  0.00  0.00    +0.210 HD
ENDBRANCH   4   5
BRANCH   4   7
ATOM      7  C   LIG    1       29.022 -19.249   5.769  0.00  0.00    +0.190 C 
BRANCH   7   8
ATOM      8  O   LIG    1       29.772 -18.065   5.467  0.00  0.00    -0.392 OA
ATOM      9  H   LIG    1       29.329 -17.335   5.938  0.00  0.00    +0.209 HD
ENDBRANCH   7   8
ENDBRANCH   4   7
ENDBRANCH   1   4
BRANCH   1  10
ATOM     10  C   LIG    1       31.081 -19.478   9.164  0.00  0.00    +0.176 C 
BRANCH  10  11
ATOM     11  O   LIG    1       32.144 -20.450   9.204  0.00  0.00    -0.387 OA
ATOM     12  H   LIG    1       32.569 -20.319  10.079  0.00  0.00    +0.210 HD
ENDBRANCH  10  11
BRANCH  10  13
ATOM     13  C   LIG    1       31.542 -18.235   9.963  0.00  0.00    +0.171 C 
BRANCH  13  14
ATOM     14  O   LIG    1       30.808 -18.182  11.203  0.00  0.00    -0.387 OA
ATOM     15  H   LIG    1       30.381 -17.296  11.210  0.00  0.00    +0.210 HD
ENDBRANCH  13  14
BRANCH  13  16
ATOM     16  C   LIG    1       31.319 -16.913   9.210  0.00  0.00    +0.190 C 
BRANCH  16  17
ATOM     17  O   LIG    1       32.560 -16.384   8.737  0.00  0.00    -0.392 OA
ATOM     18  H   LIG    1       33.256 -17.014   9.014  0.00  0.00    +0.209 HD
ENDBRANCH  16  17
ENDBRANCH  13  16
ENDBRANCH  10  13
ENDBRANCH   1  10
TORSDOF 11
ENDMDL
MODEL 7
REMARK VINA RESULT:      -5.0      1.552      4.692
REMARK  Name = *****
REMARK                            x       y       z     vdW  Elec       q    Type
REMARK                         _______ _______ _______ _____ _____    ______ ____
ROOT
ATOM      1  C   LIG    1       30.132 -20.420   7.660  0.00  0.00    +0.176 C 
ENDROOT
BRANCH   1   2
ATOM      2  O   LIG    1       30.094 -21.240   8.842  0.00  0.00    -0.387 OA
ATOM      3  H   LIG    1       30.912 -21.042   9.340  0.00  0.00    +0.210 HD
ENDBRANCH   1   2
BRANCH   1   4
ATOM      4  C   LIG    1       28.915 -20.759   6.780  0.00  0.00    +0.171 C 
BRANCH   4   5
ATOM      5  O   LIG    1       28.375 -19.563   6.198  0.00  0.00    -0.387 OA
ATOM      6  H   LIG    1       27.843 -19.165   6.919  0.00  0.00    +0.210 HD
ENDBRANCH   4   5
BRANCH   4   7
ATOM      7  C   LIG    1       27.790 -21.515   7.496  0.00  0.00    +0.190 C 
BRANCH   7   8
ATOM      8  O   LIG    1       27.227 -20.648   8.491  0.00  0.00    -0.392 OA
ATOM      9  H   LIG    1       27.567 -20.964   9.349  0.00  0.00    +0.209 HD
ENDBRANCH   7   8
ENDBRANCH   4   7
ENDBRANCH   1   4
BRANCH   1  10
ATOM     10  C   LIG    1       30.246 -18.927   8.063  0.00  0.00    +0.176 C 
BRANCH  10  11
ATOM     11  O   LIG    1       29.375 -18.660   9.180  0.00  0.00    -0.387 OA
ATOM     12  H   LIG    1       28.569 -18.269   8.779  0.00  0.00    +0.210 HD
ENDBRANCH  10  11
BRANCH  10  13
ATOM     13  C   LIG    1       31.689 -18.558   8.486  0.00  0.00    +0.171 C 
BRANCH  13  14
ATOM     14  O   LIG    1       32.217 -19.618   9.309  0.00  0.00    -0.387 OA
ATOM     15  H   LIG    1       32.625 -19.165  10.080  0.00  0.00    +0.210 HD
ENDBRANCH  13  14
BRANCH  13  16
ATOM     16  C   LIG    1       31.770 -17.243   9.278  0.00  0.00    +0.190 C 
BRANCH  16  17
ATOM     17  O   LIG    1       32.659 -16.322   8.641  0.00  0.00    -0.392 OA
ATOM     18  H   LIG    1       33.059 -15.782   9.353  0.00  0.00    +0.209 HD
ENDBRANCH  16  17
ENDBRANCH  13  16
ENDBRANCH  10  13
ENDBRANCH   1  10
TORSDOF 11
ENDMDL
MODEL 8
REMARK VINA RESULT:      -5.0      1.761      4.754
REMARK  Name = *****
REMARK                            x       y       z     vdW  Elec       q    Type
REMARK                         _______ _______ _______ _____ _____    ______ ____
ROOT
ATOM      1  C   LIG    1       30.405 -19.136   7.490  0.00  0.00    +0.176 C 
ENDROOT
BRANCH   1   2
ATOM      2  O   LIG    1       31.522 -19.666   6.754  0.00  0.00    -0.387 OA
ATOM      3  H   LIG    1       31.815 -18.956   6.149  0.00  0.00    +0.210 HD
ENDBRANCH   1   2
BRANCH   1   4
ATOM      4  C   LIG    1       29.219 -20.109   7.363  0.00  0.00    +0.171 C 
BRANCH   4   5
ATOM      5  O   LIG    1       29.658 -21.458   7.577  0.00  0.00    -0.387 OA
ATOM      6  H   LIG    1       29.470 -21.909   6.727  0.00  0.00    +0.210 HD
ENDBRANCH   4   5
BRANCH   4   7
ATOM      7  C   LIG    1       28.463 -20.038   6.032  0.00  0.00    +0.190 C 
BRANCH   7   8
ATOM      8  O   LIG    1       28.913 -18.877   5.320  0.00  0.00    -0.392 OA
ATOM      9  H   LIG    1       28.141 -18.284   5.251  0.00  0.00    +0.209 HD
ENDBRANCH   7   8
ENDBRANCH   4   7
ENDBRANCH   1   4
BRANCH   1  10
ATOM     10  C   LIG    1       30.838 -18.827   8.946  0.00  0.00    +0.176 C 
BRANCH  10  11
ATOM     11  O   LIG    1       32.001 -19.609   9.282  0.00  0.00    -0.387 OA
ATOM     12  H   LIG    1       32.701 -18.946   9.469  0.00  0.00    +0.210 HD
ENDBRANCH  10  11
BRANCH  10  13
ATOM     13  C   LIG    1       31.200 -17.333   9.130  0.00  0.00    +0.171 C 
BRANCH  13  14
ATOM     14  O   LIG    1       32.405 -17.053   8.388  0.00  0.00    -0.387 OA
ATOM     15  H   LIG    1       32.625 -16.119   8.600  0.00  0.00    +0.210 HD
ENDBRANCH  13  14
BRANCH  13  16
ATOM     16  C   LIG    1       31.434 -16.943  10.598  0.00  0.00    +0.190 C 
BRANCH  16  17
ATOM     17  O   LIG    1       30.225 -16.464  11.193  0.00  0.00    -0.392 OA
ATOM     18  H   LIG    1       29.597 -17.215  11.191  0.00  0.00    +0.209 HD
ENDBRANCH  16  17
ENDBRANCH  13  16
ENDBRANCH  10  13
ENDBRANCH   1  10
TORSDOF 11
ENDMDL
MODEL 9
REMARK VINA RESULT:      -4.9      1.687      2.778
REMARK  Name = *****
REMARK                            x       y       z     vdW  Elec       q    Type
REMARK                         _______ _______ _______ _____ _____    ______ ____
ROOT
ATOM      1  C   LIG    1       30.215 -19.288   8.036  0.00  0.00    +0.176 C 
ENDROOT
BRANCH   1   2
ATOM      2  O   LIG    1       29.377 -18.832   9.113  0.00  0.00    -0.387 OA
ATOM      3  H   LIG    1       29.871 -18.117   9.561  0.00  0.00    +0.210 HD
ENDBRANCH   1   2
BRANCH   1   4
ATOM      4  C   LIG    1       31.683 -18.992   8.388  0.00  0.00    +0.171 C 
BRANCH   4   5
ATOM      5  O   LIG    1       32.226 -20.052   9.189  0.00  0.00    -0.387 OA
ATOM      6  H   LIG    1       31.543 -20.754   9.152  0.00  0.00    +0.210 HD
ENDBRANCH   4   5
BRANCH   4   7
ATOM      7  C   LIG    1       31.921 -17.657   9.104  0.00  0.00    +0.190 C 
BRANCH   7   8
ATOM      8  O   LIG    1       32.077 -17.920  10.505  0.00  0.00    -0.392 OA
ATOM      9  H   LIG    1       31.206 -18.227  10.822  0.00  0.00    +0.209 HD
ENDBRANCH   7   8
ENDBRANCH   4   7
ENDBRANCH   1   4
BRANCH   1  10
ATOM     10  C   LIG    1       29.909 -20.777   7.730  0.00  0.00    +0.176 C 
BRANCH  10  11
ATOM     11  O   LIG    1       29.744 -21.501   8.965  0.00  0.00    -0.387 OA
ATOM     12  H   LIG    1       30.570 -22.023   9.061  0.00  0.00    +0.210 HD
ENDBRANCH  10  11
BRANCH  10  13
ATOM     13  C   LIG    1       28.606 -20.936   6.909  0.00  0.00    +0.171 C 
BRANCH  13  14
ATOM     14  O   LIG    1       28.242 -19.652   6.364  0.00  0.00    -0.387 OA
ATOM     15  H   LIG    1       27.752 -19.197   7.084  0.00  0.00    +0.210 HD
ENDBRANCH  13  14
BRANCH  13  16
ATOM     16  C   LIG    1       27.425 -21.462   7.742  0.00  0.00    +0.190 C 
BRANCH  16  17
ATOM     17  O   LIG    1       26.946 -20.452   8.634  0.00  0.00    -0.392 OA
ATOM     18  H   LIG    1       26.169 -20.830   9.093  0.00  0.00    +0.209 HD
ENDBRANCH  16  17
ENDBRANCH  13  16
ENDBRANCH  10  13
ENDBRANCH   1  10
TORSDOF 11
ENDMDL
