MODEL 1
REMARK VINA RESULT:      -9.3      0.000      0.000
REMARK  Name = *****
REMARK                            x       y       z     vdW  Elec       q    Type
REMARK                         _______ _______ _______ _____ _____    ______ ____
ROOT
ATOM      1  S   LIG    1       24.362 -20.986   6.782  0.00  0.00    +0.103 S 
ATOM      2  O   LIG    1       23.675 -20.666   8.021  0.00  0.00    -0.146 OA
ATOM      3  O   LIG    1       23.808 -20.548   5.518  0.00  0.00    -0.146 OA
ENDROOT
BRANCH   1   7
ATOM      4  C   LIG    1       24.747 -25.516   6.324  0.00  0.00    +0.017 A 
ATOM      5  C   LIG    1       23.479 -24.925   6.415  0.00  0.00    +0.013 A 
ATOM      6  C   LIG    1       23.350 -23.549   6.621  0.00  0.00    +0.030 A 
ATOM      7  C   LIG    1       24.498 -22.763   6.730  0.00  0.00    +0.113 A 
ATOM      8  C   LIG    1       25.769 -23.349   6.727  0.00  0.00    +0.030 A 
ATOM      9  C   LIG    1       25.892 -24.724   6.509  0.00  0.00    +0.013 A 
BRANCH   4  11
ATOM     10  C   LIG    1       25.961 -27.378   5.017  0.00  0.00    +0.091 C 
ATOM     11  C   LIG    1       24.907 -26.969   6.014  0.00  0.00    +0.160 C 
ATOM     12  O   LIG    1       24.192 -27.799   6.569  0.00  0.00    -0.292 OA
ENDBRANCH   4  11
ENDBRANCH   1   7
BRANCH   1  13
ATOM     13  N   LIG    1       25.894 -20.504   6.894  0.00  0.00    -0.076 NA
ATOM     14  C   LIG    1       26.533 -20.467   8.007  0.00  0.00    +0.299 C 
BRANCH  14  15
ATOM     15  N   LIG    1       27.845 -20.127   8.157  0.00  0.00    -0.295 N 
ATOM     16  H   LIG    1       28.077 -19.871   9.111  0.00  0.00    +0.151 HD
BRANCH  15  17
ATOM     17  C   LIG    1       28.915 -20.755   7.387  0.00  0.00    +0.075 C 
ATOM     18  C   LIG    1       29.356 -19.860   6.221  0.00  0.00    +0.022 C 
ATOM     19  C   LIG    1       30.101 -18.606   6.675  0.00  0.00    +0.002 C 
ATOM     20  C   LIG    1       31.291 -18.951   7.563  0.00  0.00    +0.000 C 
ATOM     21  C   LIG    1       30.897 -19.847   8.734  0.00  0.00    +0.002 C 
ATOM     22  C   LIG    1       30.112 -21.083   8.290  0.00  0.00    +0.022 C 
ENDBRANCH  15  17
ENDBRANCH  14  15
BRANCH  14  23
ATOM     23  O   LIG    1       26.009 -20.752   9.210  0.00  0.00    -0.481 OA
ATOM     24  H   LIG    1       26.055 -21.707   9.419  0.00  0.00    +0.295 HD
ENDBRANCH  14  23
ENDBRANCH   1  13
TORSDOF 6
ENDMDL
MODEL 2
REMARK VINA RESULT:      -9.3      2.306      7.118
REMARK  Name = *****
REMARK                            x       y       z     vdW  Elec       q    Type
REMARK                         _______ _______ _______ _____ _____    ______ ____
ROOT
ATOM      1  S   LIG    1       24.278 -21.642   6.664  0.00  0.00    +0.103 S 
ATOM      2  O   LIG    1       23.658 -21.284   5.400  0.00  0.00    -0.146 OA
ATOM      3  O   LIG    1       23.589 -21.363   7.907  0.00  0.00    -0.146 OA
ENDROOT
BRANCH   1   7
ATOM      4  C   LIG    1       28.441 -19.762   6.699  0.00  0.00    +0.017 A 
ATOM      5  C   LIG    1       27.857 -20.194   7.898  0.00  0.00    +0.013 A 
ATOM      6  C   LIG    1       26.559 -20.711   7.908  0.00  0.00    +0.030 A 
ATOM      7  C   LIG    1       25.847 -20.798   6.710  0.00  0.00    +0.113 A 
ATOM      8  C   LIG    1       26.384 -20.292   5.521  0.00  0.00    +0.030 A 
ATOM      9  C   LIG    1       27.688 -19.787   5.514  0.00  0.00    +0.013 A 
BRANCH   4  11
ATOM     10  C   LIG    1       30.847 -19.894   7.619  0.00  0.00    +0.091 C 
ATOM     11  C   LIG    1       29.859 -19.292   6.652  0.00  0.00    +0.160 C 
ATOM     12  O   LIG    1       30.199 -18.439   5.836  0.00  0.00    -0.292 OA
ENDBRANCH   4  11
ENDBRANCH   1   7
BRANCH   1  13
ATOM     13  N   LIG    1       24.698 -23.195   6.619  0.00  0.00    -0.076 NA
ATOM     14  C   LIG    1       23.839 -24.148   6.567  0.00  0.00    +0.299 C 
BRANCH  14  15
ATOM     15  N   LIG    1       24.132 -25.476   6.467  0.00  0.00    -0.295 N 
ATOM     16  H   LIG    1       23.358 -26.022   6.102  0.00  0.00    +0.151 HD
BRANCH  15  17
ATOM     17  C   LIG    1       25.468 -25.966   6.140  0.00  0.00    +0.075 C 
ATOM     18  C   LIG    1       25.994 -26.909   7.231  0.00  0.00    +0.022 C 
ATOM     19  C   LIG    1       25.259 -28.247   7.272  0.00  0.00    +0.002 C 
ATOM     20  C   LIG    1       25.276 -28.939   5.914  0.00  0.00    +0.000 C 
ATOM     21  C   LIG    1       24.766 -28.033   4.797  0.00  0.00    +0.002 C 
ATOM     22  C   LIG    1       25.468 -26.673   4.778  0.00  0.00    +0.022 C 
ENDBRANCH  15  17
ENDBRANCH  14  15
BRANCH  14  23
ATOM     23  O   LIG    1       22.505 -23.991   6.610  0.00  0.00    -0.481 OA
ATOM     24  H   LIG    1       22.216 -23.152   6.197  0.00  0.00    +0.295 HD
ENDBRANCH  14  23
ENDBRANCH   1  13
TORSDOF 6
ENDMDL
MODEL 3
REMARK VINA RESULT:      -8.9      2.183      6.976
REMARK  Name = *****
REMARK                            x       y       z     vdW  Elec       q    Type
REMARK                         _______ _______ _______ _____ _____    ______ ____
ROOT
ATOM      1  S   LIG    1       24.136 -21.288   6.782  0.00  0.00    +0.103 S 
ATOM      2  O   LIG    1       23.570 -21.022   5.471  0.00  0.00    -0.146 OA
ATOM      3  O   LIG    1       23.576 -20.642   7.952  0.00  0.00    -0.146 OA
ENDROOT
BRANCH   1   7
ATOM      4  C   LIG    1       28.471 -19.853   6.653  0.00  0.00    +0.017 A 
ATOM      5  C   LIG    1       27.683 -19.812   5.493  0.00  0.00    +0.013 A 
ATOM      6  C   LIG    1       26.378 -20.308   5.505  0.00  0.00    +0.030 A 
ATOM      7  C   LIG    1       25.859 -20.843   6.686  0.00  0.00    +0.113 A 
ATOM      8  C   LIG    1       26.660 -20.969   7.826  0.00  0.00    +0.030 A 
ATOM      9  C   LIG    1       27.962 -20.460   7.812  0.00  0.00    +0.013 A 
BRANCH   4  11
ATOM     10  C   LIG    1       30.847 -19.803   7.655  0.00  0.00    +0.091 C 
ATOM     11  C   LIG    1       29.836 -19.245   6.686  0.00  0.00    +0.160 C 
ATOM     12  O   LIG    1       30.115 -18.315   5.933  0.00  0.00    -0.292 OA
ENDBRANCH   4  11
ENDBRANCH   1   7
BRANCH   1  13
ATOM     13  N   LIG    1       24.182 -22.881   7.018  0.00  0.00    -0.076 NA
ATOM     14  C   LIG    1       24.484 -23.714   6.089  0.00  0.00    +0.299 C 
BRANCH  14  15
ATOM     15  N   LIG    1       24.598 -25.063   6.241  0.00  0.00    -0.295 N 
ATOM     16  H   LIG    1       23.738 -25.557   6.029  0.00  0.00    +0.151 HD
BRANCH  15  17
ATOM     17  C   LIG    1       25.834 -25.787   5.956  0.00  0.00    +0.075 C 
ATOM     18  C   LIG    1       26.244 -26.671   7.142  0.00  0.00    +0.022 C 
ATOM     19  C   LIG    1       25.317 -27.868   7.346  0.00  0.00    +0.002 C 
ATOM     20  C   LIG    1       25.188 -28.702   6.077  0.00  0.00    +0.000 C 
ATOM     21  C   LIG    1       24.787 -27.859   4.870  0.00  0.00    +0.002 C 
ATOM     22  C   LIG    1       25.686 -26.635   4.685  0.00  0.00    +0.022 C 
ENDBRANCH  15  17
ENDBRANCH  14  15
BRANCH  14  23
ATOM     23  O   LIG    1       24.730 -23.390   4.809  0.00  0.00    -0.481 OA
ATOM     24  H   LIG    1       23.980 -23.608   4.219  0.00  0.00    +0.295 HD
ENDBRANCH  14  23
ENDBRANCH   1  13
TORSDOF 6
ENDMDL
MODEL 4
REMARK VINA RESULT:      -8.9      0.577      1.184
REMARK  Name = *****
REMARK                            x       y       z     vdW  Elec       q    Type
REMARK                         _______ _______ _______ _____ _____    ______ ____
ROOT
ATOM      1  S   LIG    1       24.324 -21.153   6.765  0.00  0.00    +0.103 S 
ATOM      2  O   LIG    1       23.669 -20.998   8.052  0.00  0.00    -0.146 OA
ATOM      3  O   LIG    1       23.700 -20.623   5.571  0.00  0.00    -0.146 OA
ENDROOT
BRANCH   1   7
ATOM      4  C   LIG    1       24.890 -25.678   6.477  0.00  0.00    +0.017 A 
ATOM      5  C   LIG    1       26.006 -24.829   6.470  0.00  0.00    +0.013 A 
ATOM      6  C   LIG    1       25.843 -23.442   6.492  0.00  0.00    +0.030 A 
ATOM      7  C   LIG    1       24.555 -22.905   6.527  0.00  0.00    +0.113 A 
ATOM      8  C   LIG    1       23.431 -23.735   6.447  0.00  0.00    +0.030 A 
ATOM      9  C   LIG    1       23.600 -25.123   6.438  0.00  0.00    +0.013 A 
BRANCH   4  11
ATOM     10  C   LIG    1       24.358 -28.005   5.502  0.00  0.00    +0.091 C 
ATOM     11  C   LIG    1       25.044 -27.162   6.546  0.00  0.00    +0.160 C 
ATOM     12  O   LIG    1       25.721 -27.671   7.437  0.00  0.00    -0.292 OA
ENDBRANCH   4  11
ENDBRANCH   1   7
BRANCH   1  13
ATOM     13  N   LIG    1       25.832 -20.597   6.875  0.00  0.00    -0.076 NA
ATOM     14  C   LIG    1       26.482 -20.563   7.982  0.00  0.00    +0.299 C 
BRANCH  14  15
ATOM     15  N   LIG    1       27.776 -20.162   8.129  0.00  0.00    -0.295 N 
ATOM     16  H   LIG    1       28.006 -19.919   9.087  0.00  0.00    +0.151 HD
BRANCH  15  17
ATOM     17  C   LIG    1       28.869 -20.714   7.332  0.00  0.00    +0.075 C 
ATOM     18  C   LIG    1       29.288 -19.744   6.220  0.00  0.00    +0.022 C 
ATOM     19  C   LIG    1       29.994 -18.496   6.747  0.00  0.00    +0.002 C 
ATOM     20  C   LIG    1       31.189 -18.854   7.622  0.00  0.00    +0.000 C 
ATOM     21  C   LIG    1       30.816 -19.824   8.740  0.00  0.00    +0.002 C 
ATOM     22  C   LIG    1       30.071 -21.056   8.223  0.00  0.00    +0.022 C 
ENDBRANCH  15  17
ENDBRANCH  14  15
BRANCH  14  23
ATOM     23  O   LIG    1       25.988 -20.912   9.181  0.00  0.00    -0.481 OA
ATOM     24  H   LIG    1       25.107 -21.332   9.112  0.00  0.00    +0.295 HD
ENDBRANCH  14  23
ENDBRANCH   1  13
TORSDOF 6
ENDMDL
MODEL 5
REMARK VINA RESULT:      -7.9      4.161      8.321
REMARK  Name = *****
REMARK                            x       y       z     vdW  Elec       q    Type
REMARK                         _______ _______ _______ _____ _____    ______ ____
ROOT
ATOM      1  S   LIG    1       25.693 -26.485   5.711  0.00  0.00    +0.103 S 
ATOM      2  O   LIG    1       27.091 -26.522   6.101  0.00  0.00    -0.146 OA
ATOM      3  O   LIG    1       25.328 -26.668   4.322  0.00  0.00    -0.146 OA
ENDROOT
BRANCH   1   7
ATOM      4  C   LIG    1       24.038 -22.350   6.733  0.00  0.00    +0.017 A 
ATOM      5  C   LIG    1       25.423 -22.548   6.637  0.00  0.00    +0.013 A 
ATOM      6  C   LIG    1       25.942 -23.821   6.390  0.00  0.00    +0.030 A 
ATOM      7  C   LIG    1       25.069 -24.898   6.232  0.00  0.00    +0.113 A 
ATOM      8  C   LIG    1       23.691 -24.733   6.410  0.00  0.00    +0.030 A 
ATOM      9  C   LIG    1       23.176 -23.455   6.646  0.00  0.00    +0.013 A 
BRANCH   4  11
ATOM     10  C   LIG    1       22.790 -20.333   5.722  0.00  0.00    +0.091 C 
ATOM     11  C   LIG    1       23.459 -20.984   6.905  0.00  0.00    +0.160 C 
ATOM     12  O   LIG    1       23.529 -20.418   7.994  0.00  0.00    -0.292 OA
ENDBRANCH   4  11
ENDBRANCH   1   7
BRANCH   1  13
ATOM     13  N   LIG    1       24.866 -27.521   6.625  0.00  0.00    -0.076 NA
ATOM     14  C   LIG    1       24.991 -28.795   6.519  0.00  0.00    +0.299 C 
BRANCH  14  15
ATOM     15  N   LIG    1       24.367 -29.720   7.302  0.00  0.00    -0.295 N 
ATOM     16  H   LIG    1       23.483 -30.032   6.913  0.00  0.00    +0.151 HD
BRANCH  15  17
ATOM     17  C   LIG    1       25.097 -30.707   8.093  0.00  0.00    +0.075 C 
ATOM     18  C   LIG    1       26.167 -30.035   8.965  0.00  0.00    +0.022 C 
ATOM     19  C   LIG    1       25.578 -29.211  10.108  0.00  0.00    +0.002 C 
ATOM     20  C   LIG    1       24.631 -30.040  10.968  0.00  0.00    +0.000 C 
ATOM     21  C   LIG    1       23.553 -30.732  10.138  0.00  0.00    +0.002 C 
ATOM     22  C   LIG    1       24.134 -31.524   8.965  0.00  0.00    +0.022 C 
ENDBRANCH  15  17
ENDBRANCH  14  15
BRANCH  14  23
ATOM     23  O   LIG    1       25.755 -29.426   5.612  0.00  0.00    -0.481 OA
ATOM     24  H   LIG    1       26.040 -30.311   5.917  0.00  0.00    +0.295 HD
ENDBRANCH  14  23
ENDBRANCH   1  13
TORSDOF 6
ENDMDL
MODEL 6
REMARK VINA RESULT:      -7.9      4.207      8.509
REMARK  Name = *****
REMARK                            x       y       z     vdW  Elec       q    Type
REMARK                         _______ _______ _______ _____ _____    ______ ____
ROOT
ATOM      1  S   LIG    1       25.723 -26.508   5.678  0.00  0.00    +0.103 S 
ATOM      2  O   LIG    1       27.127 -26.536   6.049  0.00  0.00    -0.146 OA
ATOM      3  O   LIG    1       25.341 -26.681   4.292  0.00  0.00    -0.146 OA
ENDROOT
BRANCH   1   7
ATOM      4  C   LIG    1       24.058 -22.393   6.761  0.00  0.00    +0.017 A 
ATOM      5  C   LIG    1       25.445 -22.594   6.695  0.00  0.00    +0.013 A 
ATOM      6  C   LIG    1       25.965 -23.862   6.429  0.00  0.00    +0.030 A 
ATOM      7  C   LIG    1       25.092 -24.932   6.223  0.00  0.00    +0.113 A 
ATOM      8  C   LIG    1       23.711 -24.765   6.371  0.00  0.00    +0.030 A 
ATOM      9  C   LIG    1       23.194 -23.491   6.626  0.00  0.00    +0.013 A 
BRANCH   4  11
ATOM     10  C   LIG    1       22.795 -20.368   5.784  0.00  0.00    +0.091 C 
ATOM     11  C   LIG    1       23.480 -21.028   6.954  0.00  0.00    +0.160 C 
ATOM     12  O   LIG    1       23.564 -20.472   8.046  0.00  0.00    -0.292 OA
ENDBRANCH   4  11
ENDBRANCH   1   7
BRANCH   1  13
ATOM     13  N   LIG    1       24.918 -27.560   6.593  0.00  0.00    -0.076 NA
ATOM     14  C   LIG    1       25.071 -28.831   6.490  0.00  0.00    +0.299 C 
BRANCH  14  15
ATOM     15  N   LIG    1       24.466 -29.768   7.274  0.00  0.00    -0.295 N 
ATOM     16  H   LIG    1       24.405 -30.676   6.825  0.00  0.00    +0.151 HD
BRANCH  15  17
ATOM     17  C   LIG    1       24.599 -29.785   8.728  0.00  0.00    +0.075 C 
ATOM     18  C   LIG    1       23.803 -30.945   9.344  0.00  0.00    +0.022 C 
ATOM     19  C   LIG    1       24.408 -32.314   9.040  0.00  0.00    +0.002 C 
ATOM     20  C   LIG    1       25.871 -32.388   9.460  0.00  0.00    +0.000 C 
ATOM     21  C   LIG    1       26.698 -31.248   8.874  0.00  0.00    +0.002 C 
ATOM     22  C   LIG    1       26.076 -29.875   9.138  0.00  0.00    +0.022 C 
ENDBRANCH  15  17
ENDBRANCH  14  15
BRANCH  14  23
ATOM     23  O   LIG    1       25.850 -29.447   5.586  0.00  0.00    -0.481 OA
ATOM     24  H   LIG    1       26.736 -29.037   5.519  0.00  0.00    +0.295 HD
ENDBRANCH  14  23
ENDBRANCH   1  13
TORSDOF 6
ENDMDL
MODEL 7
REMARK VINA RESULT:      -7.9      4.345      6.316
REMARK  Name = *****
REMARK                            x       y       z     vdW  Elec       q    Type
REMARK                         _______ _______ _______ _____ _____    ______ ____
ROOT
ATOM      1  S   LIG    1       25.409 -27.202   5.802  0.00  0.00    +0.103 S 
ATOM      2  O   LIG    1       24.355 -27.813   5.011  0.00  0.00    -0.146 OA
ATOM      3  O   LIG    1       26.736 -27.054   5.240  0.00  0.00    -0.146 OA
ENDROOT
BRANCH   1   7
ATOM      4  C   LIG    1       25.545 -29.516   9.739  0.00  0.00    +0.017 A 
ATOM      5  C   LIG    1       26.485 -28.506   9.485  0.00  0.00    +0.013 A 
ATOM      6  C   LIG    1       26.493 -27.837   8.259  0.00  0.00    +0.030 A 
ATOM      7  C   LIG    1       25.552 -28.178   7.286  0.00  0.00    +0.113 A 
ATOM      8  C   LIG    1       24.665 -29.240   7.491  0.00  0.00    +0.030 A 
ATOM      9  C   LIG    1       24.652 -29.899   8.725  0.00  0.00    +0.013 A 
BRANCH   4  11
ATOM     10  C   LIG    1       24.177 -30.059  11.856  0.00  0.00    +0.091 C 
ATOM     11  C   LIG    1       25.460 -30.180  11.075  0.00  0.00    +0.160 C 
ATOM     12  O   LIG    1       26.420 -30.809  11.512  0.00  0.00    -0.292 OA
ENDBRANCH   4  11
ENDBRANCH   1   7
BRANCH   1  13
ATOM     13  N   LIG    1       24.894 -25.777   6.349  0.00  0.00    -0.076 NA
ATOM     14  C   LIG    1       24.630 -24.788   5.573  0.00  0.00    +0.299 C 
BRANCH  14  15
ATOM     15  N   LIG    1       24.136 -23.581   5.969  0.00  0.00    -0.295 N 
ATOM     16  H   LIG    1       23.510 -23.655   6.764  0.00  0.00    +0.151 HD
BRANCH  15  17
ATOM     17  C   LIG    1       24.907 -22.344   5.877  0.00  0.00    +0.075 C 
ATOM     18  C   LIG    1       24.524 -21.544   4.625  0.00  0.00    +0.022 C 
ATOM     19  C   LIG    1       23.124 -20.939   4.705  0.00  0.00    +0.002 C 
ATOM     20  C   LIG    1       22.951 -20.087   5.957  0.00  0.00    +0.000 C 
ATOM     21  C   LIG    1       23.328 -20.844   7.227  0.00  0.00    +0.002 C 
ATOM     22  C   LIG    1       24.712 -21.489   7.137  0.00  0.00    +0.022 C 
ENDBRANCH  15  17
ENDBRANCH  14  15
BRANCH  14  23
ATOM     23  O   LIG    1       24.806 -24.780   4.242  0.00  0.00    -0.481 OA
ATOM     24  H   LIG    1       25.566 -24.227   3.970  0.00  0.00    +0.295 HD
ENDBRANCH  14  23
ENDBRANCH   1  13
TORSDOF 6
ENDMDL
MODEL 8
REMARK VINA RESULT:      -7.9      3.092      6.856
REMARK  Name = *****
REMARK                            x       y       z     vdW  Elec       q    Type
REMARK                         _______ _______ _______ _____ _____    ______ ____
ROOT
ATOM      1  S   LIG    1       26.149 -22.079   8.007  0.00  0.00    +0.103 S 
ATOM      2  O   LIG    1       25.682 -22.194   9.377  0.00  0.00    -0.146 OA
ATOM      3  O   LIG    1       26.354 -23.274   7.214  0.00  0.00    -0.146 OA
ENDROOT
BRANCH   1   7
ATOM      4  C   LIG    1       30.104 -19.796   7.863  0.00  0.00    +0.017 A 
ATOM      5  C   LIG    1       30.104 -21.198   7.906  0.00  0.00    +0.013 A 
ATOM      6  C   LIG    1       28.904 -21.904   8.016  0.00  0.00    +0.030 A 
ATOM      7  C   LIG    1       27.699 -21.201   8.077  0.00  0.00    +0.113 A 
ATOM      8  C   LIG    1       27.688 -19.803   8.122  0.00  0.00    +0.030 A 
ATOM      9  C   LIG    1       28.891 -19.101   8.000  0.00  0.00    +0.013 A 
BRANCH   4  11
ATOM     10  C   LIG    1       31.778 -18.023   8.701  0.00  0.00    +0.091 C 
ATOM     11  C   LIG    1       31.367 -19.026   7.654  0.00  0.00    +0.160 C 
ATOM     12  O   LIG    1       32.048 -19.219   6.650  0.00  0.00    -0.292 OA
ENDBRANCH   4  11
ENDBRANCH   1   7
BRANCH   1  13
ATOM     13  N   LIG    1       25.188 -21.063   7.209  0.00  0.00    -0.076 NA
ATOM     14  C   LIG    1       23.943 -21.298   7.004  0.00  0.00    +0.299 C 
BRANCH  14  15
ATOM     15  N   LIG    1       23.067 -20.453   6.391  0.00  0.00    -0.295 N 
ATOM     16  H   LIG    1       23.143 -19.498   6.726  0.00  0.00    +0.151 HD
BRANCH  15  17
ATOM     17  C   LIG    1       22.665 -20.609   4.996  0.00  0.00    +0.075 C 
ATOM     18  C   LIG    1       22.020 -19.325   4.458  0.00  0.00    +0.022 C 
ATOM     19  C   LIG    1       23.016 -18.180   4.286  0.00  0.00    +0.002 C 
ATOM     20  C   LIG    1       24.197 -18.589   3.414  0.00  0.00    +0.000 C 
ATOM     21  C   LIG    1       24.865 -19.868   3.911  0.00  0.00    +0.002 C 
ATOM     22  C   LIG    1       23.866 -21.007   4.127  0.00  0.00    +0.022 C 
ENDBRANCH  15  17
ENDBRANCH  14  15
BRANCH  14  23
ATOM     23  O   LIG    1       23.299 -22.423   7.357  0.00  0.00    -0.481 OA
ATOM     24  H   LIG    1       22.356 -22.263   7.563  0.00  0.00    +0.295 HD
ENDBRANCH  14  23
ENDBRANCH   1  13
TORSDOF 6
ENDMDL
MODEL 9
REMARK VINA RESULT:      -7.7      2.831      4.604
REMARK  Name = *****
REMARK                            x       y       z     vdW  Elec       q    Type
REMARK                         _______ _______ _______ _____ _____    ______ ____
ROOT
ATOM      1  S   LIG    1       25.448 -22.767   6.668  0.00  0.00    +0.103 S 
ATOM      2  O   LIG    1       25.676 -23.852   5.730  0.00  0.00    -0.146 OA
ATOM      3  O   LIG    1       24.853 -23.045   7.959  0.00  0.00    -0.146 OA
ENDROOT
BRANCH   1   7
ATOM      4  C   LIG    1       22.841 -19.538   4.757  0.00  0.00    +0.017 A 
ATOM      5  C   LIG    1       22.258 -20.521   5.569  0.00  0.00    +0.013 A 
ATOM      6  C   LIG    1       23.035 -21.550   6.105  0.00  0.00    +0.030 A 
ATOM      7  C   LIG    1       24.403 -21.590   5.830  0.00  0.00    +0.113 A 
ATOM      8  C   LIG    1       24.983 -20.667   4.954  0.00  0.00    +0.030 A 
ATOM      9  C   LIG    1       24.203 -19.632   4.429  0.00  0.00    +0.013 A 
BRANCH   4  11
ATOM     10  C   LIG    1       22.528 -16.985   4.564  0.00  0.00    +0.091 C 
ATOM     11  C   LIG    1       22.047 -18.379   4.249  0.00  0.00    +0.160 C 
ATOM     12  O   LIG    1       21.030 -18.571   3.587  0.00  0.00    -0.292 OA
ENDBRANCH   4  11
ENDBRANCH   1   7
BRANCH   1  13
ATOM     13  N   LIG    1       26.823 -21.954   6.873  0.00  0.00    -0.076 NA
ATOM     14  C   LIG    1       27.076 -21.269   7.930  0.00  0.00    +0.299 C 
BRANCH  14  15
ATOM     15  N   LIG    1       28.241 -20.612   8.188  0.00  0.00    -0.295 N 
ATOM     16  H   LIG    1       28.362 -20.397   9.172  0.00  0.00    +0.151 HD
BRANCH  15  17
ATOM     17  C   LIG    1       29.469 -20.856   7.435  0.00  0.00    +0.075 C 
ATOM     18  C   LIG    1       29.740 -19.724   6.435  0.00  0.00    +0.022 C 
ATOM     19  C   LIG    1       30.139 -18.412   7.109  0.00  0.00    +0.002 C 
ATOM     20  C   LIG    1       31.330 -18.599   8.041  0.00  0.00    +0.000 C 
ATOM     21  C   LIG    1       31.104 -19.722   9.049  0.00  0.00    +0.002 C 
ATOM     22  C   LIG    1       30.663 -21.028   8.384  0.00  0.00    +0.022 C 
ENDBRANCH  15  17
ENDBRANCH  14  15
BRANCH  14  23
ATOM     23  O   LIG    1       26.226 -21.083   8.954  0.00  0.00    -0.481 OA
ATOM     24  H   LIG    1       25.290 -21.153   8.677  0.00  0.00    +0.295 HD
ENDBRANCH  14  23
ENDBRANCH   1  13
TORSDOF 6
ENDMDL
