MODEL 1
REMARK VINA RESULT:      -4.7      0.000      0.000
REMARK  Name = *****
REMARK                            x       y       z     vdW  Elec       q    Type
REMARK                         _______ _______ _______ _____ _____    ______ ____
ROOT
ATOM      1  C   LIG    1       25.403 -28.723   7.859  0.00  0.00    +0.147 C 
ATOM      2  C   LIG    1       24.262 -29.707   8.216  0.00  0.00    +0.068 C 
ATOM      3  C   LIG    1       24.512 -31.223   8.243  0.00  0.00    +0.141 C 
ATOM      4  O   LIG    1       24.751 -31.562   9.615  0.00  0.00    -0.344 OA
ATOM      5  C   LIG    1       25.350 -32.816   9.889  0.00  0.00    +0.172 C 
ATOM      6  C   LIG    1       25.154 -33.825   8.757  0.00  0.00    +0.097 C 
ATOM      7  C   LIG    1       25.747 -33.276   7.449  0.00  0.00    +0.136 C 
ATOM      8  C   LIG    1       24.875 -33.316  11.270  0.00  0.00    +0.096 C 
ATOM      9  C   LIG    1       23.482 -32.917  11.801  0.00  0.00    +0.122 C 
ATOM     10  C   LIG    1       22.273 -33.729  11.318  0.00  0.00    +0.066 C 
ATOM     11  C   LIG    1       21.634 -33.311  10.025  0.00  0.00    +0.154 C 
ATOM     12  C   LIG    1       20.422 -32.400   9.881  0.00  0.00    +0.171 C 
ATOM     13  C   LIG    1       20.073 -31.528  11.004  0.00  0.00    +0.014 C 
ATOM     14  C   LIG    1       20.431 -30.240  11.102  0.00  0.00    +0.090 C 
ATOM     15  C   LIG    1       20.240 -29.496  12.361  0.00  0.00    +0.332 C 
ATOM     16  O   LIG    1       19.635 -29.902  13.345  0.00  0.00    -0.246 OA
ATOM     17  O   LIG    1       20.944 -28.344  12.257  0.00  0.00    -0.458 OA
ATOM     18  C   LIG    1       21.223 -27.654  13.496  0.00  0.00    +0.177 C 
ATOM     19  C   LIG    1       20.067 -26.712  13.806  0.00  0.00    +0.052 C 
ATOM     20  C   LIG    1       22.536 -26.866  13.304  0.00  0.00    +0.071 C 
ATOM     21  C   LIG    1       23.696 -27.785  13.030  0.00  0.00    -0.023 C 
ATOM     22  C   LIG    1       24.979 -27.577  13.368  0.00  0.00    -0.004 C 
ATOM     23  C   LIG    1       25.966 -28.537  12.943  0.00  0.00    -0.000 C 
ATOM     24  C   LIG    1       27.278 -28.316  12.755  0.00  0.00    +0.000 C 
ATOM     25  C   LIG    1       28.032 -29.295  11.950  0.00  0.00    +0.000 C 
ATOM     26  C   LIG    1       28.090 -29.012  10.626  0.00  0.00    -0.000 C 
ATOM     27  C   LIG    1       26.910 -29.299   9.809  0.00  0.00    -0.002 C 
ATOM     28  O   LIG    1       20.295 -33.824   9.914  0.00  0.00    -0.364 OA
ATOM     29  C   LIG    1       25.572 -31.763   7.285  0.00  0.00    +0.155 C 
ATOM     30  C   LIG    1       26.735 -28.843   8.563  0.00  0.00    +0.004 C 
ENDROOT
BRANCH   7  31
ATOM     31  O   LIG    1       27.157 -33.546   7.408  0.00  0.00    -0.391 OA
ATOM     32  H   LIG    1       27.344 -34.149   8.162  0.00  0.00    +0.210 HD
ENDBRANCH   7  31
BRANCH   5  33
ATOM     33  O   LIG    1       26.765 -32.603   9.954  0.00  0.00    -0.364 OA
ATOM     34  H   LIG    1       27.120 -33.293  10.542  0.00  0.00    +0.213 HD
ENDBRANCH   5  33
BRANCH   9  35
ATOM     35  O   LIG    1       23.253 -31.513  11.731  0.00  0.00    -0.392 OA
ATOM     36  H   LIG    1       22.864 -31.239  12.585  0.00  0.00    +0.210 HD
ENDBRANCH   9  35
BRANCH  29  37
ATOM     37  C   LIG    1       25.167 -31.482   5.858  0.00  0.00    +0.313 C 
ATOM     38  O   LIG    1       25.878 -30.902   5.050  0.00  0.00    -0.251 OA
BRANCH  37  39
ATOM     39  O   LIG    1       23.938 -31.942   5.546  0.00  0.00    -0.480 OA
ATOM     40  H   LIG    1       23.526 -32.492   6.245  0.00  0.00    +0.295 HD
ENDBRANCH  37  39
ENDBRANCH  29  37
BRANCH   1  41
ATOM     41  O   LIG    1       25.005 -27.368   8.176  0.00  0.00    -0.341 OA
BRANCH  41  47
ATOM     42  C   LIG    1       23.758 -23.145   6.565  0.00  0.00    +0.040 C 
ATOM     43  C   LIG    1       24.757 -24.270   6.327  0.00  0.00    +0.148 C 
ATOM     44  C   LIG    1       24.684 -24.812   4.892  0.00  0.00    +0.162 C 
ATOM     45  C   LIG    1       25.657 -26.001   4.735  0.00  0.00    +0.116 C 
ATOM     46  C   LIG    1       25.393 -27.054   5.823  0.00  0.00    +0.189 C 
ATOM     47  C   LIG    1       25.378 -26.378   7.217  0.00  0.00    +0.281 C 
ATOM     48  O   LIG    1       24.452 -25.304   7.268  0.00  0.00    -0.343 OA
BRANCH  45  49
ATOM     49  N   LIG    1       25.529 -26.550   3.361  0.00  0.00    -0.323 NA
ATOM     50  H   LIG    1       25.799 -25.826   2.694  0.00  0.00    +0.119 HD
ATOM     51  H   LIG    1       26.275 -27.251   3.266  0.00  0.00    +0.119 HD
ENDBRANCH  45  49
BRANCH  44  52
ATOM     52  O   LIG    1       25.036 -23.804   3.942  0.00  0.00    -0.388 OA
ATOM     53  H   LIG    1       25.987 -23.962   3.766  0.00  0.00    +0.210 HD
ENDBRANCH  44  52
BRANCH  46  54
ATOM     54  O   LIG    1       24.136 -27.705   5.556  0.00  0.00    -0.385 OA
ATOM     55  H   LIG    1       24.005 -28.319   6.308  0.00  0.00    +0.210 HD
ENDBRANCH  46  54
ENDBRANCH  41  47
ENDBRANCH   1  41
TORSDOF 10
ENDMDL
MODEL 2
REMARK VINA RESULT:      -3.8      0.862      1.416
REMARK  Name = *****
REMARK                            x       y       z     vdW  Elec       q    Type
REMARK                         _______ _______ _______ _____ _____    ______ ____
ROOT
ATOM      1  C   LIG    1       25.287 -28.755   7.746  0.00  0.00    +0.147 C 
ATOM      2  C   LIG    1       24.162 -29.736   8.155  0.00  0.00    +0.068 C 
ATOM      3  C   LIG    1       24.425 -31.248   8.232  0.00  0.00    +0.141 C 
ATOM      4  O   LIG    1       24.690 -31.536   9.611  0.00  0.00    -0.344 OA
ATOM      5  C   LIG    1       25.304 -32.775   9.919  0.00  0.00    +0.172 C 
ATOM      6  C   LIG    1       25.099 -33.825   8.827  0.00  0.00    +0.097 C 
ATOM      7  C   LIG    1       25.667 -33.317   7.491  0.00  0.00    +0.136 C 
ATOM      8  C   LIG    1       24.856 -33.230  11.324  0.00  0.00    +0.096 C 
ATOM      9  C   LIG    1       23.468 -32.824  11.863  0.00  0.00    +0.122 C 
ATOM     10  C   LIG    1       22.259 -33.663  11.429  0.00  0.00    +0.066 C 
ATOM     11  C   LIG    1       21.596 -33.297  10.133  0.00  0.00    +0.154 C 
ATOM     12  C   LIG    1       20.373 -32.401   9.977  0.00  0.00    +0.171 C 
ATOM     13  C   LIG    1       20.034 -31.494  11.074  0.00  0.00    +0.014 C 
ATOM     14  C   LIG    1       20.382 -30.199  11.121  0.00  0.00    +0.090 C 
ATOM     15  C   LIG    1       20.204 -29.413  12.356  0.00  0.00    +0.332 C 
ATOM     16  O   LIG    1       19.619 -29.789  13.363  0.00  0.00    -0.246 OA
ATOM     17  O   LIG    1       20.896 -28.260  12.200  0.00  0.00    -0.458 OA
ATOM     18  C   LIG    1       21.188 -27.524  13.409  0.00  0.00    +0.177 C 
ATOM     19  C   LIG    1       20.029 -26.581  13.705  0.00  0.00    +0.052 C 
ATOM     20  C   LIG    1       22.491 -26.732  13.168  0.00  0.00    +0.071 C 
ATOM     21  C   LIG    1       23.655 -27.650  12.908  0.00  0.00    -0.023 C 
ATOM     22  C   LIG    1       24.941 -27.419  13.217  0.00  0.00    -0.004 C 
ATOM     23  C   LIG    1       25.930 -28.386  12.810  0.00  0.00    -0.000 C 
ATOM     24  C   LIG    1       27.237 -28.160  12.594  0.00  0.00    +0.000 C 
ATOM     25  C   LIG    1       27.986 -29.160  11.811  0.00  0.00    +0.000 C 
ATOM     26  C   LIG    1       28.021 -28.923  10.477  0.00  0.00    -0.000 C 
ATOM     27  C   LIG    1       26.831 -29.249   9.690  0.00  0.00    -0.002 C 
ATOM     28  O   LIG    1       20.259 -33.825  10.062  0.00  0.00    -0.364 OA
ATOM     29  C   LIG    1       25.475 -31.813   7.276  0.00  0.00    +0.155 C 
ATOM     30  C   LIG    1       26.632 -28.840   8.431  0.00  0.00    +0.004 C 
ENDROOT
BRANCH   7  31
ATOM     31  O   LIG    1       27.078 -33.576   7.436  0.00  0.00    -0.391 OA
ATOM     32  H   LIG    1       27.507 -32.882   7.986  0.00  0.00    +0.210 HD
ENDBRANCH   7  31
BRANCH   5  33
ATOM     33  O   LIG    1       26.718 -32.547   9.953  0.00  0.00    -0.364 OA
ATOM     34  H   LIG    1       26.985 -32.615  10.887  0.00  0.00    +0.213 HD
ENDBRANCH   5  33
BRANCH   9  35
ATOM     35  O   LIG    1       23.225 -31.426  11.748  0.00  0.00    -0.392 OA
ATOM     36  H   LIG    1       22.278 -31.278  11.936  0.00  0.00    +0.210 HD
ENDBRANCH   9  35
BRANCH  29  37
ATOM     37  C   LIG    1       25.044 -31.585   5.847  0.00  0.00    +0.313 C 
ATOM     38  O   LIG    1       25.723 -30.998   5.017  0.00  0.00    -0.251 OA
BRANCH  37  39
ATOM     39  O   LIG    1       23.832 -32.102   5.561  0.00  0.00    -0.480 OA
ATOM     40  H   LIG    1       23.852 -32.836   4.912  0.00  0.00    +0.295 HD
ENDBRANCH  37  39
ENDBRANCH  29  37
BRANCH   1  41
ATOM     41  O   LIG    1       24.883 -27.394   8.022  0.00  0.00    -0.341 OA
BRANCH  41  47
ATOM     42  C   LIG    1       25.878 -26.740   3.487  0.00  0.00    +0.040 C 
ATOM     43  C   LIG    1       24.981 -26.220   4.602  0.00  0.00    +0.148 C 
ATOM     44  C   LIG    1       25.162 -24.714   4.834  0.00  0.00    +0.162 C 
ATOM     45  C   LIG    1       24.292 -24.262   6.027  0.00  0.00    +0.116 C 
ATOM     46  C   LIG    1       24.584 -25.132   7.260  0.00  0.00    +0.189 C 
ATOM     47  C   LIG    1       24.481 -26.630   6.883  0.00  0.00    +0.281 C 
ATOM     48  O   LIG    1       25.319 -26.953   5.784  0.00  0.00    -0.343 OA
BRANCH  45  49
ATOM     49  N   LIG    1       24.527 -22.817   6.275  0.00  0.00    -0.323 NA
ATOM     50  H   LIG    1       23.658 -22.310   6.098  0.00  0.00    +0.119 HD
ATOM     51  H   LIG    1       24.656 -22.721   7.290  0.00  0.00    +0.119 HD
ENDBRANCH  45  49
BRANCH  44  52
ATOM     52  O   LIG    1       24.780 -23.964   3.679  0.00  0.00    -0.388 OA
ATOM     53  H   LIG    1       23.800 -23.968   3.704  0.00  0.00    +0.210 HD
ENDBRANCH  44  52
BRANCH  46  54
ATOM     54  O   LIG    1       25.899 -24.819   7.759  0.00  0.00    -0.385 OA
ATOM     55  H   LIG    1       25.856 -23.872   8.007  0.00  0.00    +0.210 HD
ENDBRANCH  46  54
ENDBRANCH  41  47
ENDBRANCH   1  41
TORSDOF 10
ENDMDL
MODEL 3
REMARK VINA RESULT:      -3.3      3.193      8.270
REMARK  Name = *****
REMARK                            x       y       z     vdW  Elec       q    Type
REMARK                         _______ _______ _______ _____ _____    ______ ____
ROOT
ATOM      1  C   LIG    1       22.428 -28.524  13.670  0.00  0.00    +0.147 C 
ATOM      2  C   LIG    1       23.187 -28.219  12.355  0.00  0.00    +0.068 C 
ATOM      3  C   LIG    1       24.612 -27.643  12.385  0.00  0.00    +0.141 C 
ATOM      4  O   LIG    1       25.495 -28.760  12.219  0.00  0.00    -0.344 OA
ATOM      5  C   LIG    1       26.859 -28.576  12.555  0.00  0.00    +0.172 C 
ATOM      6  C   LIG    1       27.284 -27.109  12.523  0.00  0.00    +0.097 C 
ATOM      7  C   LIG    1       26.426 -26.287  13.499  0.00  0.00    +0.136 C 
ATOM      8  C   LIG    1       27.728 -29.506  11.681  0.00  0.00    +0.096 C 
ATOM      9  C   LIG    1       27.258 -29.898  10.264  0.00  0.00    +0.122 C 
ATOM     10  C   LIG    1       27.526 -28.909   9.121  0.00  0.00    +0.066 C 
ATOM     11  C   LIG    1       26.512 -27.825   8.896  0.00  0.00    +0.154 C 
ATOM     12  C   LIG    1       25.366 -27.869   7.894  0.00  0.00    +0.171 C 
ATOM     13  C   LIG    1       24.936 -29.174   7.388  0.00  0.00    +0.014 C 
ATOM     14  C   LIG    1       23.901 -29.872   7.877  0.00  0.00    +0.090 C 
ATOM     15  C   LIG    1       23.675 -31.271   7.471  0.00  0.00    +0.332 C 
ATOM     16  O   LIG    1       24.278 -31.864   6.586  0.00  0.00    -0.246 OA
ATOM     17  O   LIG    1       22.763 -31.793   8.325  0.00  0.00    -0.458 OA
ATOM     18  C   LIG    1       22.683 -33.237   8.366  0.00  0.00    +0.177 C 
ATOM     19  C   LIG    1       21.696 -33.706   7.306  0.00  0.00    +0.052 C 
ATOM     20  C   LIG    1       22.202 -33.635   9.778  0.00  0.00    +0.071 C 
ATOM     21  C   LIG    1       23.183 -33.208  10.836  0.00  0.00    -0.023 C 
ATOM     22  C   LIG    1       23.416 -33.825  12.006  0.00  0.00    -0.004 C 
ATOM     23  C   LIG    1       24.337 -33.215  12.933  0.00  0.00    -0.000 C 
ATOM     24  C   LIG    1       24.365 -33.377  14.266  0.00  0.00    +0.000 C 
ATOM     25  C   LIG    1       25.103 -32.380  15.064  0.00  0.00    +0.000 C 
ATOM     26  C   LIG    1       24.356 -31.336  15.496  0.00  0.00    -0.000 C 
ATOM     27  C   LIG    1       24.033 -30.279  14.537  0.00  0.00    -0.002 C 
ATOM     28  O   LIG    1       26.625 -27.270   7.574  0.00  0.00    -0.364 OA
ATOM     29  C   LIG    1       24.968 -26.753  13.574  0.00  0.00    +0.155 C 
ATOM     30  C   LIG    1       23.107 -29.335  14.749  0.00  0.00    +0.004 C 
ENDROOT
BRANCH   7  31
ATOM     31  O   LIG    1       26.971 -26.387  14.823  0.00  0.00    -0.391 OA
ATOM     32  H   LIG    1       26.774 -25.531  15.267  0.00  0.00    +0.210 HD
ENDBRANCH   7  31
BRANCH   5  33
ATOM     33  O   LIG    1       27.014 -28.977  13.921  0.00  0.00    -0.364 OA
ATOM     34  H   LIG    1       26.258 -29.556  14.126  0.00  0.00    +0.213 HD
ENDBRANCH   5  33
BRANCH   9  35
ATOM     35  O   LIG    1       25.923 -30.392  10.249  0.00  0.00    -0.392 OA
ATOM     36  H   LIG    1       25.331 -29.638  10.440  0.00  0.00    +0.210 HD
ENDBRANCH   9  35
BRANCH  29  37
ATOM     37  C   LIG    1       24.078 -25.534  13.588  0.00  0.00    +0.313 C 
ATOM     38  O   LIG    1       22.874 -25.568  13.380  0.00  0.00    -0.251 OA
BRANCH  37  39
ATOM     39  O   LIG    1       24.736 -24.389  13.866  0.00  0.00    -0.480 OA
ATOM     40  H   LIG    1       24.152 -23.619  14.023  0.00  0.00    +0.295 HD
ENDBRANCH  37  39
ENDBRANCH  29  37
BRANCH   1  41
ATOM     41  O   LIG    1       21.246 -29.310  13.388  0.00  0.00    -0.341 OA
BRANCH  41  47
ATOM     42  C   LIG    1       16.713 -30.400  13.885  0.00  0.00    +0.040 C 
ATOM     43  C   LIG    1       17.783 -29.456  14.418  0.00  0.00    +0.148 C 
ATOM     44  C   LIG    1       17.385 -27.982  14.254  0.00  0.00    +0.162 C 
ATOM     45  C   LIG    1       18.539 -27.075  14.734  0.00  0.00    +0.116 C 
ATOM     46  C   LIG    1       19.849 -27.459  14.027  0.00  0.00    +0.189 C 
ATOM     47  C   LIG    1       20.092 -28.983  14.162  0.00  0.00    +0.281 C 
ATOM     48  O   LIG    1       18.984 -29.734  13.692  0.00  0.00    -0.343 OA
BRANCH  45  49
ATOM     49  N   LIG    1       18.161 -25.656  14.511  0.00  0.00    -0.323 NA
ATOM     50  H   LIG    1       17.381 -25.426  15.128  0.00  0.00    +0.119 HD
ATOM     51  H   LIG    1       18.936 -25.095  14.888  0.00  0.00    +0.119 HD
ENDBRANCH  45  49
BRANCH  44  52
ATOM     52  O   LIG    1       16.215 -27.675  15.015  0.00  0.00    -0.388 OA
ATOM     53  H   LIG    1       16.507 -27.759  15.947  0.00  0.00    +0.210 HD
ENDBRANCH  44  52
BRANCH  46  54
ATOM     54  O   LIG    1       19.770 -27.075  12.642  0.00  0.00    -0.385 OA
ATOM     55  H   LIG    1       19.308 -27.817  12.200  0.00  0.00    +0.210 HD
ENDBRANCH  46  54
ENDBRANCH  41  47
ENDBRANCH   1  41
TORSDOF 10
ENDMDL
MODEL 4
REMARK VINA RESULT:      -2.5      1.256      1.596
REMARK  Name = *****
REMARK                            x       y       z     vdW  Elec       q    Type
REMARK                         _______ _______ _______ _____ _____    ______ ____
ROOT
ATOM      1  C   LIG    1       24.942 -29.270   8.531  0.00  0.00    +0.147 C 
ATOM      2  C   LIG    1       23.886 -30.177   9.208  0.00  0.00    +0.068 C 
ATOM      3  C   LIG    1       24.268 -31.565   9.744  0.00  0.00    +0.141 C 
ATOM      4  O   LIG    1       24.504 -31.398  11.148  0.00  0.00    -0.344 OA
ATOM      5  C   LIG    1       25.206 -32.427  11.824  0.00  0.00    +0.172 C 
ATOM      6  C   LIG    1       25.126 -33.771  11.102  0.00  0.00    +0.097 C 
ATOM      7  C   LIG    1       25.699 -33.644   9.680  0.00  0.00    +0.136 C 
ATOM      8  C   LIG    1       24.745 -32.473  13.297  0.00  0.00    +0.096 C 
ATOM      9  C   LIG    1       23.310 -32.047  13.673  0.00  0.00    +0.122 C 
ATOM     10  C   LIG    1       22.189 -33.081  13.503  0.00  0.00    +0.066 C 
ATOM     11  C   LIG    1       21.546 -33.184  12.150  0.00  0.00    +0.154 C 
ATOM     12  C   LIG    1       20.262 -32.490  11.717  0.00  0.00    +0.171 C 
ATOM     13  C   LIG    1       19.810 -31.326  12.482  0.00  0.00    +0.014 C 
ATOM     14  C   LIG    1       20.050 -30.053  12.136  0.00  0.00    +0.090 C 
ATOM     15  C   LIG    1       19.765 -28.949  13.071  0.00  0.00    +0.332 C 
ATOM     16  O   LIG    1       19.176 -29.053  14.139  0.00  0.00    -0.246 OA
ATOM     17  O   LIG    1       20.366 -27.841  12.578  0.00  0.00    -0.458 OA
ATOM     18  C   LIG    1       20.553 -26.750  13.509  0.00  0.00    +0.177 C 
ATOM     19  C   LIG    1       19.312 -25.869  13.491  0.00  0.00    +0.052 C 
ATOM     20  C   LIG    1       21.796 -25.957  13.051  0.00  0.00    +0.071 C 
ATOM     21  C   LIG    1       23.039 -26.804  13.094  0.00  0.00    -0.023 C 
ATOM     22  C   LIG    1       24.290 -26.378  13.332  0.00  0.00    -0.004 C 
ATOM     23  C   LIG    1       25.368 -27.331  13.248  0.00  0.00    -0.000 C 
ATOM     24  C   LIG    1       26.660 -27.067  12.986  0.00  0.00    +0.000 C 
ATOM     25  C   LIG    1       27.515 -28.187  12.552  0.00  0.00    +0.000 C 
ATOM     26  C   LIG    1       27.580 -28.363  11.211  0.00  0.00    -0.000 C 
ATOM     27  C   LIG    1       26.449 -29.015  10.549  0.00  0.00    -0.002 C 
ATOM     28  O   LIG    1       20.260 -33.825  12.230  0.00  0.00    -0.364 OA
ATOM     29  C   LIG    1       25.393 -32.298   9.016  0.00  0.00    +0.155 C 
ATOM     30  C   LIG    1       26.263 -29.025   9.223  0.00  0.00    +0.004 C 
ENDROOT
BRANCH   7  31
ATOM     31  O   LIG    1       27.127 -33.782   9.721  0.00  0.00    -0.391 OA
ATOM     32  H   LIG    1       27.356 -34.476   9.063  0.00  0.00    +0.210 HD
ENDBRANCH   7  31
BRANCH   5  33
ATOM     33  O   LIG    1       26.594 -32.075  11.802  0.00  0.00    -0.364 OA
ATOM     34  H   LIG    1       26.681 -31.336  11.175  0.00  0.00    +0.213 HD
ENDBRANCH   5  33
BRANCH   9  35
ATOM     35  O   LIG    1       22.959 -30.776  13.135  0.00  0.00    -0.392 OA
ATOM     36  H   LIG    1       23.729 -30.187  13.257  0.00  0.00    +0.210 HD
ENDBRANCH   9  35
BRANCH  29  37
ATOM     37  C   LIG    1       24.998 -32.552   7.582  0.00  0.00    +0.313 C 
ATOM     38  O   LIG    1       23.968 -33.119   7.249  0.00  0.00    -0.251 OA
BRANCH  37  39
ATOM     39  O   LIG    1       25.891 -32.082   6.686  0.00  0.00    -0.480 OA
ATOM     40  H   LIG    1       25.955 -31.105   6.658  0.00  0.00    +0.295 HD
ENDBRANCH  37  39
ENDBRANCH  29  37
BRANCH   1  41
ATOM     41  O   LIG    1       24.419 -27.931   8.375  0.00  0.00    -0.341 OA
BRANCH  41  47
ATOM     42  C   LIG    1       24.103 -23.780   6.216  0.00  0.00    +0.040 C 
ATOM     43  C   LIG    1       24.905 -25.075   6.209  0.00  0.00    +0.148 C 
ATOM     44  C   LIG    1       24.878 -25.763   4.837  0.00  0.00    +0.162 C 
ATOM     45  C   LIG    1       25.634 -27.107   4.914  0.00  0.00    +0.116 C 
ATOM     46  C   LIG    1       25.083 -27.966   6.063  0.00  0.00    +0.189 C 
ATOM     47  C   LIG    1       25.053 -27.137   7.371  0.00  0.00    +0.281 C 
ATOM     48  O   LIG    1       24.331 -25.925   7.207  0.00  0.00    -0.343 OA
BRANCH  45  49
ATOM     49  N   LIG    1       25.545 -27.785   3.596  0.00  0.00    -0.323 NA
ATOM     50  H   LIG    1       25.109 -27.147   2.929  0.00  0.00    +0.119 HD
ATOM     51  H   LIG    1       26.511 -27.864   3.252  0.00  0.00    +0.119 HD
ENDBRANCH  45  49
BRANCH  44  52
ATOM     52  O   LIG    1       25.493 -24.947   3.838  0.00  0.00    -0.388 OA
ATOM     53  H   LIG    1       24.740 -24.594   3.320  0.00  0.00    +0.210 HD
ENDBRANCH  44  52
BRANCH  46  54
ATOM     54  O   LIG    1       23.762 -28.426   5.718  0.00  0.00    -0.385 OA
ATOM     55  H   LIG    1       23.153 -27.822   6.192  0.00  0.00    +0.210 HD
ENDBRANCH  46  54
ENDBRANCH  41  47
ENDBRANCH   1  41
TORSDOF 10
ENDMDL
