MODEL 1
REMARK VINA RESULT:      -7.2      0.000      0.000
REMARK  Name = *****
REMARK                            x       y       z     vdW  Elec       q    Type
REMARK                         _______ _______ _______ _____ _____    ______ ____
ROOT
ATOM      1  C   LIG    1       26.018 -22.471   8.835  0.00  0.00    +0.067 C 
ATOM      2  C   LIG    1       25.765 -22.427   7.365  0.00  0.00    +0.059 C 
ATOM      3  N   LIG    1       25.816 -21.177   6.734  0.00  0.00    -0.282 N 
ATOM      4  C   LIG    1       27.111 -20.479   6.688  0.00  0.00    +0.171 C 
ATOM      5  N   LIG    1       25.215 -21.357   5.461  0.00  0.00    -0.216 N 
ATOM      6  C   LIG    1       25.006 -22.731   5.265  0.00  0.00    +0.293 C 
ATOM      7  O   LIG    1       24.497 -23.325   4.320  0.00  0.00    -0.264 OA
ATOM      8  C   LIG    1       25.367 -23.433   6.563  0.00  0.00    +0.119 C 
ENDROOT
BRANCH   5   9
ATOM      9  C   LIG    1       24.344 -20.338   4.964  0.00  0.00    +0.067 A 
ATOM     10  C   LIG    1       24.763 -19.442   3.966  0.00  0.00    +0.028 A 
ATOM     11  C   LIG    1       23.928 -18.420   3.504  0.00  0.00    +0.002 A 
ATOM     12  C   LIG    1       22.661 -18.258   4.050  0.00  0.00    +0.000 A 
ATOM     13  C   LIG    1       22.226 -19.126   5.043  0.00  0.00    +0.002 A 
ATOM     14  C   LIG    1       23.056 -20.162   5.485  0.00  0.00    +0.028 A 
ENDBRANCH   5   9
BRANCH   8  15
ATOM     15  N   LIG    1       25.170 -24.805   6.720  0.00  0.00    -0.306 N 
ATOM     16  C   LIG    1       23.842 -25.390   6.539  0.00  0.00    +0.131 C 
BRANCH  15  17
ATOM     17  C   LIG    1       26.288 -25.771   6.461  0.00  0.00    +0.305 C 
BRANCH  17  18
ATOM     18  S   LIG    1       26.236 -26.987   5.084  0.00  0.00    +0.096 S 
ATOM     19  O   LIG    1       25.778 -26.339   3.866  0.00  0.00    -0.146 OA
ATOM     20  O   LIG    1       25.624 -28.202   5.552  0.00  0.00    -0.146 OA
BRANCH  18  21
ATOM     21  O   LIG    1       27.818 -27.270   4.900  0.00  0.00    -0.253 OA
ATOM     22  H   LIG    1       28.036 -27.271   3.932  0.00  0.00    +0.244 HD
ENDBRANCH  18  21
ENDBRANCH  17  18
ENDBRANCH  15  17
ENDBRANCH   8  15
TORSDOF 5
ENDMDL
MODEL 2
REMARK VINA RESULT:      -6.8      1.700      3.772
REMARK  Name = *****
REMARK                            x       y       z     vdW  Elec       q    Type
REMARK                         _______ _______ _______ _____ _____    ______ ____
ROOT
ATOM      1  C   LIG    1       24.143 -22.215   3.575  0.00  0.00    +0.067 C 
ATOM      2  C   LIG    1       24.744 -22.055   4.932  0.00  0.00    +0.059 C 
ATOM      3  N   LIG    1       25.251 -20.794   5.273  0.00  0.00    -0.282 N 
ATOM      4  C   LIG    1       24.299 -19.677   5.393  0.00  0.00    +0.171 C 
ATOM      5  N   LIG    1       26.050 -20.993   6.428  0.00  0.00    -0.216 N 
ATOM      6  C   LIG    1       25.848 -22.307   6.879  0.00  0.00    +0.293 C 
ATOM      7  O   LIG    1       26.352 -22.903   7.826  0.00  0.00    -0.264 OA
ATOM      8  C   LIG    1       24.979 -23.011   5.851  0.00  0.00    +0.119 C 
ENDROOT
BRANCH   5   9
ATOM      9  C   LIG    1       27.295 -20.298   6.528  0.00  0.00    +0.067 A 
ATOM     10  C   LIG    1       27.969 -20.180   7.756  0.00  0.00    +0.028 A 
ATOM     11  C   LIG    1       29.167 -19.469   7.867  0.00  0.00    +0.002 A 
ATOM     12  C   LIG    1       29.706 -18.838   6.753  0.00  0.00    +0.000 A 
ATOM     13  C   LIG    1       29.054 -18.932   5.529  0.00  0.00    +0.002 A 
ATOM     14  C   LIG    1       27.869 -19.665   5.418  0.00  0.00    +0.028 A 
ENDBRANCH   5   9
BRANCH   8  15
ATOM     15  N   LIG    1       24.681 -24.368   5.965  0.00  0.00    -0.306 N 
ATOM     16  C   LIG    1       23.389 -24.803   6.495  0.00  0.00    +0.131 C 
BRANCH  15  17
ATOM     17  C   LIG    1       25.314 -25.369   5.044  0.00  0.00    +0.305 C 
BRANCH  17  18
ATOM     18  S   LIG    1       25.868 -27.023   5.621  0.00  0.00    +0.096 S 
ATOM     19  O   LIG    1       25.051 -28.060   5.010  0.00  0.00    -0.146 OA
ATOM     20  O   LIG    1       26.070 -26.982   7.044  0.00  0.00    -0.146 OA
BRANCH  18  21
ATOM     21  O   LIG    1       27.322 -27.094   4.916  0.00  0.00    -0.253 OA
ATOM     22  H   LIG    1       28.016 -26.848   5.581  0.00  0.00    +0.244 HD
ENDBRANCH  18  21
ENDBRANCH  17  18
ENDBRANCH  15  17
ENDBRANCH   8  15
TORSDOF 5
ENDMDL
MODEL 3
REMARK VINA RESULT:      -6.2      2.511      4.699
REMARK  Name = *****
REMARK                            x       y       z     vdW  Elec       q    Type
REMARK                         _______ _______ _______ _____ _____    ______ ____
ROOT
ATOM      1  C   LIG    1       24.359 -21.450   3.186  0.00  0.00    +0.067 C 
ATOM      2  C   LIG    1       24.706 -20.960   4.553  0.00  0.00    +0.059 C 
ATOM      3  N   LIG    1       25.867 -20.189   4.690  0.00  0.00    -0.282 N 
ATOM      4  C   LIG    1       25.901 -18.868   4.040  0.00  0.00    +0.171 C 
ATOM      5  N   LIG    1       26.149 -20.150   6.081  0.00  0.00    -0.216 N 
ATOM      6  C   LIG    1       25.058 -20.711   6.764  0.00  0.00    +0.293 C 
ATOM      7  O   LIG    1       24.890 -20.896   7.965  0.00  0.00    -0.264 OA
ATOM      8  C   LIG    1       24.105 -21.265   5.719  0.00  0.00    +0.119 C 
ENDROOT
BRANCH   5   9
ATOM      9  C   LIG    1       27.507 -20.272   6.508  0.00  0.00    +0.067 A 
ATOM     10  C   LIG    1       27.890 -21.237   7.455  0.00  0.00    +0.028 A 
ATOM     11  C   LIG    1       29.210 -21.337   7.905  0.00  0.00    +0.002 A 
ATOM     12  C   LIG    1       30.173 -20.454   7.433  0.00  0.00    +0.000 A 
ATOM     13  C   LIG    1       29.818 -19.485   6.503  0.00  0.00    +0.002 A 
ATOM     14  C   LIG    1       28.502 -19.405   6.037  0.00  0.00    +0.028 A 
ENDBRANCH   5   9
BRANCH   8  15
ATOM     15  N   LIG    1       22.965 -21.978   6.087  0.00  0.00    -0.306 N 
ATOM     16  C   LIG    1       21.713 -21.810   5.350  0.00  0.00    +0.131 C 
BRANCH  15  17
ATOM     17  C   LIG    1       23.084 -23.312   6.762  0.00  0.00    +0.305 C 
BRANCH  17  18
ATOM     18  S   LIG    1       24.399 -24.519   6.327  0.00  0.00    +0.096 S 
ATOM     19  O   LIG    1       23.897 -25.876   6.478  0.00  0.00    -0.146 OA
ATOM     20  O   LIG    1       25.634 -24.114   6.945  0.00  0.00    -0.146 OA
BRANCH  18  21
ATOM     21  O   LIG    1       24.525 -24.238   4.739  0.00  0.00    -0.253 OA
ATOM     22  H   LIG    1       23.666 -24.470   4.301  0.00  0.00    +0.244 HD
ENDBRANCH  18  21
ENDBRANCH  17  18
ENDBRANCH  15  17
ENDBRANCH   8  15
TORSDOF 5
ENDMDL
MODEL 4
REMARK VINA RESULT:      -6.0      4.052      6.571
REMARK  Name = *****
REMARK                            x       y       z     vdW  Elec       q    Type
REMARK                         _______ _______ _______ _____ _____    ______ ____
ROOT
ATOM      1  C   LIG    1       26.546 -21.850   8.402  0.00  0.00    +0.067 C 
ATOM      2  C   LIG    1       27.509 -21.052   7.588  0.00  0.00    +0.059 C 
ATOM      3  N   LIG    1       28.798 -20.867   8.104  0.00  0.00    -0.282 N 
ATOM      4  C   LIG    1       29.662 -22.051   8.248  0.00  0.00    +0.171 C 
ATOM      5  N   LIG    1       29.380 -19.823   7.338  0.00  0.00    -0.216 N 
ATOM      6  C   LIG    1       28.527 -19.545   6.259  0.00  0.00    +0.293 C 
ATOM      7  O   LIG    1       28.630 -18.708   5.368  0.00  0.00    -0.264 OA
ATOM      8  C   LIG    1       27.267 -20.370   6.452  0.00  0.00    +0.119 C 
ENDROOT
BRANCH   5   9
ATOM      9  C   LIG    1       30.165 -18.836   8.010  0.00  0.00    +0.067 A 
ATOM     10  C   LIG    1       31.546 -18.721   7.780  0.00  0.00    +0.028 A 
ATOM     11  C   LIG    1       32.326 -17.782   8.463  0.00  0.00    +0.002 A 
ATOM     12  C   LIG    1       31.741 -16.952   9.411  0.00  0.00    +0.000 A 
ATOM     13  C   LIG    1       30.378 -17.052   9.663  0.00  0.00    +0.002 A 
ATOM     14  C   LIG    1       29.599 -17.975   8.960  0.00  0.00    +0.028 A 
ENDBRANCH   5   9
BRANCH   8  15
ATOM     15  N   LIG    1       26.178 -20.239   5.591  0.00  0.00    -0.306 N 
ATOM     16  C   LIG    1       26.329 -19.569   4.300  0.00  0.00    +0.131 C 
BRANCH  15  17
ATOM     17  C   LIG    1       25.059 -21.238   5.617  0.00  0.00    +0.305 C 
BRANCH  17  18
ATOM     18  S   LIG    1       23.383 -20.821   6.242  0.00  0.00    +0.096 S 
ATOM     19  O   LIG    1       22.829 -19.714   5.477  0.00  0.00    -0.146 OA
ATOM     20  O   LIG    1       23.412 -20.785   7.680  0.00  0.00    -0.146 OA
BRANCH  18  21
ATOM     21  O   LIG    1       22.578 -22.151   5.796  0.00  0.00    -0.253 OA
ATOM     22  H   LIG    1       21.846 -22.319   6.445  0.00  0.00    +0.244 HD
ENDBRANCH  18  21
ENDBRANCH  17  18
ENDBRANCH  15  17
ENDBRANCH   8  15
TORSDOF 5
ENDMDL
MODEL 5
REMARK VINA RESULT:      -5.9      3.033      5.659
REMARK  Name = *****
REMARK                            x       y       z     vdW  Elec       q    Type
REMARK                         _______ _______ _______ _____ _____    ______ ____
ROOT
ATOM      1  C   LIG    1       25.997 -20.833   4.346  0.00  0.00    +0.067 C 
ATOM      2  C   LIG    1       26.346 -20.420   5.737  0.00  0.00    +0.059 C 
ATOM      3  N   LIG    1       27.632 -19.912   5.959  0.00  0.00    -0.282 N 
ATOM      4  C   LIG    1       27.989 -18.633   5.324  0.00  0.00    +0.171 C 
ATOM      5  N   LIG    1       27.820 -19.926   7.366  0.00  0.00    -0.216 N 
ATOM      6  C   LIG    1       26.591 -20.238   7.968  0.00  0.00    +0.293 C 
ATOM      7  O   LIG    1       26.306 -20.376   9.154  0.00  0.00    -0.264 OA
ATOM      8  C   LIG    1       25.615 -20.583   6.856  0.00  0.00    +0.119 C 
ENDROOT
BRANCH   5   9
ATOM      9  C   LIG    1       29.088 -20.331   7.884  0.00  0.00    +0.067 A 
ATOM     10  C   LIG    1       29.366 -21.680   8.163  0.00  0.00    +0.028 A 
ATOM     11  C   LIG    1       30.592 -22.078   8.705  0.00  0.00    +0.002 A 
ATOM     12  C   LIG    1       31.561 -21.128   9.002  0.00  0.00    +0.000 A 
ATOM     13  C   LIG    1       31.308 -19.786   8.743  0.00  0.00    +0.002 A 
ATOM     14  C   LIG    1       30.090 -19.396   8.179  0.00  0.00    +0.028 A 
ENDBRANCH   5   9
BRANCH   8  15
ATOM     15  N   LIG    1       24.328 -21.036   7.140  0.00  0.00    -0.306 N 
ATOM     16  C   LIG    1       23.166 -20.420   6.500  0.00  0.00    +0.131 C 
BRANCH  15  17
ATOM     17  C   LIG    1       24.093 -22.457   7.559  0.00  0.00    +0.305 C 
BRANCH  17  18
ATOM     18  S   LIG    1       24.502 -23.882   6.474  0.00  0.00    +0.096 S 
ATOM     19  O   LIG    1       23.518 -24.939   6.651  0.00  0.00    -0.146 OA
ATOM     20  O   LIG    1       25.910 -24.158   6.569  0.00  0.00    -0.146 OA
BRANCH  18  21
ATOM     21  O   LIG    1       24.225 -23.219   5.024  0.00  0.00    -0.253 OA
ATOM     22  H   LIG    1       25.022 -23.354   4.449  0.00  0.00    +0.244 HD
ENDBRANCH  18  21
ENDBRANCH  17  18
ENDBRANCH  15  17
ENDBRANCH   8  15
TORSDOF 5
ENDMDL
MODEL 6
REMARK VINA RESULT:      -5.9      6.037      8.476
REMARK  Name = *****
REMARK                            x       y       z     vdW  Elec       q    Type
REMARK                         _______ _______ _______ _____ _____    ______ ____
ROOT
ATOM      1  C   LIG    1       27.179 -32.544   7.434  0.00  0.00    +0.067 C 
ATOM      2  C   LIG    1       25.955 -31.691   7.465  0.00  0.00    +0.059 C 
ATOM      3  N   LIG    1       25.783 -30.765   6.428  0.00  0.00    -0.282 N 
ATOM      4  C   LIG    1       25.575 -31.283   5.066  0.00  0.00    +0.171 C 
ATOM      5  N   LIG    1       24.767 -29.874   6.864  0.00  0.00    -0.216 N 
ATOM      6  C   LIG    1       24.207 -30.392   8.043  0.00  0.00    +0.293 C 
ATOM      7  O   LIG    1       23.323 -29.938   8.761  0.00  0.00    -0.264 OA
ATOM      8  C   LIG    1       25.030 -31.606   8.440  0.00  0.00    +0.119 C 
ENDROOT
BRANCH   5   9
ATOM      9  C   LIG    1       24.920 -28.479   6.599  0.00  0.00    +0.067 A 
ATOM     10  C   LIG    1       24.193 -27.846   5.576  0.00  0.00    +0.028 A 
ATOM     11  C   LIG    1       24.366 -26.489   5.288  0.00  0.00    +0.002 A 
ATOM     12  C   LIG    1       25.292 -25.739   6.004  0.00  0.00    +0.000 A 
ATOM     13  C   LIG    1       26.029 -26.344   7.014  0.00  0.00    +0.002 A 
ATOM     14  C   LIG    1       25.834 -27.695   7.315  0.00  0.00    +0.028 A 
ENDBRANCH   5   9
BRANCH   8  15
ATOM     15  N   LIG    1       24.783 -32.286   9.632  0.00  0.00    -0.306 N 
ATOM     16  C   LIG    1       24.247 -33.647   9.613  0.00  0.00    +0.131 C 
BRANCH  15  17
ATOM     17  C   LIG    1       25.576 -31.976  10.867  0.00  0.00    +0.305 C 
BRANCH  17  18
ATOM     18  S   LIG    1       26.468 -30.384  11.088  0.00  0.00    +0.096 S 
ATOM     19  O   LIG    1       25.527 -29.276  11.034  0.00  0.00    -0.146 OA
ATOM     20  O   LIG    1       27.652 -30.390  10.270  0.00  0.00    -0.146 OA
BRANCH  18  21
ATOM     21  O   LIG    1       26.931 -30.533  12.630  0.00  0.00    -0.253 OA
ATOM     22  H   LIG    1       26.471 -29.842  13.174  0.00  0.00    +0.244 HD
ENDBRANCH  18  21
ENDBRANCH  17  18
ENDBRANCH  15  17
ENDBRANCH   8  15
TORSDOF 5
ENDMDL
MODEL 7
REMARK VINA RESULT:      -5.8      7.999      9.069
REMARK  Name = *****
REMARK                            x       y       z     vdW  Elec       q    Type
REMARK                         _______ _______ _______ _____ _____    ______ ____
ROOT
ATOM      1  C   LIG    1       23.872 -31.960  10.945  0.00  0.00    +0.067 C 
ATOM      2  C   LIG    1       24.934 -30.913  10.918  0.00  0.00    +0.059 C 
ATOM      3  N   LIG    1       25.235 -30.261  12.121  0.00  0.00    -0.282 N 
ATOM      4  C   LIG    1       25.831 -31.057  13.207  0.00  0.00    +0.171 C 
ATOM      5  N   LIG    1       25.994 -29.115  11.767  0.00  0.00    -0.216 N 
ATOM      6  C   LIG    1       26.310 -29.205  10.402  0.00  0.00    +0.293 C 
ATOM      7  O   LIG    1       26.929 -28.427   9.683  0.00  0.00    -0.264 OA
ATOM      8  C   LIG    1       25.576 -30.412   9.845  0.00  0.00    +0.119 C 
ENDROOT
BRANCH   5   9
ATOM      9  C   LIG    1       25.735 -27.886  12.447  0.00  0.00    +0.067 A 
ATOM     10  C   LIG    1       24.483 -27.621  13.026  0.00  0.00    +0.028 A 
ATOM     11  C   LIG    1       24.212 -26.404  13.660  0.00  0.00    +0.002 A 
ATOM     12  C   LIG    1       25.186 -25.414  13.706  0.00  0.00    +0.000 A 
ATOM     13  C   LIG    1       26.430 -25.648  13.134  0.00  0.00    +0.002 A 
ATOM     14  C   LIG    1       26.703 -26.876  12.523  0.00  0.00    +0.028 A 
ENDBRANCH   5   9
BRANCH   8  15
ATOM     15  N   LIG    1       25.609 -30.712   8.483  0.00  0.00    -0.306 N 
ATOM     16  C   LIG    1       26.452 -31.797   7.982  0.00  0.00    +0.131 C 
BRANCH  15  17
ATOM     17  C   LIG    1       24.423 -30.427   7.610  0.00  0.00    +0.305 C 
BRANCH  17  18
ATOM     18  S   LIG    1       24.531 -29.344   6.130  0.00  0.00    +0.096 S 
ATOM     19  O   LIG    1       25.554 -29.841   5.224  0.00  0.00    -0.146 OA
ATOM     20  O   LIG    1       24.520 -27.968   6.552  0.00  0.00    -0.146 OA
BRANCH  18  21
ATOM     21  O   LIG    1       23.100 -29.662   5.444  0.00  0.00    -0.253 OA
ATOM     22  H   LIG    1       22.461 -28.940   5.679  0.00  0.00    +0.244 HD
ENDBRANCH  18  21
ENDBRANCH  17  18
ENDBRANCH  15  17
ENDBRANCH   8  15
TORSDOF 5
ENDMDL
MODEL 8
REMARK VINA RESULT:      -5.7      8.699      9.666
REMARK  Name = *****
REMARK                            x       y       z     vdW  Elec       q    Type
REMARK                         _______ _______ _______ _____ _____    ______ ____
ROOT
ATOM      1  C   LIG    1       22.175 -32.802  10.069  0.00  0.00    +0.067 C 
ATOM      2  C   LIG    1       23.145 -31.767  10.532  0.00  0.00    +0.059 C 
ATOM      3  N   LIG    1       22.917 -31.174  11.780  0.00  0.00    -0.282 N 
ATOM      4  C   LIG    1       23.016 -32.025  12.978  0.00  0.00    +0.171 C 
ATOM      5  N   LIG    1       23.746 -30.023  11.824  0.00  0.00    -0.216 N 
ATOM      6  C   LIG    1       24.599 -30.055  10.710  0.00  0.00    +0.293 C 
ATOM      7  O   LIG    1       25.454 -29.254  10.348  0.00  0.00    -0.264 OA
ATOM      8  C   LIG    1       24.170 -31.227   9.844  0.00  0.00    +0.119 C 
ENDROOT
BRANCH   5   9
ATOM      9  C   LIG    1       23.220 -28.822  12.392  0.00  0.00    +0.067 A 
ATOM     10  C   LIG    1       24.060 -27.872  12.999  0.00  0.00    +0.028 A 
ATOM     11  C   LIG    1       23.547 -26.713  13.589  0.00  0.00    +0.002 A 
ATOM     12  C   LIG    1       22.176 -26.491  13.606  0.00  0.00    +0.000 A 
ATOM     13  C   LIG    1       21.324 -27.418  13.021  0.00  0.00    +0.002 A 
ATOM     14  C   LIG    1       21.843 -28.564  12.410  0.00  0.00    +0.028 A 
ENDBRANCH   5   9
BRANCH   8  15
ATOM     15  N   LIG    1       24.765 -31.466   8.606  0.00  0.00    -0.306 N 
ATOM     16  C   LIG    1       25.757 -32.530   8.452  0.00  0.00    +0.131 C 
BRANCH  15  17
ATOM     17  C   LIG    1       24.040 -31.139   7.334  0.00  0.00    +0.305 C 
BRANCH  17  18
ATOM     18  S   LIG    1       24.553 -29.757   6.238  0.00  0.00    +0.096 S 
ATOM     19  O   LIG    1       25.574 -30.212   5.309  0.00  0.00    -0.146 OA
ATOM     20  O   LIG    1       24.750 -28.574   7.033  0.00  0.00    -0.146 OA
BRANCH  18  21
ATOM     21  O   LIG    1       23.194 -29.557   5.383  0.00  0.00    -0.253 OA
ATOM     22  H   LIG    1       22.624 -30.362   5.490  0.00  0.00    +0.244 HD
ENDBRANCH  18  21
ENDBRANCH  17  18
ENDBRANCH  15  17
ENDBRANCH   8  15
TORSDOF 5
ENDMDL
MODEL 9
REMARK VINA RESULT:      -5.5      4.088      6.231
REMARK  Name = *****
REMARK                            x       y       z     vdW  Elec       q    Type
REMARK                         _______ _______ _______ _____ _____    ______ ____
ROOT
ATOM      1  C   LIG    1       23.771 -22.295   7.979  0.00  0.00    +0.067 C 
ATOM      2  C   LIG    1       24.631 -21.746   6.889  0.00  0.00    +0.059 C 
ATOM      3  N   LIG    1       26.019 -21.876   7.031  0.00  0.00    -0.282 N 
ATOM      4  C   LIG    1       26.591 -23.233   7.012  0.00  0.00    +0.171 C 
ATOM      5  N   LIG    1       26.593 -20.998   6.075  0.00  0.00    -0.216 N 
ATOM      6  C   LIG    1       25.566 -20.520   5.247  0.00  0.00    +0.293 C 
ATOM      7  O   LIG    1       25.611 -19.727   4.312  0.00  0.00    -0.264 OA
ATOM      8  C   LIG    1       24.251 -21.021   5.820  0.00  0.00    +0.119 C 
ENDROOT
BRANCH   5   9
ATOM      9  C   LIG    1       27.738 -20.230   6.452  0.00  0.00    +0.067 A 
ATOM     10  C   LIG    1       28.156 -20.152   7.792  0.00  0.00    +0.028 A 
ATOM     11  C   LIG    1       29.253 -19.372   8.171  0.00  0.00    +0.002 A 
ATOM     12  C   LIG    1       29.941 -18.630   7.219  0.00  0.00    +0.000 A 
ATOM     13  C   LIG    1       29.541 -18.683   5.889  0.00  0.00    +0.002 A 
ATOM     14  C   LIG    1       28.460 -19.484   5.511  0.00  0.00    +0.028 A 
ENDBRANCH   5   9
BRANCH   8  15
ATOM     15  N   LIG    1       23.029 -20.630   5.274  0.00  0.00    -0.306 N 
ATOM     16  C   LIG    1       22.023 -21.628   4.915  0.00  0.00    +0.131 C 
BRANCH  15  17
ATOM     17  C   LIG    1       22.448 -19.284   5.591  0.00  0.00    +0.305 C 
BRANCH  17  18
ATOM     18  S   LIG    1       22.166 -18.007   4.301  0.00  0.00    +0.096 S 
ATOM     19  O   LIG    1       22.272 -16.679   4.885  0.00  0.00    -0.146 OA
ATOM     20  O   LIG    1       21.022 -18.378   3.512  0.00  0.00    -0.146 OA
BRANCH  18  21
ATOM     21  O   LIG    1       23.486 -18.229   3.392  0.00  0.00    -0.253 OA
ATOM     22  H   LIG    1       23.341 -19.007   2.795  0.00  0.00    +0.244 HD
ENDBRANCH  18  21
ENDBRANCH  17  18
ENDBRANCH  15  17
ENDBRANCH   8  15
TORSDOF 5
ENDMDL
