MODEL 1
REMARK VINA RESULT:      -8.7      0.000      0.000
REMARK  Name = *****
REMARK                            x       y       z     vdW  Elec       q    Type
REMARK                         _______ _______ _______ _____ _____    ______ ____
ROOT
ATOM      1  C   LIG    1       29.974 -18.807   7.244  0.00  0.00    +0.279 C 
ATOM      2  N   LIG    1       28.869 -19.618   7.480  0.00  0.00    -0.245 N 
ATOM      3  H   LIG    1       28.568 -19.749   8.446  0.00  0.00    +0.169 HD
ATOM      4  O   LIG    1       30.335 -18.467   6.115  0.00  0.00    -0.267 OA
ENDROOT
BRANCH   1   9
ATOM      5  C   LIG    1       31.451 -16.706  11.635  0.00  0.00    +0.089 C 
ATOM      6  C   LIG    1       31.254 -17.419  10.360  0.00  0.00    +0.135 A 
ATOM      7  O   LIG    1       32.205 -18.327  10.012  0.00  0.00    -0.359 OA
ATOM      8  N   LIG    1       31.851 -18.938   8.823  0.00  0.00    -0.073 NA
ATOM      9  C   LIG    1       30.676 -18.388   8.459  0.00  0.00    +0.169 A 
ATOM     10  C   LIG    1       30.275 -17.404   9.399  0.00  0.00    +0.080 A 
ENDBRANCH   1   9
BRANCH   2  11
ATOM     11  N   LIG    1       28.064 -20.107   6.422  0.00  0.00    -0.236 NA
ATOM     12  H   LIG    1       28.679 -20.569   5.741  0.00  0.00    +0.145 HD
BRANCH  11  13
ATOM     13  C   LIG    1       27.106 -21.113   6.908  0.00  0.00    +0.137 C 
BRANCH  13  14
ATOM     14  C   LIG    1       25.700 -20.781   6.465  0.00  0.00    -0.032 A 
ATOM     15  C   LIG    1       24.618 -20.920   7.347  0.00  0.00    +0.005 A 
ATOM     16  C   LIG    1       23.312 -20.680   6.910  0.00  0.00    +0.000 A 
ATOM     17  C   LIG    1       23.075 -20.302   5.590  0.00  0.00    +0.000 A 
ATOM     18  C   LIG    1       24.142 -20.143   4.709  0.00  0.00    +0.000 A 
ATOM     19  C   LIG    1       25.449 -20.379   5.145  0.00  0.00    +0.005 A 
ENDBRANCH  13  14
ENDBRANCH  11  13
ENDBRANCH   2  11
TORSDOF 4
ENDMDL
MODEL 2
REMARK VINA RESULT:      -8.7      0.062      1.172
REMARK  Name = *****
REMARK                            x       y       z     vdW  Elec       q    Type
REMARK                         _______ _______ _______ _____ _____    ______ ____
ROOT
ATOM      1  C   LIG    1       29.969 -18.821   7.234  0.00  0.00    +0.279 C 
ATOM      2  N   LIG    1       28.851 -19.610   7.477  0.00  0.00    -0.245 N 
ATOM      3  H   LIG    1       28.548 -19.727   8.445  0.00  0.00    +0.169 HD
ATOM      4  O   LIG    1       30.336 -18.497   6.101  0.00  0.00    -0.267 OA
ENDROOT
BRANCH   1   9
ATOM      5  C   LIG    1       31.481 -16.712  11.609  0.00  0.00    +0.089 C 
ATOM      6  C   LIG    1       31.273 -17.430  10.338  0.00  0.00    +0.135 A 
ATOM      7  O   LIG    1       32.213 -18.351   9.993  0.00  0.00    -0.359 OA
ATOM      8  N   LIG    1       31.849 -18.964   8.809  0.00  0.00    -0.073 NA
ATOM      9  C   LIG    1       30.679 -18.403   8.444  0.00  0.00    +0.169 A 
ATOM     10  C   LIG    1       30.292 -17.409   9.379  0.00  0.00    +0.080 A 
ENDBRANCH   1   9
BRANCH   2  11
ATOM     11  N   LIG    1       28.037 -20.095   6.424  0.00  0.00    -0.236 NA
ATOM     12  H   LIG    1       28.647 -20.546   5.732  0.00  0.00    +0.145 HD
BRANCH  11  13
ATOM     13  C   LIG    1       27.092 -21.113   6.912  0.00  0.00    +0.137 C 
BRANCH  13  14
ATOM     14  C   LIG    1       25.694 -20.841   6.405  0.00  0.00    -0.032 A 
ATOM     15  C   LIG    1       25.480 -20.406   5.090  0.00  0.00    +0.005 A 
ATOM     16  C   LIG    1       24.192 -20.088   4.650  0.00  0.00    +0.000 A 
ATOM     17  C   LIG    1       23.108 -20.200   5.518  0.00  0.00    +0.000 A 
ATOM     18  C   LIG    1       23.306 -20.650   6.822  0.00  0.00    +0.000 A 
ATOM     19  C   LIG    1       24.591 -20.971   7.263  0.00  0.00    +0.005 A 
ENDBRANCH  13  14
ENDBRANCH  11  13
ENDBRANCH   2  11
TORSDOF 4
ENDMDL
MODEL 3
REMARK VINA RESULT:      -8.7      1.355      1.826
REMARK  Name = *****
REMARK                            x       y       z     vdW  Elec       q    Type
REMARK                         _______ _______ _______ _____ _____    ______ ____
ROOT
ATOM      1  C   LIG    1       29.575 -20.378   7.904  0.00  0.00    +0.279 C 
ATOM      2  N   LIG    1       28.866 -19.889   6.812  0.00  0.00    -0.245 N 
ATOM      3  H   LIG    1       29.148 -18.988   6.423  0.00  0.00    +0.169 HD
ATOM      4  O   LIG    1       29.415 -21.513   8.361  0.00  0.00    -0.267 OA
ENDROOT
BRANCH   1   9
ATOM      5  C   LIG    1       32.145 -16.275   9.463  0.00  0.00    +0.089 C 
ATOM      6  C   LIG    1       31.600 -17.595   9.097  0.00  0.00    +0.135 A 
ATOM      7  O   LIG    1       32.265 -18.685   9.566  0.00  0.00    -0.359 OA
ATOM      8  N   LIG    1       31.605 -19.835   9.176  0.00  0.00    -0.073 NA
ATOM      9  C   LIG    1       30.534 -19.426   8.468  0.00  0.00    +0.169 A 
ATOM     10  C   LIG    1       30.508 -18.011   8.377  0.00  0.00    +0.080 A 
ENDBRANCH   1   9
BRANCH   2  11
ATOM     11  N   LIG    1       27.905 -20.677   6.133  0.00  0.00    -0.236 NA
ATOM     12  H   LIG    1       28.308 -21.610   5.980  0.00  0.00    +0.145 HD
BRANCH  11  13
ATOM     13  C   LIG    1       26.690 -20.847   6.947  0.00  0.00    +0.137 C 
BRANCH  13  14
ATOM     14  C   LIG    1       25.448 -20.575   6.130  0.00  0.00    -0.032 A 
ATOM     15  C   LIG    1       25.545 -20.147   4.798  0.00  0.00    +0.005 A 
ATOM     16  C   LIG    1       24.394 -19.827   4.071  0.00  0.00    +0.000 A 
ATOM     17  C   LIG    1       23.139 -19.930   4.667  0.00  0.00    +0.000 A 
ATOM     18  C   LIG    1       23.029 -20.371   5.984  0.00  0.00    +0.000 A 
ATOM     19  C   LIG    1       24.177 -20.695   6.711  0.00  0.00    +0.005 A 
ENDBRANCH  13  14
ENDBRANCH  11  13
ENDBRANCH   2  11
TORSDOF 4
ENDMDL
MODEL 4
REMARK VINA RESULT:      -8.5      1.177      1.524
REMARK  Name = *****
REMARK                            x       y       z     vdW  Elec       q    Type
REMARK                         _______ _______ _______ _____ _____    ______ ____
ROOT
ATOM      1  C   LIG    1       29.986 -19.356   7.619  0.00  0.00    +0.279 C 
ATOM      2  N   LIG    1       28.713 -19.816   7.937  0.00  0.00    -0.245 N 
ATOM      3  H   LIG    1       28.323 -19.559   8.844  0.00  0.00    +0.169 HD
ATOM      4  O   LIG    1       30.493 -19.484   6.502  0.00  0.00    -0.267 OA
ENDROOT
BRANCH   1   9
ATOM      5  C   LIG    1       31.385 -16.487  11.579  0.00  0.00    +0.089 C 
ATOM      6  C   LIG    1       31.218 -17.405  10.438  0.00  0.00    +0.135 A 
ATOM      7  O   LIG    1       32.228 -18.286  10.207  0.00  0.00    -0.359 OA
ATOM      8  N   LIG    1       31.898 -19.101   9.140  0.00  0.00    -0.073 NA
ATOM      9  C   LIG    1       30.678 -18.701   8.731  0.00  0.00    +0.169 A 
ATOM     10  C   LIG    1       30.222 -17.612   9.517  0.00  0.00    +0.080 A 
ENDBRANCH   1   9
BRANCH   2  11
ATOM     11  N   LIG    1       27.894 -20.464   6.980  0.00  0.00    -0.236 NA
ATOM     12  H   LIG    1       28.455 -20.619   6.133  0.00  0.00    +0.145 HD
BRANCH  11  13
ATOM     13  C   LIG    1       27.453 -21.781   7.466  0.00  0.00    +0.137 C 
BRANCH  13  14
ATOM     14  C   LIG    1       25.965 -21.963   7.268  0.00  0.00    -0.032 A 
ATOM     15  C   LIG    1       25.081 -20.890   7.450  0.00  0.00    +0.005 A 
ATOM     16  C   LIG    1       23.702 -21.081   7.336  0.00  0.00    +0.000 A 
ATOM     17  C   LIG    1       23.193 -22.345   7.041  0.00  0.00    +0.000 A 
ATOM     18  C   LIG    1       24.062 -23.415   6.840  0.00  0.00    +0.000 A 
ATOM     19  C   LIG    1       25.442 -23.225   6.950  0.00  0.00    +0.005 A 
ENDBRANCH  13  14
ENDBRANCH  11  13
ENDBRANCH   2  11
TORSDOF 4
ENDMDL
MODEL 5
REMARK VINA RESULT:      -8.3      5.843      8.205
REMARK  Name = *****
REMARK                            x       y       z     vdW  Elec       q    Type
REMARK                         _______ _______ _______ _____ _____    ______ ____
ROOT
ATOM      1  C   LIG    1       24.289 -24.703   6.526  0.00  0.00    +0.279 C 
ATOM      2  N   LIG    1       25.270 -23.776   6.862  0.00  0.00    -0.245 N 
ATOM      3  H   LIG    1       26.233 -23.979   6.594  0.00  0.00    +0.169 HD
ATOM      4  O   LIG    1       23.082 -24.494   6.673  0.00  0.00    -0.267 OA
ENDROOT
BRANCH   1   9
ATOM      5  C   LIG    1       25.254 -29.534   5.262  0.00  0.00    +0.089 C 
ATOM      6  C   LIG    1       25.183 -28.080   5.493  0.00  0.00    +0.135 A 
ATOM      7  O   LIG    1       26.021 -27.300   4.759  0.00  0.00    -0.359 OA
ATOM      8  N   LIG    1       25.797 -25.969   5.058  0.00  0.00    -0.073 NA
ATOM      9  C   LIG    1       24.815 -25.955   5.979  0.00  0.00    +0.169 A 
ATOM     10  C   LIG    1       24.413 -27.278   6.297  0.00  0.00    +0.080 A 
ENDBRANCH   1   9
BRANCH   2  11
ATOM     11  N   LIG    1       24.943 -22.504   7.394  0.00  0.00    -0.236 NA
ATOM     12  H   LIG    1       25.238 -22.486   8.378  0.00  0.00    +0.145 HD
BRANCH  11  13
ATOM     13  C   LIG    1       25.671 -21.435   6.693  0.00  0.00    +0.137 C 
BRANCH  13  14
ATOM     14  C   LIG    1       24.753 -20.673   5.765  0.00  0.00    -0.032 A 
ATOM     15  C   LIG    1       25.229 -20.149   4.554  0.00  0.00    +0.005 A 
ATOM     16  C   LIG    1       24.394 -19.384   3.735  0.00  0.00    +0.000 A 
ATOM     17  C   LIG    1       23.078 -19.134   4.118  0.00  0.00    +0.000 A 
ATOM     18  C   LIG    1       22.587 -19.664   5.310  0.00  0.00    +0.000 A 
ATOM     19  C   LIG    1       23.419 -20.431   6.128  0.00  0.00    +0.005 A 
ENDBRANCH  13  14
ENDBRANCH  11  13
ENDBRANCH   2  11
TORSDOF 4
ENDMDL
MODEL 6
REMARK VINA RESULT:      -8.3      2.821      4.203
REMARK  Name = *****
REMARK                            x       y       z     vdW  Elec       q    Type
REMARK                         _______ _______ _______ _____ _____    ______ ____
ROOT
ATOM      1  C   LIG    1       26.076 -21.782   7.831  0.00  0.00    +0.279 C 
ATOM      2  N   LIG    1       25.023 -20.875   7.836  0.00  0.00    -0.245 N 
ATOM      3  H   LIG    1       25.230 -19.899   7.618  0.00  0.00    +0.169 HD
ATOM      4  O   LIG    1       25.920 -23.001   7.938  0.00  0.00    -0.267 OA
ENDROOT
BRANCH   1   9
ATOM      5  C   LIG    1       30.123 -19.006   6.493  0.00  0.00    +0.089 C 
ATOM      6  C   LIG    1       29.112 -19.932   7.034  0.00  0.00    +0.135 A 
ATOM      7  O   LIG    1       29.482 -20.688   8.102  0.00  0.00    -0.359 OA
ATOM      8  N   LIG    1       28.413 -21.462   8.515  0.00  0.00    -0.073 NA
ATOM      9  C   LIG    1       27.396 -21.164   7.685  0.00  0.00    +0.169 A 
ATOM     10  C   LIG    1       27.806 -20.211   6.717  0.00  0.00    +0.080 A 
ENDBRANCH   1   9
BRANCH   2  11
ATOM     11  N   LIG    1       23.676 -21.296   7.957  0.00  0.00    -0.236 NA
ATOM     12  H   LIG    1       23.103 -20.472   8.177  0.00  0.00    +0.145 HD
BRANCH  11  13
ATOM     13  C   LIG    1       23.181 -21.854   6.688  0.00  0.00    +0.137 C 
BRANCH  13  14
ATOM     14  C   LIG    1       23.343 -20.861   5.560  0.00  0.00    -0.032 A 
ATOM     15  C   LIG    1       24.364 -21.015   4.611  0.00  0.00    +0.005 A 
ATOM     16  C   LIG    1       24.553 -20.055   3.612  0.00  0.00    +0.000 A 
ATOM     17  C   LIG    1       23.727 -18.934   3.553  0.00  0.00    +0.000 A 
ATOM     18  C   LIG    1       22.698 -18.780   4.480  0.00  0.00    +0.000 A 
ATOM     19  C   LIG    1       22.504 -19.739   5.476  0.00  0.00    +0.005 A 
ENDBRANCH  13  14
ENDBRANCH  11  13
ENDBRANCH   2  11
TORSDOF 4
ENDMDL
MODEL 7
REMARK VINA RESULT:      -7.9      2.152      3.034
REMARK  Name = *****
REMARK                            x       y       z     vdW  Elec       q    Type
REMARK                         _______ _______ _______ _____ _____    ______ ____
ROOT
ATOM      1  C   LIG    1       27.218 -20.661   7.692  0.00  0.00    +0.279 C 
ATOM      2  N   LIG    1       26.856 -21.611   6.744  0.00  0.00    -0.245 N 
ATOM      3  H   LIG    1       27.564 -21.912   6.073  0.00  0.00    +0.169 HD
ATOM      4  O   LIG    1       26.491 -20.333   8.634  0.00  0.00    -0.267 OA
ENDROOT
BRANCH   1   9
ATOM      5  C   LIG    1       31.750 -18.386   8.087  0.00  0.00    +0.089 C 
ATOM      6  C   LIG    1       30.490 -19.060   7.725  0.00  0.00    +0.135 A 
ATOM      7  O   LIG    1       30.399 -19.552   6.460  0.00  0.00    -0.359 OA
ATOM      8  N   LIG    1       29.184 -20.190   6.297  0.00  0.00    -0.073 NA
ATOM      9  C   LIG    1       28.544 -20.078   7.477  0.00  0.00    +0.169 A 
ATOM     10  C   LIG    1       29.332 -19.348   8.403  0.00  0.00    +0.080 A 
ENDBRANCH   1   9
BRANCH   2  11
ATOM     11  N   LIG    1       25.613 -22.287   6.802  0.00  0.00    -0.236 NA
ATOM     12  H   LIG    1       24.975 -21.730   7.384  0.00  0.00    +0.145 HD
BRANCH  11  13
ATOM     13  C   LIG    1       25.009 -22.400   5.465  0.00  0.00    +0.137 C 
BRANCH  13  14
ATOM     14  C   LIG    1       24.296 -21.123   5.082  0.00  0.00    -0.032 A 
ATOM     15  C   LIG    1       23.160 -20.697   5.785  0.00  0.00    +0.005 A 
ATOM     16  C   LIG    1       22.464 -19.555   5.381  0.00  0.00    +0.000 A 
ATOM     17  C   LIG    1       22.894 -18.830   4.271  0.00  0.00    +0.000 A 
ATOM     18  C   LIG    1       24.031 -19.233   3.575  0.00  0.00    +0.000 A 
ATOM     19  C   LIG    1       24.731 -20.372   3.980  0.00  0.00    +0.005 A 
ENDBRANCH  13  14
ENDBRANCH  11  13
ENDBRANCH   2  11
TORSDOF 4
ENDMDL
MODEL 8
REMARK VINA RESULT:      -7.9      2.516      3.072
REMARK  Name = *****
REMARK                            x       y       z     vdW  Elec       q    Type
REMARK                         _______ _______ _______ _____ _____    ______ ____
ROOT
ATOM      1  C   LIG    1       28.882 -19.384   5.830  0.00  0.00    +0.279 C 
ATOM      2  N   LIG    1       27.839 -20.254   5.533  0.00  0.00    -0.245 N 
ATOM      3  H   LIG    1       27.736 -21.092   6.107  0.00  0.00    +0.169 HD
ATOM      4  O   LIG    1       29.014 -18.278   5.298  0.00  0.00    -0.267 OA
ENDROOT
BRANCH   1   9
ATOM      5  C   LIG    1       31.295 -21.960   9.492  0.00  0.00    +0.089 C 
ATOM      6  C   LIG    1       30.793 -21.054   8.443  0.00  0.00    +0.135 A 
ATOM      7  O   LIG    1       31.653 -20.101   7.993  0.00  0.00    -0.359 OA
ATOM      8  N   LIG    1       31.049 -19.371   6.986  0.00  0.00    -0.073 NA
ATOM      9  C   LIG    1       29.817 -19.894   6.835  0.00  0.00    +0.169 A 
ATOM     10  C   LIG    1       29.609 -20.951   7.757  0.00  0.00    +0.080 A 
ENDBRANCH   1   9
BRANCH   2  11
ATOM     11  N   LIG    1       26.834 -19.920   4.592  0.00  0.00    -0.236 NA
ATOM     12  H   LIG    1       27.233 -20.024   3.651  0.00  0.00    +0.145 HD
BRANCH  11  13
ATOM     13  C   LIG    1       25.689 -20.839   4.693  0.00  0.00    +0.137 C 
BRANCH  13  14
ATOM     14  C   LIG    1       24.383 -20.098   4.518  0.00  0.00    -0.032 A 
ATOM     15  C   LIG    1       24.322 -18.921   3.759  0.00  0.00    +0.005 A 
ATOM     16  C   LIG    1       23.127 -18.203   3.661  0.00  0.00    +0.000 A 
ATOM     17  C   LIG    1       21.984 -18.652   4.320  0.00  0.00    +0.000 A 
ATOM     18  C   LIG    1       22.028 -19.830   5.062  0.00  0.00    +0.000 A 
ATOM     19  C   LIG    1       23.220 -20.551   5.159  0.00  0.00    +0.005 A 
ENDBRANCH  13  14
ENDBRANCH  11  13
ENDBRANCH   2  11
TORSDOF 4
ENDMDL
MODEL 9
REMARK VINA RESULT:      -7.9      6.601      8.836
REMARK  Name = *****
REMARK                            x       y       z     vdW  Elec       q    Type
REMARK                         _______ _______ _______ _____ _____    ______ ____
ROOT
ATOM      1  C   LIG    1       25.458 -26.086   5.659  0.00  0.00    +0.279 C 
ATOM      2  N   LIG    1       24.474 -25.171   5.301  0.00  0.00    -0.245 N 
ATOM      3  H   LIG    1       23.500 -25.421   5.480  0.00  0.00    +0.169 HD
ATOM      4  O   LIG    1       26.665 -25.831   5.621  0.00  0.00    -0.267 OA
ENDROOT
BRANCH   1   9
ATOM      5  C   LIG    1       24.233 -30.356   8.135  0.00  0.00    +0.089 C 
ATOM      6  C   LIG    1       24.465 -29.223   7.221  0.00  0.00    +0.135 A 
ATOM      7  O   LIG    1       23.782 -29.234   6.045  0.00  0.00    -0.359 OA
ATOM      8  N   LIG    1       24.073 -28.088   5.329  0.00  0.00    -0.073 NA
ATOM      9  C   LIG    1       24.937 -27.385   6.088  0.00  0.00    +0.169 A 
ATOM     10  C   LIG    1       25.227 -28.084   7.288  0.00  0.00    +0.080 A 
ENDBRANCH   1   9
BRANCH   2  11
ATOM     11  N   LIG    1       24.794 -23.860   4.872  0.00  0.00    -0.236 NA
ATOM     12  H   LIG    1       24.179 -23.623   4.084  0.00  0.00    +0.145 HD
BRANCH  11  13
ATOM     13  C   LIG    1       24.544 -22.878   5.940  0.00  0.00    +0.137 C 
BRANCH  13  14
ATOM     14  C   LIG    1       24.090 -21.556   5.365  0.00  0.00    -0.032 A 
ATOM     15  C   LIG    1       23.019 -20.855   5.937  0.00  0.00    +0.005 A 
ATOM     16  C   LIG    1       22.558 -19.669   5.358  0.00  0.00    +0.000 A 
ATOM     17  C   LIG    1       23.160 -19.175   4.203  0.00  0.00    +0.000 A 
ATOM     18  C   LIG    1       24.237 -19.853   3.635  0.00  0.00    +0.000 A 
ATOM     19  C   LIG    1       24.702 -21.036   4.215  0.00  0.00    +0.005 A 
ENDBRANCH  13  14
ENDBRANCH  11  13
ENDBRANCH   2  11
TORSDOF 4
ENDMDL
