MODEL 1
REMARK VINA RESULT:      -6.3      0.000      0.000
REMARK  Name = *****
REMARK                            x       y       z     vdW  Elec       q    Type
REMARK                         _______ _______ _______ _____ _____    ______ ____
ROOT
ATOM      1  C   LIG    1       24.104 -21.350   6.933  0.00  0.00    +0.042 A 
ATOM      2  N   LIG    1       24.910 -21.084   7.987  0.00  0.00    -0.260 NA
ATOM      3  C   LIG    1       25.844 -22.005   8.312  0.00  0.00    +0.112 A 
ATOM      4  C   LIG    1       26.015 -23.198   7.638  0.00  0.00    +0.030 A 
ATOM      5  C   LIG    1       25.181 -23.467   6.553  0.00  0.00    +0.006 A 
ATOM      6  C   LIG    1       24.217 -22.519   6.186  0.00  0.00    +0.033 A 
ENDROOT
BRANCH   5   7
ATOM      7  C   LIG    1       25.303 -24.737   5.785  0.00  0.00    +0.077 C 
ATOM      8  S   LIG    1       26.011 -26.145   6.344  0.00  0.00    -0.035 S 
BRANCH   7   9
ATOM      9  N   LIG    1       24.779 -24.744   4.517  0.00  0.00    -0.352 N 
ATOM     10  H   LIG    1       24.258 -23.931   4.206  0.00  0.00    +0.143 HD
ATOM     11  H   LIG    1       25.002 -25.443   3.819  0.00  0.00    +0.143 HD
ENDBRANCH   7   9
ENDBRANCH   5   7
BRANCH   1  12
ATOM     12  C   LIG    1       23.059 -20.317   6.593  0.00  0.00    +0.055 C 
BRANCH  12  14
ATOM     13  C   LIG    1       22.345 -18.923   4.620  0.00  0.00    +0.004 C 
ATOM     14  C   LIG    1       22.696 -20.322   5.108  0.00  0.00    +0.003 C 
ENDBRANCH  12  14
ENDBRANCH   1  12
TORSDOF 4
ENDMDL
MODEL 2
REMARK VINA RESULT:      -6.3      2.915      3.343
REMARK  Name = *****
REMARK                            x       y       z     vdW  Elec       q    Type
REMARK                         _______ _______ _______ _____ _____    ______ ____
ROOT
ATOM      1  C   LIG    1       24.375 -20.886   6.832  0.00  0.00    +0.042 A 
ATOM      2  N   LIG    1       24.351 -21.590   7.987  0.00  0.00    -0.260 NA
ATOM      3  C   LIG    1       25.532 -21.838   8.596  0.00  0.00    +0.112 A 
ATOM      4  C   LIG    1       26.753 -21.423   8.104  0.00  0.00    +0.030 A 
ATOM      5  C   LIG    1       26.771 -20.699   6.912  0.00  0.00    +0.006 A 
ATOM      6  C   LIG    1       25.558 -20.414   6.273  0.00  0.00    +0.033 A 
ENDROOT
BRANCH   5   7
ATOM      7  C   LIG    1       28.052 -20.226   6.318  0.00  0.00    +0.077 C 
ATOM      8  S   LIG    1       29.529 -20.186   7.103  0.00  0.00    -0.035 S 
BRANCH   7   9
ATOM      9  N   LIG    1       28.009 -19.801   5.015  0.00  0.00    -0.352 N 
ATOM     10  H   LIG    1       28.230 -18.831   4.816  0.00  0.00    +0.143 HD
ATOM     11  H   LIG    1       27.916 -20.424   4.221  0.00  0.00    +0.143 HD
ENDBRANCH   7   9
ENDBRANCH   5   7
BRANCH   1  12
ATOM     12  C   LIG    1       23.049 -20.629   6.160  0.00  0.00    +0.055 C 
BRANCH  12  14
ATOM     13  C   LIG    1       22.286 -18.726   4.696  0.00  0.00    +0.004 C 
ATOM     14  C   LIG    1       23.206 -19.935   4.807  0.00  0.00    +0.003 C 
ENDBRANCH  12  14
ENDBRANCH   1  12
TORSDOF 4
ENDMDL
MODEL 3
REMARK VINA RESULT:      -6.2      5.783      7.279
REMARK  Name = *****
REMARK                            x       y       z     vdW  Elec       q    Type
REMARK                         _______ _______ _______ _____ _____    ______ ____
ROOT
ATOM      1  C   LIG    1       31.162 -18.945   8.626  0.00  0.00    +0.042 A 
ATOM      2  N   LIG    1       31.738 -20.066   9.119  0.00  0.00    -0.260 NA
ATOM      3  C   LIG    1       31.132 -21.247   8.867  0.00  0.00    +0.112 A 
ATOM      4  C   LIG    1       29.961 -21.372   8.145  0.00  0.00    +0.030 A 
ATOM      5  C   LIG    1       29.372 -20.213   7.641  0.00  0.00    +0.006 A 
ATOM      6  C   LIG    1       29.992 -18.979   7.874  0.00  0.00    +0.033 A 
ENDROOT
BRANCH   5   7
ATOM      7  C   LIG    1       28.104 -20.272   6.861  0.00  0.00    +0.077 C 
ATOM      8  S   LIG    1       26.584 -20.553   7.499  0.00  0.00    -0.035 S 
BRANCH   7   9
ATOM      9  N   LIG    1       28.202 -20.066   5.508  0.00  0.00    -0.352 N 
ATOM     10  H   LIG    1       28.055 -20.855   4.888  0.00  0.00    +0.143 HD
ATOM     11  H   LIG    1       28.264 -19.150   5.080  0.00  0.00    +0.143 HD
ENDBRANCH   7   9
ENDBRANCH   5   7
BRANCH   1  12
ATOM     12  C   LIG    1       31.845 -17.635   8.929  0.00  0.00    +0.055 C 
BRANCH  12  14
ATOM     13  C   LIG    1       30.613 -17.306  11.101  0.00  0.00    +0.004 C 
ATOM     14  C   LIG    1       30.964 -16.694   9.752  0.00  0.00    +0.003 C 
ENDBRANCH  12  14
ENDBRANCH   1  12
TORSDOF 4
ENDMDL
MODEL 4
REMARK VINA RESULT:      -6.2      3.349      3.932
REMARK  Name = *****
REMARK                            x       y       z     vdW  Elec       q    Type
REMARK                         _______ _______ _______ _____ _____    ______ ____
ROOT
ATOM      1  C   LIG    1       25.070 -20.561   6.053  0.00  0.00    +0.042 A 
ATOM      2  N   LIG    1       24.623 -20.768   7.313  0.00  0.00    -0.260 NA
ATOM      3  C   LIG    1       25.529 -20.742   8.315  0.00  0.00    +0.112 A 
ATOM      4  C   LIG    1       26.879 -20.526   8.125  0.00  0.00    +0.030 A 
ATOM      5  C   LIG    1       27.335 -20.314   6.823  0.00  0.00    +0.006 A 
ATOM      6  C   LIG    1       26.411 -20.318   5.771  0.00  0.00    +0.033 A 
ENDROOT
BRANCH   5   7
ATOM      7  C   LIG    1       28.779 -20.083   6.543  0.00  0.00    +0.077 C 
ATOM      8  S   LIG    1       29.419 -18.727   5.802  0.00  0.00    -0.035 S 
BRANCH   7   9
ATOM      9  N   LIG    1       29.650 -21.067   6.938  0.00  0.00    -0.352 N 
ATOM     10  H   LIG    1       30.034 -21.684   6.230  0.00  0.00    +0.143 HD
ATOM     11  H   LIG    1       30.051 -21.126   7.866  0.00  0.00    +0.143 HD
ENDBRANCH   7   9
ENDBRANCH   5   7
BRANCH   1  12
ATOM     12  C   LIG    1       24.047 -20.606   4.946  0.00  0.00    +0.055 C 
BRANCH  12  14
ATOM     13  C   LIG    1       22.305 -18.819   4.600  0.00  0.00    +0.004 C 
ATOM     14  C   LIG    1       22.686 -20.065   5.388  0.00  0.00    +0.003 C 
ENDBRANCH  12  14
ENDBRANCH   1  12
TORSDOF 4
ENDMDL
MODEL 5
REMARK VINA RESULT:      -6.1      1.743      3.177
REMARK  Name = *****
REMARK                            x       y       z     vdW  Elec       q    Type
REMARK                         _______ _______ _______ _____ _____    ______ ____
ROOT
ATOM      1  C   LIG    1       25.405 -21.726   7.793  0.00  0.00    +0.042 A 
ATOM      2  N   LIG    1       24.115 -21.334   7.898  0.00  0.00    -0.260 NA
ATOM      3  C   LIG    1       23.168 -22.137   7.364  0.00  0.00    +0.112 A 
ATOM      4  C   LIG    1       23.444 -23.325   6.715  0.00  0.00    +0.030 A 
ATOM      5  C   LIG    1       24.777 -23.723   6.610  0.00  0.00    +0.006 A 
ATOM      6  C   LIG    1       25.773 -22.915   7.171  0.00  0.00    +0.033 A 
ENDROOT
BRANCH   5   7
ATOM      7  C   LIG    1       25.149 -24.987   5.916  0.00  0.00    +0.077 C 
ATOM      8  S   LIG    1       25.860 -26.317   6.638  0.00  0.00    -0.035 S 
BRANCH   7   9
ATOM      9  N   LIG    1       24.872 -25.059   4.574  0.00  0.00    -0.352 N 
ATOM     10  H   LIG    1       24.618 -24.206   4.088  0.00  0.00    +0.143 HD
ATOM     11  H   LIG    1       25.048 -25.879   4.005  0.00  0.00    +0.143 HD
ENDBRANCH   7   9
ENDBRANCH   5   7
BRANCH   1  12
ATOM     12  C   LIG    1       26.449 -20.810   8.383  0.00  0.00    +0.055 C 
BRANCH  12  14
ATOM     13  C   LIG    1       28.844 -20.962   7.619  0.00  0.00    +0.004 C 
ATOM     14  C   LIG    1       27.476 -20.352   7.347  0.00  0.00    +0.003 C 
ENDBRANCH  12  14
ENDBRANCH   1  12
TORSDOF 4
ENDMDL
MODEL 6
REMARK VINA RESULT:      -6.0      3.709      4.964
REMARK  Name = *****
REMARK                            x       y       z     vdW  Elec       q    Type
REMARK                         _______ _______ _______ _____ _____    ______ ____
ROOT
ATOM      1  C   LIG    1       27.610 -20.252   6.966  0.00  0.00    +0.042 A 
ATOM      2  N   LIG    1       27.343 -20.316   8.291  0.00  0.00    -0.260 NA
ATOM      3  C   LIG    1       26.081 -20.625   8.664  0.00  0.00    +0.112 A 
ATOM      4  C   LIG    1       25.054 -20.870   7.773  0.00  0.00    +0.030 A 
ATOM      5  C   LIG    1       25.336 -20.802   6.409  0.00  0.00    +0.006 A 
ATOM      6  C   LIG    1       26.641 -20.501   5.999  0.00  0.00    +0.033 A 
ENDROOT
BRANCH   5   7
ATOM      7  C   LIG    1       24.276 -21.047   5.392  0.00  0.00    +0.077 C 
ATOM      8  S   LIG    1       22.845 -20.192   5.257  0.00  0.00    -0.035 S 
BRANCH   7   9
ATOM      9  N   LIG    1       24.508 -22.053   4.488  0.00  0.00    -0.352 N 
ATOM     10  H   LIG    1       23.873 -22.152   3.704  0.00  0.00    +0.143 HD
ATOM     11  H   LIG    1       25.353 -22.610   4.470  0.00  0.00    +0.143 HD
ENDBRANCH   7   9
ENDBRANCH   5   7
BRANCH   1  12
ATOM     12  C   LIG    1       29.020 -19.893   6.568  0.00  0.00    +0.055 C 
BRANCH  12  14
ATOM     13  C   LIG    1       31.268 -19.144   7.422  0.00  0.00    +0.004 C 
ATOM     14  C   LIG    1       29.768 -19.152   7.677  0.00  0.00    +0.003 C 
ENDBRANCH  12  14
ENDBRANCH   1  12
TORSDOF 4
ENDMDL
MODEL 7
REMARK VINA RESULT:      -6.0      2.462      4.938
REMARK  Name = *****
REMARK                            x       y       z     vdW  Elec       q    Type
REMARK                         _______ _______ _______ _____ _____    ______ ____
ROOT
ATOM      1  C   LIG    1       24.183 -24.535   6.612  0.00  0.00    +0.042 A 
ATOM      2  N   LIG    1       22.903 -24.101   6.558  0.00  0.00    -0.260 NA
ATOM      3  C   LIG    1       22.652 -22.833   6.950  0.00  0.00    +0.112 A 
ATOM      4  C   LIG    1       23.623 -21.963   7.407  0.00  0.00    +0.030 A 
ATOM      5  C   LIG    1       24.940 -22.417   7.462  0.00  0.00    +0.006 A 
ATOM      6  C   LIG    1       25.227 -23.722   7.043  0.00  0.00    +0.033 A 
ENDROOT
BRANCH   5   7
ATOM      7  C   LIG    1       26.037 -21.537   7.952  0.00  0.00    +0.077 C 
ATOM      8  S   LIG    1       27.614 -21.548   7.395  0.00  0.00    -0.035 S 
BRANCH   7   9
ATOM      9  N   LIG    1       25.713 -20.638   8.937  0.00  0.00    -0.352 N 
ATOM     10  H   LIG    1       25.408 -19.711   8.662  0.00  0.00    +0.143 HD
ATOM     11  H   LIG    1       25.617 -20.884   9.915  0.00  0.00    +0.143 HD
ENDBRANCH   7   9
ENDBRANCH   5   7
BRANCH   1  12
ATOM     12  C   LIG    1       24.442 -25.958   6.183  0.00  0.00    +0.055 C 
BRANCH  12  14
ATOM     13  C   LIG    1       26.345 -27.091   4.983  0.00  0.00    +0.004 C 
ATOM     14  C   LIG    1       25.927 -26.319   6.227  0.00  0.00    +0.003 C 
ENDBRANCH  12  14
ENDBRANCH   1  12
TORSDOF 4
ENDMDL
MODEL 8
REMARK VINA RESULT:      -5.9      3.065      4.094
REMARK  Name = *****
REMARK                            x       y       z     vdW  Elec       q    Type
REMARK                         _______ _______ _______ _____ _____    ______ ____
ROOT
ATOM      1  C   LIG    1       24.726 -21.381   6.833  0.00  0.00    +0.042 A 
ATOM      2  N   LIG    1       24.649 -21.404   8.184  0.00  0.00    -0.260 NA
ATOM      3  C   LIG    1       25.703 -20.926   8.882  0.00  0.00    +0.112 A 
ATOM      4  C   LIG    1       26.850 -20.426   8.297  0.00  0.00    +0.030 A 
ATOM      5  C   LIG    1       26.923 -20.405   6.905  0.00  0.00    +0.006 A 
ATOM      6  C   LIG    1       25.836 -20.879   6.160  0.00  0.00    +0.033 A 
ENDROOT
BRANCH   5   7
ATOM      7  C   LIG    1       28.132 -19.888   6.206  0.00  0.00    +0.077 C 
ATOM      8  S   LIG    1       29.691 -19.922   6.810  0.00  0.00    -0.035 S 
BRANCH   7   9
ATOM      9  N   LIG    1       27.941 -19.349   4.959  0.00  0.00    -0.352 N 
ATOM     10  H   LIG    1       27.982 -19.967   4.156  0.00  0.00    +0.143 HD
ATOM     11  H   LIG    1       27.616 -18.403   4.797  0.00  0.00    +0.143 HD
ENDBRANCH   7   9
ENDBRANCH   5   7
BRANCH   1  12
ATOM     12  C   LIG    1       23.546 -21.930   6.071  0.00  0.00    +0.055 C 
BRANCH  12  14
ATOM     13  C   LIG    1       23.574 -24.404   6.541  0.00  0.00    +0.004 C 
ATOM     14  C   LIG    1       22.864 -23.084   6.805  0.00  0.00    +0.003 C 
ENDBRANCH  12  14
ENDBRANCH   1  12
TORSDOF 4
ENDMDL
MODEL 9
REMARK VINA RESULT:      -5.8      2.548      3.148
REMARK  Name = *****
REMARK                            x       y       z     vdW  Elec       q    Type
REMARK                         _______ _______ _______ _____ _____    ______ ____
ROOT
ATOM      1  C   LIG    1       25.513 -23.002   7.359  0.00  0.00    +0.042 A 
ATOM      2  N   LIG    1       24.218 -22.634   7.231  0.00  0.00    -0.260 NA
ATOM      3  C   LIG    1       23.349 -23.548   6.746  0.00  0.00    +0.112 A 
ATOM      4  C   LIG    1       23.709 -24.827   6.369  0.00  0.00    +0.030 A 
ATOM      5  C   LIG    1       25.046 -25.200   6.502  0.00  0.00    +0.006 A 
ATOM      6  C   LIG    1       25.961 -24.275   7.019  0.00  0.00    +0.033 A 
ENDROOT
BRANCH   5   7
ATOM      7  C   LIG    1       25.508 -26.560   6.107  0.00  0.00    +0.077 C 
ATOM      8  S   LIG    1       24.517 -27.877   5.824  0.00  0.00    -0.035 S 
BRANCH   7   9
ATOM      9  N   LIG    1       26.861 -26.733   5.957  0.00  0.00    -0.352 N 
ATOM     10  H   LIG    1       27.482 -26.027   6.336  0.00  0.00    +0.143 HD
ATOM     11  H   LIG    1       27.286 -27.590   5.624  0.00  0.00    +0.143 HD
ENDBRANCH   7   9
ENDBRANCH   5   7
BRANCH   1  12
ATOM     12  C   LIG    1       26.471 -21.964   7.889  0.00  0.00    +0.055 C 
BRANCH  12  14
ATOM     13  C   LIG    1       27.173 -20.262   6.169  0.00  0.00    +0.004 C 
ATOM     14  C   LIG    1       26.208 -20.576   7.305  0.00  0.00    +0.003 C 
ENDBRANCH  12  14
ENDBRANCH   1  12
TORSDOF 4
ENDMDL
