MODEL 1
REMARK VINA RESULT:      -4.5      0.000      0.000
REMARK  Name = *****
REMARK                            x       y       z     vdW  Elec       q    Type
REMARK                         _______ _______ _______ _____ _____    ______ ____
ROOT
ATOM      1  C   LIG    1       23.638 -16.515   4.009  0.00  0.00    +0.113 C 
ENDROOT
BRANCH   1   2
ATOM      2  C   LIG    1       23.096 -15.136   4.422  0.00  0.00    +0.233 C 
BRANCH   2   3
ATOM      3  N   LIG    1       24.127 -14.102   4.458  0.00  0.00    -0.233 N 
ATOM      4  H   LIG    1       24.463 -13.850   5.394  0.00  0.00    +0.291 HD
BRANCH   3   5
ATOM      5  C   LIG    1       24.762 -13.487   3.413  0.00  0.00    +0.326 C 
ATOM      6  C   LIG    1       26.115 -13.400   3.272  0.00  0.00    +0.474 C 
BRANCH   5   8
ATOM      7  C   LIG    1       24.110 -11.602   1.860  0.00  0.00    +0.273 C 
ATOM      8  N   LIG    1       23.966 -12.928   2.420  0.00  0.00    -0.236 N 
ATOM      9  H   LIG    1       23.844 -13.620   1.679  0.00  0.00    +0.291 HD
ENDBRANCH   5   8
BRANCH   6  10
ATOM     10  N   LIG    1       27.077 -13.840   4.247  0.00  0.00    +0.080 N 
ATOM     11  O   LIG    1       26.753 -13.666   5.440  0.00  0.00    -0.576 OA
ATOM     12  O   LIG    1       28.113 -14.379   3.874  0.00  0.00    +0.041 OA
ENDBRANCH   6  10
ENDBRANCH   3   5
ENDBRANCH   2   3
ENDBRANCH   1   2
BRANCH   1  13
ATOM     13  S   LIG    1       22.420 -17.882   4.162  0.00  0.00    -0.151 S 
BRANCH  13  14
ATOM     14  C   LIG    1       23.479 -19.299   3.735  0.00  0.00    +0.125 C 
BRANCH  14  15
ATOM     15  C   LIG    1       23.810 -20.119   4.934  0.00  0.00    +0.059 A 
ATOM     16  N   LIG    1       25.141 -20.263   5.283  0.00  0.00    -0.247 NA
ATOM     17  C   LIG    1       25.276 -21.026   6.349  0.00  0.00    +0.092 A 
ATOM     18  S   LIG    1       23.788 -21.548   7.042  0.00  0.00    -0.079 S 
ATOM     19  C   LIG    1       22.932 -20.785   5.767  0.00  0.00    +0.071 A 
BRANCH  17  20
ATOM     20  C   LIG    1       26.596 -21.502   6.929  0.00  0.00    +0.146 C 
BRANCH  20  21
ATOM     21  N   LIG    1       27.741 -20.563   6.872  0.00  0.00    -0.302 NA
ATOM     22  C   LIG    1       27.721 -19.756   5.658  0.00  0.00    +0.105 C 
ATOM     23  C   LIG    1       29.028 -21.230   7.061  0.00  0.00    +0.105 C 
ENDBRANCH  20  21
ENDBRANCH  17  20
ENDBRANCH  14  15
ENDBRANCH  13  14
ENDBRANCH   1  13
TORSDOF 10
ENDMDL
MODEL 2
REMARK VINA RESULT:      -4.4      2.934      7.569
REMARK  Name = *****
REMARK                            x       y       z     vdW  Elec       q    Type
REMARK                         _______ _______ _______ _____ _____    ______ ____
ROOT
ATOM      1  C   LIG    1       23.862 -19.971   3.394  0.00  0.00    +0.113 C 
ENDROOT
BRANCH   1   2
ATOM      2  C   LIG    1       24.994 -20.882   3.900  0.00  0.00    +0.233 C 
BRANCH   2   3
ATOM      3  N   LIG    1       25.635 -20.380   5.112  0.00  0.00    -0.233 N 
ATOM      4  H   LIG    1       25.980 -19.415   5.059  0.00  0.00    +0.291 HD
BRANCH   3   5
ATOM      5  C   LIG    1       25.763 -20.989   6.331  0.00  0.00    +0.326 C 
ATOM      6  C   LIG    1       26.919 -21.052   7.048  0.00  0.00    +0.474 C 
BRANCH   5   8
ATOM      7  C   LIG    1       23.343 -20.924   7.062  0.00  0.00    +0.273 C 
ATOM      8  N   LIG    1       24.624 -21.570   6.879  0.00  0.00    -0.236 N 
ATOM      9  H   LIG    1       24.505 -22.496   6.465  0.00  0.00    +0.291 HD
ENDBRANCH   5   8
BRANCH   6  10
ATOM     10  N   LIG    1       28.201 -20.588   6.590  0.00  0.00    +0.080 N 
ATOM     11  O   LIG    1       29.186 -21.243   6.990  0.00  0.00    -0.576 OA
ATOM     12  O   LIG    1       28.261 -19.629   5.828  0.00  0.00    +0.041 OA
ENDBRANCH   6  10
ENDBRANCH   3   5
ENDBRANCH   2   3
ENDBRANCH   1   2
BRANCH   1  13
ATOM     13  S   LIG    1       24.128 -18.182   3.725  0.00  0.00    -0.151 S 
BRANCH  13  14
ATOM     14  C   LIG    1       25.868 -18.021   3.216  0.00  0.00    +0.125 C 
BRANCH  14  15
ATOM     15  C   LIG    1       26.375 -16.634   3.422  0.00  0.00    +0.059 A 
ATOM     16  N   LIG    1       25.632 -15.583   2.916  0.00  0.00    -0.247 NA
ATOM     17  C   LIG    1       26.214 -14.426   3.161  0.00  0.00    +0.092 A 
ATOM     18  S   LIG    1       27.658 -14.540   4.094  0.00  0.00    -0.079 S 
ATOM     19  C   LIG    1       27.533 -16.250   4.068  0.00  0.00    +0.071 A 
BRANCH  17  20
ATOM     20  C   LIG    1       25.749 -13.079   2.637  0.00  0.00    +0.146 C 
BRANCH  20  21
ATOM     21  N   LIG    1       24.394 -12.628   3.033  0.00  0.00    -0.302 NA
ATOM     22  C   LIG    1       23.920 -11.533   2.195  0.00  0.00    +0.105 C 
ATOM     23  C   LIG    1       24.300 -12.305   4.456  0.00  0.00    +0.105 C 
ENDBRANCH  20  21
ENDBRANCH  17  20
ENDBRANCH  14  15
ENDBRANCH  13  14
ENDBRANCH   1  13
TORSDOF 10
ENDMDL
MODEL 3
REMARK VINA RESULT:      -4.2      2.686      7.106
REMARK  Name = *****
REMARK                            x       y       z     vdW  Elec       q    Type
REMARK                         _______ _______ _______ _____ _____    ______ ____
ROOT
ATOM      1  C   LIG    1       23.884 -19.967   3.487  0.00  0.00    +0.113 C 
ENDROOT
BRANCH   1   2
ATOM      2  C   LIG    1       24.542 -21.216   4.098  0.00  0.00    +0.233 C 
BRANCH   2   3
ATOM      3  N   LIG    1       25.671 -20.900   4.968  0.00  0.00    -0.233 N 
ATOM      4  H   LIG    1       26.484 -20.484   4.499  0.00  0.00    +0.291 HD
BRANCH   3   5
ATOM      5  C   LIG    1       25.761 -21.005   6.330  0.00  0.00    +0.326 C 
ATOM      6  C   LIG    1       26.880 -20.731   7.056  0.00  0.00    +0.474 C 
BRANCH   5   8
ATOM      7  C   LIG    1       23.359 -20.699   7.058  0.00  0.00    +0.273 C 
ATOM      8  N   LIG    1       24.620 -21.405   7.018  0.00  0.00    -0.236 N 
ATOM      9  H   LIG    1       24.470 -22.400   6.840  0.00  0.00    +0.291 HD
ENDBRANCH   5   8
BRANCH   6  10
ATOM     10  N   LIG    1       28.165 -20.398   6.500  0.00  0.00    +0.080 N 
ATOM     11  O   LIG    1       28.147 -19.573   5.563  0.00  0.00    -0.576 OA
ATOM     12  O   LIG    1       29.179 -20.893   6.979  0.00  0.00    +0.041 OA
ENDBRANCH   6  10
ENDBRANCH   3   5
ENDBRANCH   2   3
ENDBRANCH   1   2
BRANCH   1  13
ATOM     13  S   LIG    1       24.906 -18.444   3.596  0.00  0.00    -0.151 S 
BRANCH  13  14
ATOM     14  C   LIG    1       23.637 -17.246   4.110  0.00  0.00    +0.125 C 
BRANCH  14  15
ATOM     15  C   LIG    1       24.111 -15.841   3.954  0.00  0.00    +0.059 A 
ATOM     16  N   LIG    1       25.386 -15.631   3.462  0.00  0.00    -0.247 NA
ATOM     17  C   LIG    1       25.666 -14.344   3.397  0.00  0.00    +0.092 A 
ATOM     18  S   LIG    1       24.368 -13.310   3.854  0.00  0.00    -0.079 S 
ATOM     19  C   LIG    1       23.422 -14.683   4.256  0.00  0.00    +0.071 A 
BRANCH  17  20
ATOM     20  C   LIG    1       27.017 -13.756   3.031  0.00  0.00    +0.146 C 
BRANCH  20  21
ATOM     21  N   LIG    1       28.025 -13.645   4.113  0.00  0.00    -0.302 NA
ATOM     22  C   LIG    1       27.403 -13.431   5.413  0.00  0.00    +0.105 C 
ATOM     23  C   LIG    1       29.050 -12.642   3.827  0.00  0.00    +0.105 C 
ENDBRANCH  20  21
ENDBRANCH  17  20
ENDBRANCH  14  15
ENDBRANCH  13  14
ENDBRANCH   1  13
TORSDOF 10
ENDMDL
MODEL 4
REMARK VINA RESULT:      -3.8      3.457      7.927
REMARK  Name = *****
REMARK                            x       y       z     vdW  Elec       q    Type
REMARK                         _______ _______ _______ _____ _____    ______ ____
ROOT
ATOM      1  C   LIG    1       25.670 -19.680   2.972  0.00  0.00    +0.113 C 
ENDROOT
BRANCH   1   2
ATOM      2  C   LIG    1       24.637 -20.744   3.381  0.00  0.00    +0.233 C 
BRANCH   2   3
ATOM      3  N   LIG    1       24.882 -21.299   4.709  0.00  0.00    -0.233 N 
ATOM      4  H   LIG    1       25.510 -22.110   4.737  0.00  0.00    +0.291 HD
BRANCH   3   5
ATOM      5  C   LIG    1       24.456 -20.836   5.925  0.00  0.00    +0.326 C 
ATOM      6  C   LIG    1       23.211 -20.339   6.171  0.00  0.00    +0.474 C 
BRANCH   5   8
ATOM      7  C   LIG    1       26.751 -20.518   6.937  0.00  0.00    +0.273 C 
ATOM      8  N   LIG    1       25.355 -20.894   6.984  0.00  0.00    -0.236 N 
ATOM      9  H   LIG    1       24.903 -20.499   7.810  0.00  0.00    +0.291 HD
ENDBRANCH   5   8
BRANCH   6  10
ATOM     10  N   LIG    1       22.196 -20.122   5.175  0.00  0.00    +0.080 N 
ATOM     11  O   LIG    1       21.547 -21.134   4.839  0.00  0.00    -0.576 OA
ATOM     12  O   LIG    1       22.000 -18.990   4.746  0.00  0.00    +0.041 OA
ENDBRANCH   6  10
ENDBRANCH   3   5
ENDBRANCH   2   3
ENDBRANCH   1   2
BRANCH   1  13
ATOM     13  S   LIG    1       25.339 -18.006   3.654  0.00  0.00    -0.151 S 
BRANCH  13  14
ATOM     14  C   LIG    1       27.026 -17.324   3.655  0.00  0.00    +0.125 C 
BRANCH  14  15
ATOM     15  C   LIG    1       27.018 -15.837   3.553  0.00  0.00    +0.059 A 
ATOM     16  N   LIG    1       25.961 -15.230   2.901  0.00  0.00    -0.247 NA
ATOM     17  C   LIG    1       26.103 -13.920   2.877  0.00  0.00    +0.092 A 
ATOM     18  S   LIG    1       27.490 -13.340   3.719  0.00  0.00    -0.079 S 
ATOM     19  C   LIG    1       27.967 -14.956   4.035  0.00  0.00    +0.071 A 
BRANCH  17  20
ATOM     20  C   LIG    1       25.203 -12.950   2.132  0.00  0.00    +0.146 C 
BRANCH  20  21
ATOM     21  N   LIG    1       23.858 -12.698   2.702  0.00  0.00    -0.302 NA
ATOM     22  C   LIG    1       23.810 -11.447   3.448  0.00  0.00    +0.105 C 
ATOM     23  C   LIG    1       23.361 -13.824   3.492  0.00  0.00    +0.105 C 
ENDBRANCH  20  21
ENDBRANCH  17  20
ENDBRANCH  14  15
ENDBRANCH  13  14
ENDBRANCH   1  13
TORSDOF 10
ENDMDL
MODEL 5
REMARK VINA RESULT:      -3.5      2.373      4.118
REMARK  Name = *****
REMARK                            x       y       z     vdW  Elec       q    Type
REMARK                         _______ _______ _______ _____ _____    ______ ____
ROOT
ATOM      1  C   LIG    1       27.208 -17.620   4.064  0.00  0.00    +0.113 C 
ENDROOT
BRANCH   1   2
ATOM      2  C   LIG    1       27.203 -16.278   3.312  0.00  0.00    +0.233 C 
BRANCH   2   3
ATOM      3  N   LIG    1       26.238 -15.323   3.851  0.00  0.00    -0.233 N 
ATOM      4  H   LIG    1       25.288 -15.688   3.985  0.00  0.00    +0.291 HD
BRANCH   3   5
ATOM      5  C   LIG    1       26.446 -14.039   4.277  0.00  0.00    +0.326 C 
ATOM      6  C   LIG    1       25.486 -13.075   4.329  0.00  0.00    +0.474 C 
BRANCH   5   8
ATOM      7  C   LIG    1       28.684 -12.901   3.973  0.00  0.00    +0.273 C 
ATOM      8  N   LIG    1       27.728 -13.706   4.702  0.00  0.00    -0.236 N 
ATOM      9  H   LIG    1       27.675 -13.407   5.677  0.00  0.00    +0.291 HD
ENDBRANCH   5   8
BRANCH   6  10
ATOM     10  N   LIG    1       24.140 -13.223   3.844  0.00  0.00    +0.080 N 
ATOM     11  O   LIG    1       23.613 -14.336   4.049  0.00  0.00    -0.576 OA
ATOM     12  O   LIG    1       23.583 -12.272   3.305  0.00  0.00    +0.041 OA
ENDBRANCH   6  10
ENDBRANCH   3   5
ENDBRANCH   2   3
ENDBRANCH   1   2
BRANCH   1  13
ATOM     13  S   LIG    1       28.649 -17.856   5.179  0.00  0.00    -0.151 S 
BRANCH  13  14
ATOM     14  C   LIG    1       28.621 -19.667   5.355  0.00  0.00    +0.125 C 
BRANCH  14  15
ATOM     15  C   LIG    1       27.277 -20.157   5.775  0.00  0.00    +0.059 A 
ATOM     16  N   LIG    1       26.341 -20.425   4.793  0.00  0.00    -0.247 NA
ATOM     17  C   LIG    1       25.202 -20.831   5.318  0.00  0.00    +0.092 A 
ATOM     18  S   LIG    1       25.226 -20.992   7.032  0.00  0.00    -0.079 S 
ATOM     19  C   LIG    1       26.827 -20.378   7.062  0.00  0.00    +0.071 A 
BRANCH  17  20
ATOM     20  C   LIG    1       23.919 -21.085   4.546  0.00  0.00    +0.146 C 
BRANCH  20  21
ATOM     21  N   LIG    1       23.117 -19.901   4.155  0.00  0.00    -0.302 NA
ATOM     22  C   LIG    1       23.925 -18.903   3.464  0.00  0.00    +0.105 C 
ATOM     23  C   LIG    1       22.380 -19.324   5.277  0.00  0.00    +0.105 C 
ENDBRANCH  20  21
ENDBRANCH  17  20
ENDBRANCH  14  15
ENDBRANCH  13  14
ENDBRANCH   1  13
TORSDOF 10
ENDMDL
MODEL 6
REMARK VINA RESULT:      -2.9      2.910      7.148
REMARK  Name = *****
REMARK                            x       y       z     vdW  Elec       q    Type
REMARK                         _______ _______ _______ _____ _____    ______ ____
ROOT
ATOM      1  C   LIG    1       22.095 -18.716   4.658  0.00  0.00    +0.113 C 
ENDROOT
BRANCH   1   2
ATOM      2  C   LIG    1       22.618 -19.346   5.961  0.00  0.00    +0.233 C 
BRANCH   2   3
ATOM      3  N   LIG    1       23.436 -20.534   5.734  0.00  0.00    -0.233 N 
ATOM      4  H   LIG    1       22.915 -21.390   5.514  0.00  0.00    +0.291 HD
BRANCH   3   5
ATOM      5  C   LIG    1       24.800 -20.642   5.694  0.00  0.00    +0.326 C 
ATOM      6  C   LIG    1       25.551 -20.550   4.561  0.00  0.00    +0.474 C 
BRANCH   5   8
ATOM      7  C   LIG    1       26.814 -21.332   7.058  0.00  0.00    +0.273 C 
ATOM      8  N   LIG    1       25.463 -20.843   6.900  0.00  0.00    -0.236 N 
ATOM      9  H   LIG    1       25.304 -20.026   7.493  0.00  0.00    +0.291 HD
ENDBRANCH   5   8
BRANCH   6  10
ATOM     10  N   LIG    1       25.024 -20.437   3.228  0.00  0.00    +0.080 N 
ATOM     11  O   LIG    1       24.045 -21.168   2.972  0.00  0.00    -0.576 OA
ATOM     12  O   LIG    1       25.519 -19.631   2.447  0.00  0.00    +0.041 OA
ENDBRANCH   6  10
ENDBRANCH   3   5
ENDBRANCH   2   3
ENDBRANCH   1   2
BRANCH   1  13
ATOM     13  S   LIG    1       23.300 -17.613   3.816  0.00  0.00    -0.151 S 
BRANCH  13  14
ATOM     14  C   LIG    1       22.864 -16.022   4.585  0.00  0.00    +0.125 C 
BRANCH  14  15
ATOM     15  C   LIG    1       23.703 -14.908   4.059  0.00  0.00    +0.059 A 
ATOM     16  N   LIG    1       25.008 -15.186   3.695  0.00  0.00    -0.247 NA
ATOM     17  C   LIG    1       25.626 -14.103   3.267  0.00  0.00    +0.092 A 
ATOM     18  S   LIG    1       24.633 -12.698   3.204  0.00  0.00    -0.079 S 
ATOM     19  C   LIG    1       23.338 -13.587   3.890  0.00  0.00    +0.071 A 
BRANCH  17  20
ATOM     20  C   LIG    1       27.099 -14.012   2.913  0.00  0.00    +0.146 C 
BRANCH  20  21
ATOM     21  N   LIG    1       28.054 -13.812   4.029  0.00  0.00    -0.302 NA
ATOM     22  C   LIG    1       27.369 -13.557   5.290  0.00  0.00    +0.105 C 
ATOM     23  C   LIG    1       29.056 -12.788   3.737  0.00  0.00    +0.105 C 
ENDBRANCH  20  21
ENDBRANCH  17  20
ENDBRANCH  14  15
ENDBRANCH  13  14
ENDBRANCH   1  13
TORSDOF 10
ENDMDL
MODEL 7
REMARK VINA RESULT:      -2.8      1.967      2.816
REMARK  Name = *****
REMARK                            x       y       z     vdW  Elec       q    Type
REMARK                         _______ _______ _______ _____ _____    ______ ____
ROOT
ATOM      1  C   LIG    1       23.331 -14.455   3.699  0.00  0.00    +0.113 C 
ENDROOT
BRANCH   1   2
ATOM      2  C   LIG    1       24.470 -13.472   4.019  0.00  0.00    +0.233 C 
BRANCH   2   3
ATOM      3  N   LIG    1       25.739 -13.845   3.401  0.00  0.00    -0.233 N 
ATOM      4  H   LIG    1       25.732 -13.887   2.375  0.00  0.00    +0.291 HD
BRANCH   3   5
ATOM      5  C   LIG    1       26.952 -14.065   3.996  0.00  0.00    +0.326 C 
ATOM      6  C   LIG    1       27.569 -15.277   4.071  0.00  0.00    +0.474 C 
BRANCH   5   8
ATOM      7  C   LIG    1       28.914 -12.480   4.174  0.00  0.00    +0.273 C 
ATOM      8  N   LIG    1       27.604 -12.966   4.545  0.00  0.00    -0.236 N 
ATOM      9  H   LIG    1       26.937 -12.195   4.605  0.00  0.00    +0.291 HD
ENDBRANCH   5   8
BRANCH   6  10
ATOM     10  N   LIG    1       26.997 -16.524   3.640  0.00  0.00    +0.080 N 
ATOM     11  O   LIG    1       26.047 -16.430   2.835  0.00  0.00    -0.576 OA
ATOM     12  O   LIG    1       27.475 -17.580   4.039  0.00  0.00    +0.041 OA
ENDBRANCH   6  10
ENDBRANCH   3   5
ENDBRANCH   2   3
ENDBRANCH   1   2
BRANCH   1  13
ATOM     13  S   LIG    1       23.070 -15.751   4.977  0.00  0.00    -0.151 S 
BRANCH  13  14
ATOM     14  C   LIG    1       22.170 -16.989   3.993  0.00  0.00    +0.125 C 
BRANCH  14  15
ATOM     15  C   LIG    1       22.604 -18.376   4.324  0.00  0.00    +0.059 A 
ATOM     16  N   LIG    1       23.960 -18.646   4.362  0.00  0.00    -0.247 NA
ATOM     17  C   LIG    1       24.187 -19.912   4.650  0.00  0.00    +0.092 A 
ATOM     18  S   LIG    1       22.767 -20.833   4.972  0.00  0.00    -0.079 S 
ATOM     19  C   LIG    1       21.802 -19.466   4.598  0.00  0.00    +0.071 A 
BRANCH  17  20
ATOM     20  C   LIG    1       25.547 -20.586   4.645  0.00  0.00    +0.146 C 
BRANCH  20  21
ATOM     21  N   LIG    1       26.149 -20.910   5.960  0.00  0.00    -0.302 NA
ATOM     22  C   LIG    1       25.245 -20.600   7.061  0.00  0.00    +0.105 C 
ATOM     23  C   LIG    1       27.464 -20.298   6.145  0.00  0.00    +0.105 C 
ENDBRANCH  20  21
ENDBRANCH  17  20
ENDBRANCH  14  15
ENDBRANCH  13  14
ENDBRANCH   1  13
TORSDOF 10
ENDMDL
MODEL 8
REMARK VINA RESULT:      -2.8      2.505      3.877
REMARK  Name = *****
REMARK                            x       y       z     vdW  Elec       q    Type
REMARK                         _______ _______ _______ _____ _____    ______ ____
ROOT
ATOM      1  C   LIG    1       25.775 -16.015   3.322  0.00  0.00    +0.113 C 
ENDROOT
BRANCH   1   2
ATOM      2  C   LIG    1       26.958 -15.152   2.851  0.00  0.00    +0.233 C 
BRANCH   2   3
ATOM      3  N   LIG    1       26.827 -13.747   3.223  0.00  0.00    -0.233 N 
ATOM      4  H   LIG    1       27.068 -13.073   2.487  0.00  0.00    +0.291 HD
BRANCH   3   5
ATOM      5  C   LIG    1       26.349 -13.208   4.387  0.00  0.00    +0.326 C 
ATOM      6  C   LIG    1       25.035 -12.949   4.638  0.00  0.00    +0.474 C 
BRANCH   5   8
ATOM      7  C   LIG    1       28.610 -12.410   5.190  0.00  0.00    +0.273 C 
ATOM      8  N   LIG    1       27.272 -12.923   5.387  0.00  0.00    -0.236 N 
ATOM      9  H   LIG    1       26.794 -12.406   6.127  0.00  0.00    +0.291 HD
ENDBRANCH   5   8
BRANCH   6  10
ATOM     10  N   LIG    1       23.968 -13.096   3.686  0.00  0.00    +0.080 N 
ATOM     11  O   LIG    1       23.950 -12.255   2.763  0.00  0.00    -0.576 OA
ATOM     12  O   LIG    1       23.178 -14.026   3.801  0.00  0.00    +0.041 OA
ENDBRANCH   6  10
ENDBRANCH   3   5
ENDBRANCH   2   3
ENDBRANCH   1   2
BRANCH   1  13
ATOM     13  S   LIG    1       26.101 -17.823   3.299  0.00  0.00    -0.151 S 
BRANCH  13  14
ATOM     14  C   LIG    1       27.702 -17.868   4.164  0.00  0.00    +0.125 C 
BRANCH  14  15
ATOM     15  C   LIG    1       27.746 -18.954   5.183  0.00  0.00    +0.059 A 
ATOM     16  N   LIG    1       26.602 -19.702   5.394  0.00  0.00    -0.247 NA
ATOM     17  C   LIG    1       26.790 -20.609   6.332  0.00  0.00    +0.092 A 
ATOM     18  S   LIG    1       28.394 -20.661   6.959  0.00  0.00    -0.079 S 
ATOM     19  C   LIG    1       28.815 -19.318   5.979  0.00  0.00    +0.071 A 
BRANCH  17  20
ATOM     20  C   LIG    1       25.716 -21.512   6.911  0.00  0.00    +0.146 C 
BRANCH  20  21
ATOM     21  N   LIG    1       24.420 -21.570   6.195  0.00  0.00    -0.302 NA
ATOM     22  C   LIG    1       24.597 -21.531   4.748  0.00  0.00    +0.105 C 
ATOM     23  C   LIG    1       23.474 -20.555   6.655  0.00  0.00    +0.105 C 
ENDBRANCH  20  21
ENDBRANCH  17  20
ENDBRANCH  14  15
ENDBRANCH  13  14
ENDBRANCH   1  13
TORSDOF 10
ENDMDL
MODEL 9
REMARK VINA RESULT:      -2.8      2.491      4.394
REMARK  Name = *****
REMARK                            x       y       z     vdW  Elec       q    Type
REMARK                         _______ _______ _______ _____ _____    ______ ____
ROOT
ATOM      1  C   LIG    1       25.893 -17.455   3.526  0.00  0.00    +0.113 C 
ENDROOT
BRANCH   1   2
ATOM      2  C   LIG    1       27.095 -16.500   3.626  0.00  0.00    +0.233 C 
BRANCH   2   3
ATOM      3  N   LIG    1       26.763 -15.122   3.279  0.00  0.00    -0.233 N 
ATOM      4  H   LIG    1       26.565 -14.954   2.286  0.00  0.00    +0.291 HD
BRANCH   3   5
ATOM      5  C   LIG    1       26.598 -14.044   4.107  0.00  0.00    +0.326 C 
ATOM      6  C   LIG    1       25.398 -13.475   4.409  0.00  0.00    +0.474 C 
BRANCH   5   8
ATOM      7  C   LIG    1       28.765 -12.743   4.014  0.00  0.00    +0.273 C 
ATOM      8  N   LIG    1       27.740 -13.506   4.692  0.00  0.00    -0.236 N 
ATOM      9  H   LIG    1       27.468 -13.048   5.564  0.00  0.00    +0.291 HD
ENDBRANCH   5   8
BRANCH   6  10
ATOM     10  N   LIG    1       24.137 -13.846   3.823  0.00  0.00    +0.080 N 
ATOM     11  O   LIG    1       23.751 -13.128   2.878  0.00  0.00    -0.576 OA
ATOM     12  O   LIG    1       23.543 -14.835   4.240  0.00  0.00    +0.041 OA
ENDBRANCH   6  10
ENDBRANCH   3   5
ENDBRANCH   2   3
ENDBRANCH   1   2
BRANCH   1  13
ATOM     13  S   LIG    1       26.342 -19.202   3.178  0.00  0.00    -0.151 S 
BRANCH  13  14
ATOM     14  C   LIG    1       26.467 -19.842   4.877  0.00  0.00    +0.125 C 
BRANCH  14  15
ATOM     15  C   LIG    1       25.139 -20.271   5.402  0.00  0.00    +0.059 A 
ATOM     16  N   LIG    1       24.026 -20.081   4.603  0.00  0.00    -0.247 NA
ATOM     17  C   LIG    1       22.929 -20.492   5.208  0.00  0.00    +0.092 A 
ATOM     18  S   LIG    1       23.194 -21.209   6.751  0.00  0.00    -0.079 S 
ATOM     19  C   LIG    1       24.865 -20.845   6.628  0.00  0.00    +0.071 A 
BRANCH  17  20
ATOM     20  C   LIG    1       21.516 -20.314   4.682  0.00  0.00    +0.146 C 
BRANCH  20  21
ATOM     21  N   LIG    1       21.261 -19.151   3.799  0.00  0.00    -0.302 NA
ATOM     22  C   LIG    1       21.835 -17.925   4.339  0.00  0.00    +0.105 C 
ATOM     23  C   LIG    1       19.846 -18.992   3.470  0.00  0.00    +0.105 C 
ENDBRANCH  20  21
ENDBRANCH  17  20
ENDBRANCH  14  15
ENDBRANCH  13  14
ENDBRANCH   1  13
TORSDOF 10
ENDMDL
