MODEL 1
REMARK VINA RESULT:       0.8      0.000      0.000
REMARK  Name = *****
REMARK                            x       y       z     vdW  Elec       q    Type
REMARK                         _______ _______ _______ _____ _____    ______ ____
ROOT
ATOM      1  C   LIG    1       27.293 -19.765   5.711  0.00  0.00    +0.130 A 
ATOM      2  N   LIG    1       27.145 -18.768   4.813  0.00  0.00    -0.199 NA
ATOM      3  C   LIG    1       28.152 -17.903   4.611  0.00  0.00    +0.221 A 
ATOM      4  N   LIG    1       29.333 -17.991   5.234  0.00  0.00    -0.223 NA
ATOM      5  C   LIG    1       29.475 -19.000   6.109  0.00  0.00    +0.118 A 
ATOM      6  C   LIG    1       28.483 -19.909   6.396  0.00  0.00    +0.064 A 
ENDROOT
BRANCH   1   7
ATOM      7  N   LIG    1       26.220 -20.672   5.917  0.00  0.00    -0.288 N 
ATOM      8  C   LIG    1       26.458 -21.571   7.051  0.00  0.00    +0.137 C 
BRANCH   7  16
ATOM      9  C   LIG    1       19.630 -20.799   4.387  0.00  0.00    +0.066 C 
ATOM     10  C   LIG    1       20.954 -20.141   4.284  0.00  0.00    +0.044 A 
ATOM     11  N   LIG    1       21.153 -18.964   3.597  0.00  0.00    -0.271 N 
ATOM     12  C   LIG    1       20.151 -18.178   2.911  0.00  0.00    +0.172 C 
ATOM     13  N   LIG    1       22.427 -18.527   3.595  0.00  0.00    -0.171 NA
ATOM     14  C   LIG    1       23.104 -19.428   4.323  0.00  0.00    +0.095 A 
ATOM     15  C   LIG    1       24.469 -19.462   4.657  0.00  0.00    +0.053 A 
ATOM     16  C   LIG    1       24.876 -20.558   5.463  0.00  0.00    +0.037 A 
ATOM     17  C   LIG    1       23.916 -21.551   5.889  0.00  0.00    +0.024 A 
ATOM     18  C   LIG    1       22.535 -21.551   5.560  0.00  0.00    +0.013 A 
ATOM     19  C   LIG    1       22.203 -20.454   4.772  0.00  0.00    +0.023 A 
ENDBRANCH   7  16
ENDBRANCH   1   7
BRANCH   3  20
ATOM     20  N   LIG    1       28.015 -16.806   3.762  0.00  0.00    -0.283 N 
ATOM     21  H   LIG    1       28.446 -17.004   2.872  0.00  0.00    +0.155 HD
BRANCH  20  22
ATOM     22  C   LIG    1       27.443 -15.543   3.942  0.00  0.00    +0.035 A 
ATOM     23  C   LIG    1       26.066 -15.325   3.903  0.00  0.00    +0.052 A 
ATOM     24  C   LIG    1       25.516 -14.058   4.154  0.00  0.00    +0.110 A 
ATOM     25  C   LIG    1       26.344 -12.969   4.477  0.00  0.00    -0.024 A 
ATOM     26  C   LIG    1       25.821 -11.594   4.777  0.00  0.00    +0.045 C 
ATOM     27  C   LIG    1       27.727 -13.193   4.536  0.00  0.00    +0.007 A 
ATOM     28  C   LIG    1       28.265 -14.458   4.270  0.00  0.00    +0.024 A 
BRANCH  24  29
ATOM     29  S   LIG    1       23.748 -13.915   4.071  0.00  0.00    +0.056 S 
ATOM     30  O   LIG    1       23.309 -12.892   4.983  0.00  0.00    -0.153 OA
ATOM     31  O   LIG    1       23.149 -15.235   4.046  0.00  0.00    -0.153 OA
BRANCH  29  32
ATOM     32  N   LIG    1       23.488 -13.315   2.522  0.00  0.00    -0.203 NA
ATOM     33  H   LIG    1       23.829 -12.356   2.469  0.00  0.00    +0.144 HD
ATOM     34  H   LIG    1       22.504 -13.420   2.275  0.00  0.00    +0.144 HD
ENDBRANCH  29  32
ENDBRANCH  24  29
ENDBRANCH  20  22
ENDBRANCH   3  20
TORSDOF 6
ENDMDL
MODEL 2
REMARK VINA RESULT:       2.8      2.812      7.477
REMARK  Name = *****
REMARK                            x       y       z     vdW  Elec       q    Type
REMARK                         _______ _______ _______ _____ _____    ______ ____
ROOT
ATOM      1  C   LIG    1       22.342 -17.421   4.561  0.00  0.00    +0.130 A 
ATOM      2  N   LIG    1       23.214 -18.335   5.037  0.00  0.00    -0.199 NA
ATOM      3  C   LIG    1       23.007 -19.640   4.794  0.00  0.00    +0.221 A 
ATOM      4  N   LIG    1       21.983 -20.097   4.062  0.00  0.00    -0.223 NA
ATOM      5  C   LIG    1       21.136 -19.177   3.576  0.00  0.00    +0.118 A 
ATOM      6  C   LIG    1       21.260 -17.826   3.805  0.00  0.00    +0.064 A 
ENDROOT
BRANCH   1   7
ATOM      7  N   LIG    1       22.572 -16.046   4.826  0.00  0.00    -0.288 N 
ATOM      8  C   LIG    1       21.947 -15.605   6.077  0.00  0.00    +0.137 C 
BRANCH   7  16
ATOM      9  C   LIG    1       26.717 -11.524   1.967  0.00  0.00    +0.066 C 
ATOM     10  C   LIG    1       26.515 -12.682   2.872  0.00  0.00    +0.044 A 
ATOM     11  N   LIG    1       27.541 -13.263   3.583  0.00  0.00    -0.271 N 
ATOM     12  C   LIG    1       28.928 -12.852   3.602  0.00  0.00    +0.172 C 
ATOM     13  N   LIG    1       27.171 -14.316   4.338  0.00  0.00    -0.171 NA
ATOM     14  C   LIG    1       25.849 -14.434   4.143  0.00  0.00    +0.095 A 
ATOM     15  C   LIG    1       24.945 -15.359   4.694  0.00  0.00    +0.053 A 
ATOM     16  C   LIG    1       23.591 -15.208   4.291  0.00  0.00    +0.037 A 
ATOM     17  C   LIG    1       23.212 -14.157   3.374  0.00  0.00    +0.024 A 
ATOM     18  C   LIG    1       24.101 -13.216   2.793  0.00  0.00    +0.013 A 
ATOM     19  C   LIG    1       25.407 -13.417   3.228  0.00  0.00    +0.023 A 
ENDBRANCH   7  16
ENDBRANCH   1   7
BRANCH   3  20
ATOM     20  N   LIG    1       23.827 -20.626   5.340  0.00  0.00    -0.283 N 
ATOM     21  H   LIG    1       23.288 -21.458   5.523  0.00  0.00    +0.155 HD
BRANCH  20  22
ATOM     22  C   LIG    1       25.181 -20.638   5.684  0.00  0.00    +0.035 A 
ATOM     23  C   LIG    1       26.091 -19.694   5.206  0.00  0.00    +0.052 A 
ATOM     24  C   LIG    1       27.432 -19.691   5.621  0.00  0.00    +0.110 A 
ATOM     25  C   LIG    1       27.894 -20.633   6.557  0.00  0.00    -0.024 A 
ATOM     26  C   LIG    1       29.308 -20.673   7.061  0.00  0.00    +0.045 C 
ATOM     27  C   LIG    1       26.974 -21.569   7.053  0.00  0.00    +0.007 A 
ATOM     28  C   LIG    1       25.643 -21.572   6.620  0.00  0.00    +0.024 A 
BRANCH  24  29
ATOM     29  S   LIG    1       28.486 -18.438   4.937  0.00  0.00    +0.056 S 
ATOM     30  O   LIG    1       29.382 -19.037   3.983  0.00  0.00    -0.153 OA
ATOM     31  O   LIG    1       28.958 -17.562   5.992  0.00  0.00    -0.153 OA
BRANCH  29  32
ATOM     32  N   LIG    1       27.419 -17.484   4.055  0.00  0.00    -0.203 NA
ATOM     33  H   LIG    1       27.672 -16.502   4.166  0.00  0.00    +0.144 HD
ATOM     34  H   LIG    1       26.461 -17.699   4.330  0.00  0.00    +0.144 HD
ENDBRANCH  29  32
ENDBRANCH  24  29
ENDBRANCH  20  22
ENDBRANCH   3  20
TORSDOF 6
ENDMDL
MODEL 3
REMARK VINA RESULT:       2.8      1.988      5.546
REMARK  Name = *****
REMARK                            x       y       z     vdW  Elec       q    Type
REMARK                         _______ _______ _______ _____ _____    ______ ____
ROOT
ATOM      1  C   LIG    1       21.668 -19.277   4.424  0.00  0.00    +0.130 A 
ATOM      2  N   LIG    1       22.093 -17.999   4.507  0.00  0.00    -0.199 NA
ATOM      3  C   LIG    1       21.431 -17.035   3.846  0.00  0.00    +0.221 A 
ATOM      4  N   LIG    1       20.329 -17.266   3.120  0.00  0.00    -0.223 NA
ATOM      5  C   LIG    1       19.905 -18.538   3.064  0.00  0.00    +0.118 A 
ATOM      6  C   LIG    1       20.543 -19.586   3.686  0.00  0.00    +0.064 A 
ENDROOT
BRANCH   1   7
ATOM      7  N   LIG    1       22.377 -20.286   5.127  0.00  0.00    -0.288 N 
ATOM      8  C   LIG    1       21.671 -21.572   5.125  0.00  0.00    +0.137 C 
BRANCH   7  16
ATOM      9  C   LIG    1       28.785 -21.281   7.062  0.00  0.00    +0.066 C 
ATOM     10  C   LIG    1       27.793 -20.519   6.265  0.00  0.00    +0.044 A 
ATOM     11  N   LIG    1       28.141 -19.473   5.441  0.00  0.00    -0.271 N 
ATOM     12  C   LIG    1       29.474 -18.971   5.188  0.00  0.00    +0.172 C 
ATOM     13  N   LIG    1       27.102 -18.888   4.812  0.00  0.00    -0.171 NA
ATOM     14  C   LIG    1       26.023 -19.577   5.211  0.00  0.00    +0.095 A 
ATOM     15  C   LIG    1       24.674 -19.406   4.858  0.00  0.00    +0.053 A 
ATOM     16  C   LIG    1       23.763 -20.320   5.452  0.00  0.00    +0.037 A 
ATOM     17  C   LIG    1       24.237 -21.344   6.355  0.00  0.00    +0.024 A 
ATOM     18  C   LIG    1       25.589 -21.537   6.740  0.00  0.00    +0.013 A 
ATOM     19  C   LIG    1       26.427 -20.612   6.124  0.00  0.00    +0.023 A 
ENDBRANCH   7  16
ENDBRANCH   1   7
BRANCH   3  20
ATOM     20  N   LIG    1       21.883 -15.717   3.827  0.00  0.00    -0.283 N 
ATOM     21  H   LIG    1       21.181 -15.119   3.415  0.00  0.00    +0.155 HD
BRANCH  20  22
ATOM     22  C   LIG    1       23.085 -15.129   4.229  0.00  0.00    +0.035 A 
ATOM     23  C   LIG    1       24.322 -15.502   3.704  0.00  0.00    +0.052 A 
ATOM     24  C   LIG    1       25.506 -14.848   4.077  0.00  0.00    +0.110 A 
ATOM     25  C   LIG    1       25.475 -13.772   4.981  0.00  0.00    -0.024 A 
ATOM     26  C   LIG    1       26.700 -13.014   5.407  0.00  0.00    +0.045 C 
ATOM     27  C   LIG    1       24.229 -13.383   5.494  0.00  0.00    +0.007 A 
ATOM     28  C   LIG    1       23.056 -14.053   5.125  0.00  0.00    +0.024 A 
BRANCH  24  29
ATOM     29  S   LIG    1       27.014 -15.423   3.338  0.00  0.00    +0.056 S 
ATOM     30  O   LIG    1       28.025 -15.552   4.354  0.00  0.00    -0.153 OA
ATOM     31  O   LIG    1       27.255 -14.712   2.097  0.00  0.00    -0.153 OA
BRANCH  29  32
ATOM     32  N   LIG    1       26.627 -16.984   2.850  0.00  0.00    -0.203 NA
ATOM     33  H   LIG    1       25.791 -17.295   3.344  0.00  0.00    +0.144 HD
ATOM     34  H   LIG    1       27.435 -17.593   2.976  0.00  0.00    +0.144 HD
ENDBRANCH  29  32
ENDBRANCH  24  29
ENDBRANCH  20  22
ENDBRANCH   3  20
TORSDOF 6
ENDMDL
