MODEL 1
REMARK VINA RESULT:      -5.3      0.000      0.000
REMARK  Name = *****
REMARK                            x       y       z     vdW  Elec       q    Type
REMARK                         _______ _______ _______ _____ _____    ______ ____
ROOT
ATOM      1  C   LIG    1       26.281 -13.896   2.403  0.00  0.00    +0.251 C 
ATOM      2  C   LIG    1       25.811 -15.097   3.258  0.00  0.00    +0.259 C 
ATOM      3  O   LIG    1       26.299 -16.215   3.300  0.00  0.00    -0.272 OA
ATOM      4  N   LIG    1       24.765 -14.678   4.026  0.00  0.00    -0.237 N 
ATOM      5  H   LIG    1       24.283 -15.249   4.701  0.00  0.00    +0.159 HD
ATOM      6  C   LIG    1       24.585 -13.344   3.897  0.00  0.00    +0.308 C 
ATOM      7  O   LIG    1       23.785 -12.663   4.516  0.00  0.00    -0.252 OA
ATOM      8  N   LIG    1       25.475 -12.863   2.974  0.00  0.00    -0.273 N 
ATOM      9  H   LIG    1       25.482 -11.896   2.685  0.00  0.00    +0.152 HD
ENDROOT
BRANCH   1  14
ATOM     10  N   LIG    1       29.441 -12.878   3.756  0.00  0.00    -0.313 N 
ATOM     11  H   LIG    1       30.039 -13.341   3.088  0.00  0.00    +0.146 HD
ATOM     12  H   LIG    1       29.849 -12.758   4.677  0.00  0.00    +0.146 HD
ATOM     13  C   LIG    1       28.140 -13.262   3.791  0.00  0.00    +0.299 C 
ATOM     14  N   LIG    1       27.667 -13.576   2.556  0.00  0.00    -0.274 N 
ATOM     15  H   LIG    1       28.091 -13.058   1.802  0.00  0.00    +0.152 HD
ATOM     16  O   LIG    1       27.513 -13.337   4.834  0.00  0.00    -0.253 OA
ENDBRANCH   1  14
TORSDOF 1
ENDMDL
MODEL 2
REMARK VINA RESULT:      -4.9      1.580      3.753
REMARK  Name = *****
REMARK                            x       y       z     vdW  Elec       q    Type
REMARK                         _______ _______ _______ _____ _____    ______ ____
ROOT
ATOM      1  C   LIG    1       26.004 -13.469   3.543  0.00  0.00    +0.251 C 
ATOM      2  C   LIG    1       27.447 -13.833   3.970  0.00  0.00    +0.259 C 
ATOM      3  O   LIG    1       28.288 -13.093   4.454  0.00  0.00    -0.272 OA
ATOM      4  N   LIG    1       27.619 -15.170   3.762  0.00  0.00    -0.237 N 
ATOM      5  H   LIG    1       28.456 -15.682   3.981  0.00  0.00    +0.159 HD
ATOM      6  C   LIG    1       26.451 -15.748   3.402  0.00  0.00    +0.308 C 
ATOM      7  O   LIG    1       26.262 -16.940   3.228  0.00  0.00    -0.252 OA
ATOM      8  N   LIG    1       25.490 -14.779   3.293  0.00  0.00    -0.273 N 
ATOM      9  H   LIG    1       24.550 -14.982   2.985  0.00  0.00    +0.152 HD
ENDROOT
BRANCH   1  14
ATOM     10  N   LIG    1       23.606 -11.450   5.281  0.00  0.00    -0.313 N 
ATOM     11  H   LIG    1       23.609 -11.947   6.160  0.00  0.00    +0.146 HD
ATOM     12  H   LIG    1       22.732 -10.983   5.063  0.00  0.00    +0.146 HD
ATOM     13  C   LIG    1       24.162 -12.077   4.215  0.00  0.00    +0.299 C 
ATOM     14  N   LIG    1       25.237 -12.829   4.567  0.00  0.00    -0.274 N 
ATOM     15  H   LIG    1       25.755 -12.474   5.356  0.00  0.00    +0.152 HD
ATOM     16  O   LIG    1       23.699 -11.978   3.090  0.00  0.00    -0.253 OA
ENDBRANCH   1  14
TORSDOF 1
ENDMDL
MODEL 3
REMARK VINA RESULT:      -4.7      1.742      3.428
REMARK  Name = *****
REMARK                            x       y       z     vdW  Elec       q    Type
REMARK                         _______ _______ _______ _____ _____    ______ ____
ROOT
ATOM      1  C   LIG    1       25.828 -14.058   4.422  0.00  0.00    +0.251 C 
ATOM      2  C   LIG    1       26.593 -15.185   3.687  0.00  0.00    +0.259 C 
ATOM      3  O   LIG    1       26.130 -16.207   3.207  0.00  0.00    -0.272 OA
ATOM      4  N   LIG    1       27.904 -14.818   3.608  0.00  0.00    -0.237 N 
ATOM      5  H   LIG    1       28.624 -15.353   3.153  0.00  0.00    +0.159 HD
ATOM      6  C   LIG    1       28.070 -13.553   4.057  0.00  0.00    +0.308 C 
ATOM      7  O   LIG    1       29.108 -12.913   4.037  0.00  0.00    -0.252 OA
ATOM      8  N   LIG    1       26.868 -13.081   4.512  0.00  0.00    -0.273 N 
ATOM      9  H   LIG    1       26.772 -12.172   4.939  0.00  0.00    +0.152 HD
ENDROOT
BRANCH   1  14
ATOM     10  N   LIG    1       23.814 -12.473   1.916  0.00  0.00    -0.313 N 
ATOM     11  H   LIG    1       22.931 -12.904   2.148  0.00  0.00    +0.146 HD
ATOM     12  H   LIG    1       23.913 -12.210   0.942  0.00  0.00    +0.146 HD
ATOM     13  C   LIG    1       24.932 -13.036   2.438  0.00  0.00    +0.299 C 
ATOM     14  N   LIG    1       24.722 -13.529   3.687  0.00  0.00    -0.274 N 
ATOM     15  H   LIG    1       24.030 -13.027   4.222  0.00  0.00    +0.152 HD
ATOM     16  O   LIG    1       25.977 -13.104   1.812  0.00  0.00    -0.253 OA
ENDBRANCH   1  14
TORSDOF 1
ENDMDL
MODEL 4
REMARK VINA RESULT:      -4.4      1.799      3.931
REMARK  Name = *****
REMARK                            x       y       z     vdW  Elec       q    Type
REMARK                         _______ _______ _______ _____ _____    ______ ____
ROOT
ATOM      1  C   LIG    1       26.789 -14.208   4.401  0.00  0.00    +0.251 C 
ATOM      2  C   LIG    1       27.397 -13.874   3.017  0.00  0.00    +0.259 C 
ATOM      3  O   LIG    1       27.013 -14.258   1.925  0.00  0.00    -0.272 OA
ATOM      4  N   LIG    1       28.430 -13.007   3.215  0.00  0.00    -0.237 N 
ATOM      5  H   LIG    1       28.987 -12.600   2.482  0.00  0.00    +0.159 HD
ATOM      6  C   LIG    1       28.486 -12.620   4.509  0.00  0.00    +0.308 C 
ATOM      7  O   LIG    1       29.245 -11.790   4.980  0.00  0.00    -0.252 OA
ATOM      8  N   LIG    1       27.521 -13.289   5.215  0.00  0.00    -0.273 N 
ATOM      9  H   LIG    1       27.417 -13.189   6.214  0.00  0.00    +0.152 HD
ENDROOT
BRANCH   1  14
ATOM     10  N   LIG    1       23.222 -14.442   4.133  0.00  0.00    -0.313 N 
ATOM     11  H   LIG    1       22.980 -13.833   4.902  0.00  0.00    +0.146 HD
ATOM     12  H   LIG    1       22.539 -15.164   3.935  0.00  0.00    +0.146 HD
ATOM     13  C   LIG    1       24.504 -14.882   4.073  0.00  0.00    +0.299 C 
ATOM     14  N   LIG    1       25.388 -13.943   4.503  0.00  0.00    -0.274 N 
ATOM     15  H   LIG    1       25.100 -12.991   4.334  0.00  0.00    +0.152 HD
ATOM     16  O   LIG    1       24.785 -16.009   3.704  0.00  0.00    -0.253 OA
ENDBRANCH   1  14
TORSDOF 1
ENDMDL
MODEL 5
REMARK VINA RESULT:      -4.3      6.146      6.904
REMARK  Name = *****
REMARK                            x       y       z     vdW  Elec       q    Type
REMARK                         _______ _______ _______ _____ _____    ______ ____
ROOT
ATOM      1  C   LIG    1       24.230 -21.012   4.771  0.00  0.00    +0.251 C 
ATOM      2  C   LIG    1       23.221 -20.905   5.940  0.00  0.00    +0.259 C 
ATOM      3  O   LIG    1       23.194 -21.571   6.961  0.00  0.00    -0.272 OA
ATOM      4  N   LIG    1       22.370 -19.876   5.663  0.00  0.00    -0.237 N 
ATOM      5  H   LIG    1       21.630 -19.564   6.269  0.00  0.00    +0.159 HD
ATOM      6  C   LIG    1       22.772 -19.211   4.557  0.00  0.00    +0.308 C 
ATOM      7  O   LIG    1       22.268 -18.197   4.104  0.00  0.00    -0.252 OA
ATOM      8  N   LIG    1       23.870 -19.840   4.034  0.00  0.00    -0.273 N 
ATOM      9  H   LIG    1       24.306 -19.540   3.175  0.00  0.00    +0.152 HD
ENDROOT
BRANCH   1  14
ATOM     10  N   LIG    1       27.675 -20.066   5.061  0.00  0.00    -0.313 N 
ATOM     11  H   LIG    1       27.845 -20.425   5.990  0.00  0.00    +0.146 HD
ATOM     12  H   LIG    1       28.251 -19.272   4.803  0.00  0.00    +0.146 HD
ATOM     13  C   LIG    1       26.381 -19.942   4.674  0.00  0.00    +0.299 C 
ATOM     14  N   LIG    1       25.600 -20.935   5.173  0.00  0.00    -0.274 N 
ATOM     15  H   LIG    1       26.076 -21.814   5.305  0.00  0.00    +0.152 HD
ATOM     16  O   LIG    1       25.997 -19.011   3.985  0.00  0.00    -0.253 OA
ENDBRANCH   1  14
TORSDOF 1
ENDMDL
MODEL 6
REMARK VINA RESULT:      -4.2      5.425      6.870
REMARK  Name = *****
REMARK                            x       y       z     vdW  Elec       q    Type
REMARK                         _______ _______ _______ _____ _____    ______ ____
ROOT
ATOM      1  C   LIG    1       24.770 -20.804   4.169  0.00  0.00    +0.251 C 
ATOM      2  C   LIG    1       23.544 -19.871   4.315  0.00  0.00    +0.259 C 
ATOM      3  O   LIG    1       22.483 -20.119   4.864  0.00  0.00    -0.272 OA
ATOM      4  N   LIG    1       23.867 -18.668   3.762  0.00  0.00    -0.237 N 
ATOM      5  H   LIG    1       23.264 -17.863   3.744  0.00  0.00    +0.159 HD
ATOM      6  C   LIG    1       25.173 -18.642   3.411  0.00  0.00    +0.308 C 
ATOM      7  O   LIG    1       25.780 -17.681   2.970  0.00  0.00    -0.252 OA
ATOM      8  N   LIG    1       25.726 -19.869   3.664  0.00  0.00    -0.273 N 
ATOM      9  H   LIG    1       26.682 -20.088   3.429  0.00  0.00    +0.152 HD
ENDROOT
BRANCH   1  14
ATOM     10  N   LIG    1       26.744 -21.572   7.062  0.00  0.00    -0.313 N 
ATOM     11  H   LIG    1       26.002 -21.915   7.655  0.00  0.00    +0.146 HD
ATOM     12  H   LIG    1       27.525 -21.157   7.559  0.00  0.00    +0.146 HD
ATOM     13  C   LIG    1       26.379 -20.877   5.956  0.00  0.00    +0.299 C 
ATOM     14  N   LIG    1       25.233 -21.357   5.404  0.00  0.00    -0.274 N 
ATOM     15  H   LIG    1       25.093 -22.347   5.530  0.00  0.00    +0.152 HD
ATOM     16  O   LIG    1       27.014 -19.915   5.555  0.00  0.00    -0.253 OA
ENDBRANCH   1  14
TORSDOF 1
ENDMDL
MODEL 7
REMARK VINA RESULT:      -4.1      1.910      2.136
REMARK  Name = *****
REMARK                            x       y       z     vdW  Elec       q    Type
REMARK                         _______ _______ _______ _____ _____    ______ ____
ROOT
ATOM      1  C   LIG    1       25.650 -13.963   3.655  0.00  0.00    +0.251 C 
ATOM      2  C   LIG    1       24.133 -14.241   3.780  0.00  0.00    +0.259 C 
ATOM      3  O   LIG    1       23.586 -15.071   4.487  0.00  0.00    -0.272 OA
ATOM      4  N   LIG    1       23.478 -13.344   2.989  0.00  0.00    -0.237 N 
ATOM      5  H   LIG    1       22.478 -13.278   2.902  0.00  0.00    +0.159 HD
ATOM      6  C   LIG    1       24.343 -12.435   2.485  0.00  0.00    +0.308 C 
ATOM      7  O   LIG    1       24.051 -11.461   1.812  0.00  0.00    -0.252 OA
ATOM      8  N   LIG    1       25.612 -12.761   2.882  0.00  0.00    -0.273 N 
ATOM      9  H   LIG    1       26.423 -12.243   2.577  0.00  0.00    +0.152 HD
ENDROOT
BRANCH   1  14
ATOM     10  N   LIG    1       28.108 -13.220   6.157  0.00  0.00    -0.313 N 
ATOM     11  H   LIG    1       27.481 -12.926   6.891  0.00  0.00    +0.146 HD
ATOM     12  H   LIG    1       29.028 -12.793   6.190  0.00  0.00    +0.146 HD
ATOM     13  C   LIG    1       27.597 -13.300   4.903  0.00  0.00    +0.299 C 
ATOM     14  N   LIG    1       26.304 -13.721   4.904  0.00  0.00    -0.274 N 
ATOM     15  H   LIG    1       26.069 -14.346   5.659  0.00  0.00    +0.152 HD
ATOM     16  O   LIG    1       28.244 -12.988   3.917  0.00  0.00    -0.253 OA
ENDBRANCH   1  14
TORSDOF 1
ENDMDL
MODEL 8
REMARK VINA RESULT:      -4.1      2.087      3.112
REMARK  Name = *****
REMARK                            x       y       z     vdW  Elec       q    Type
REMARK                         _______ _______ _______ _____ _____    ______ ____
ROOT
ATOM      1  C   LIG    1       25.624 -14.458   3.905  0.00  0.00    +0.251 C 
ATOM      2  C   LIG    1       26.070 -13.717   2.621  0.00  0.00    +0.259 C 
ATOM      3  O   LIG    1       26.911 -14.072   1.812  0.00  0.00    -0.272 OA
ATOM      4  N   LIG    1       25.309 -12.592   2.503  0.00  0.00    -0.237 N 
ATOM      5  H   LIG    1       25.366 -11.936   1.742  0.00  0.00    +0.159 HD
ATOM      6  C   LIG    1       24.338 -12.574   3.445  0.00  0.00    +0.308 C 
ATOM      7  O   LIG    1       23.451 -11.745   3.548  0.00  0.00    -0.252 OA
ATOM      8  N   LIG    1       24.488 -13.666   4.258  0.00  0.00    -0.273 N 
ATOM      9  H   LIG    1       23.899 -13.825   5.062  0.00  0.00    +0.152 HD
ENDROOT
BRANCH   1  14
ATOM     10  N   LIG    1       25.659 -17.985   3.266  0.00  0.00    -0.313 N 
ATOM     11  H   LIG    1       24.758 -18.211   3.662  0.00  0.00    +0.146 HD
ATOM     12  H   LIG    1       26.337 -18.739   3.300  0.00  0.00    +0.146 HD
ATOM     13  C   LIG    1       26.184 -16.774   3.578  0.00  0.00    +0.299 C 
ATOM     14  N   LIG    1       25.227 -15.815   3.687  0.00  0.00    -0.274 N 
ATOM     15  H   LIG    1       24.426 -15.955   3.092  0.00  0.00    +0.152 HD
ATOM     16  O   LIG    1       27.378 -16.614   3.765  0.00  0.00    -0.253 OA
ENDBRANCH   1  14
TORSDOF 1
ENDMDL
MODEL 9
REMARK VINA RESULT:      -3.9      1.771      2.813
REMARK  Name = *****
REMARK                            x       y       z     vdW  Elec       q    Type
REMARK                         _______ _______ _______ _____ _____    ______ ____
ROOT
ATOM      1  C   LIG    1       26.057 -13.423   4.553  0.00  0.00    +0.251 C 
ATOM      2  C   LIG    1       25.904 -13.263   3.021  0.00  0.00    +0.259 C 
ATOM      3  O   LIG    1       25.701 -12.233   2.399  0.00  0.00    -0.272 OA
ATOM      4  N   LIG    1       26.095 -14.487   2.453  0.00  0.00    -0.237 N 
ATOM      5  H   LIG    1       26.081 -14.669   1.463  0.00  0.00    +0.159 HD
ATOM      6  C   LIG    1       26.491 -15.386   3.382  0.00  0.00    +0.308 C 
ATOM      7  O   LIG    1       26.819 -16.541   3.172  0.00  0.00    -0.252 OA
ATOM      8  N   LIG    1       26.501 -14.781   4.611  0.00  0.00    -0.273 N 
ATOM      9  H   LIG    1       26.718 -15.283   5.458  0.00  0.00    +0.152 HD
ENDROOT
BRANCH   1  14
ATOM     10  N   LIG    1       29.154 -11.839   5.419  0.00  0.00    -0.313 N 
ATOM     11  H   LIG    1       28.779 -10.960   5.745  0.00  0.00    +0.146 HD
ATOM     12  H   LIG    1       30.091 -11.783   5.036  0.00  0.00    +0.146 HD
ATOM     13  C   LIG    1       28.324 -12.635   4.699  0.00  0.00    +0.299 C 
ATOM     14  N   LIG    1       27.039 -12.562   5.136  0.00  0.00    -0.274 N 
ATOM     15  H   LIG    1       26.943 -12.379   6.123  0.00  0.00    +0.152 HD
ATOM     16  O   LIG    1       28.719 -13.297   3.755  0.00  0.00    -0.253 OA
ENDBRANCH   1  14
TORSDOF 1
ENDMDL
