MODEL 1
REMARK VINA RESULT:       1.1      0.000      0.000
REMARK  Name = *****
REMARK                            x       y       z     vdW  Elec       q    Type
REMARK                         _______ _______ _______ _____ _____    ______ ____
ROOT
ATOM      1  C   LIG    1       26.037 -17.244   3.923  0.00  0.00    +0.005 A 
ATOM      2  C   LIG    1       25.916 -18.547   4.496  0.00  0.00    +0.000 A 
ATOM      3  C   LIG    1       27.113 -19.091   5.094  0.00  0.00    +0.009 A 
ATOM      4  C   LIG    1       28.260 -18.260   5.152  0.00  0.00    +0.072 A 
ATOM      5  C   LIG    1       29.393 -18.672   5.839  0.00  0.00    +0.028 A 
ATOM      6  C   LIG    1       29.475 -19.916   6.458  0.00  0.00    +0.002 A 
ATOM      7  C   LIG    1       28.418 -20.795   6.334  0.00  0.00    +0.001 A 
ATOM      8  N   LIG    1       28.349 -17.072   4.552  0.00  0.00    -0.251 NA
ATOM      9  C   LIG    1       27.274 -20.400   5.635  0.00  0.00    +0.010 A 
ATOM     10  C   LIG    1       27.284 -16.586   3.885  0.00  0.00    +0.053 A 
ENDROOT
BRANCH   2  11
ATOM     11  C   LIG    1       24.594 -19.309   4.483  0.00  0.00    -0.017 A 
ATOM     12  C   LIG    1       24.530 -20.717   4.392  0.00  0.00    +0.011 A 
ATOM     13  C   LIG    1       23.316 -21.415   4.308  0.00  0.00    +0.039 A 
ATOM     14  C   LIG    1       22.122 -20.734   4.450  0.00  0.00    +0.123 A 
ATOM     15  F   LIG    1       20.962 -21.402   4.430  0.00  0.00    -0.205 F 
ATOM     16  C   LIG    1       22.123 -19.363   4.617  0.00  0.00    +0.039 A 
ATOM     17  C   LIG    1       23.338 -18.664   4.571  0.00  0.00    +0.011 A 
ENDBRANCH   2  11
BRANCH  10  18
ATOM     18  C   LIG    1       27.502 -15.317   3.066  0.00  0.00    +0.038 C 
ATOM     19  C   LIG    1       26.891 -13.996   3.485  0.00  0.00    +0.010 C 
ATOM     20  C   LIG    1       28.358 -14.214   3.665  0.00  0.00    +0.010 C 
ENDBRANCH  10  18
BRANCH   1  22
ATOM     21  C   LIG    1       24.431 -15.351   3.791  0.00  0.00    +0.005 C 
ATOM     22  C   LIG    1       24.908 -16.516   3.324  0.00  0.00    +0.008 C 
BRANCH  21  23
ATOM     23  C   LIG    1       23.231 -14.639   3.226  0.00  0.00    +0.140 C 
BRANCH  23  24
ATOM     24  O   LIG    1       22.388 -14.241   4.305  0.00  0.00    -0.388 OA
ATOM     25  H   LIG    1       22.897 -13.626   4.865  0.00  0.00    +0.210 HD
ENDBRANCH  23  24
BRANCH  23  26
ATOM     26  C   LIG    1       23.579 -13.412   2.364  0.00  0.00    +0.067 C 
BRANCH  26  27
ATOM     27  C   LIG    1       24.639 -12.487   2.976  0.00  0.00    +0.128 C 
BRANCH  27  28
ATOM     28  O   LIG    1       25.328 -11.776   1.940  0.00  0.00    -0.391 OA
ATOM     29  H   LIG    1       24.731 -11.793   1.154  0.00  0.00    +0.210 HD
ENDBRANCH  27  28
BRANCH  27  30
ATOM     30  C   LIG    1       23.963 -11.453   3.873  0.00  0.00    +0.151 C 
BRANCH  30  32
ATOM     31  O   LIG    1       23.223 -11.668   6.151  0.00  0.00    -0.251 OA
ATOM     32  C   LIG    1       24.119 -11.772   5.341  0.00  0.00    +0.307 C 
BRANCH  32  33
ATOM     33  O   LIG    1       25.385 -12.114   5.682  0.00  0.00    -0.481 OA
ATOM     34  H   LIG    1       26.018 -11.385   5.467  0.00  0.00    +0.295 HD
ENDBRANCH  32  33
ENDBRANCH  30  32
ENDBRANCH  27  30
ENDBRANCH  26  27
ENDBRANCH  23  26
ENDBRANCH  21  23
ENDBRANCH   1  22
TORSDOF 11
ENDMDL
MODEL 2
REMARK VINA RESULT:       2.0      2.675      4.924
REMARK  Name = *****
REMARK                            x       y       z     vdW  Elec       q    Type
REMARK                         _______ _______ _______ _____ _____    ______ ____
ROOT
ATOM      1  C   LIG    1       25.625 -17.011   3.668  0.00  0.00    +0.005 A 
ATOM      2  C   LIG    1       26.893 -16.712   4.257  0.00  0.00    +0.000 A 
ATOM      3  C   LIG    1       27.579 -17.820   4.882  0.00  0.00    +0.009 A 
ATOM      4  C   LIG    1       26.995 -19.107   4.772  0.00  0.00    +0.072 A 
ATOM      5  C   LIG    1       27.675 -20.228   5.227  0.00  0.00    +0.028 A 
ATOM      6  C   LIG    1       28.921 -20.143   5.841  0.00  0.00    +0.002 A 
ATOM      7  C   LIG    1       29.474 -18.898   6.060  0.00  0.00    +0.001 A 
ATOM      8  N   LIG    1       25.782 -19.332   4.266  0.00  0.00    -0.251 NA
ATOM      9  C   LIG    1       28.797 -17.758   5.619  0.00  0.00    +0.010 A 
ATOM     10  C   LIG    1       25.065 -18.301   3.779  0.00  0.00    +0.053 A 
ENDROOT
BRANCH   2  11
ATOM     11  C   LIG    1       27.485 -15.307   4.213  0.00  0.00    -0.017 A 
ATOM     12  C   LIG    1       28.218 -14.827   3.106  0.00  0.00    +0.011 A 
ATOM     13  C   LIG    1       28.825 -13.561   3.092  0.00  0.00    +0.039 A 
ATOM     14  C   LIG    1       28.602 -12.682   4.135  0.00  0.00    +0.123 A 
ATOM     15  F   LIG    1       29.129 -11.452   4.101  0.00  0.00    -0.205 F 
ATOM     16  C   LIG    1       27.831 -13.069   5.213  0.00  0.00    +0.039 A 
ATOM     17  C   LIG    1       27.336 -14.381   5.272  0.00  0.00    +0.011 A 
ENDBRANCH   2  11
BRANCH  10  18
ATOM     18  C   LIG    1       23.618 -18.588   3.388  0.00  0.00    +0.038 C 
ATOM     19  C   LIG    1       22.793 -19.619   4.131  0.00  0.00    +0.010 C 
ATOM     20  C   LIG    1       22.518 -18.166   4.347  0.00  0.00    +0.010 C 
ENDBRANCH  10  18
BRANCH   1  22
ATOM     21  C   LIG    1       25.273 -14.819   2.552  0.00  0.00    +0.005 C 
ATOM     22  C   LIG    1       24.818 -16.020   2.941  0.00  0.00    +0.008 C 
BRANCH  21  23
ATOM     23  C   LIG    1       24.430 -13.773   1.872  0.00  0.00    +0.140 C 
BRANCH  23  24
ATOM     24  O   LIG    1       23.162 -13.716   2.521  0.00  0.00    -0.388 OA
ATOM     25  H   LIG    1       22.476 -13.732   1.828  0.00  0.00    +0.210 HD
ENDBRANCH  23  24
BRANCH  23  26
ATOM     26  C   LIG    1       25.064 -12.370   1.855  0.00  0.00    +0.067 C 
BRANCH  26  27
ATOM     27  C   LIG    1       24.589 -11.447   2.984  0.00  0.00    +0.128 C 
BRANCH  27  28
ATOM     28  O   LIG    1       23.158 -11.447   3.049  0.00  0.00    -0.391 OA
ATOM     29  H   LIG    1       22.844 -11.691   2.147  0.00  0.00    +0.210 HD
ENDBRANCH  27  28
BRANCH  27  30
ATOM     30  C   LIG    1       25.111 -11.963   4.324  0.00  0.00    +0.151 C 
BRANCH  30  32
ATOM     31  O   LIG    1       23.560 -11.457   6.090  0.00  0.00    -0.251 OA
ATOM     32  C   LIG    1       23.998 -12.264   5.299  0.00  0.00    +0.307 C 
BRANCH  32  33
ATOM     33  O   LIG    1       23.585 -13.554   5.256  0.00  0.00    -0.481 OA
ATOM     34  H   LIG    1       22.897 -13.727   5.945  0.00  0.00    +0.295 HD
ENDBRANCH  32  33
ENDBRANCH  30  32
ENDBRANCH  27  30
ENDBRANCH  26  27
ENDBRANCH  23  26
ENDBRANCH  21  23
ENDBRANCH   1  22
TORSDOF 11
ENDMDL
MODEL 3
REMARK VINA RESULT:       2.7      2.355      4.795
REMARK  Name = *****
REMARK                            x       y       z     vdW  Elec       q    Type
REMARK                         _______ _______ _______ _____ _____    ______ ____
ROOT
ATOM      1  C   LIG    1       24.858 -17.745   4.132  0.00  0.00    +0.005 A 
ATOM      2  C   LIG    1       24.808 -19.051   4.707  0.00  0.00    +0.000 A 
ATOM      3  C   LIG    1       23.514 -19.695   4.709  0.00  0.00    +0.009 A 
ATOM      4  C   LIG    1       22.443 -19.029   4.060  0.00  0.00    +0.072 A 
ATOM      5  C   LIG    1       21.216 -19.658   3.905  0.00  0.00    +0.028 A 
ATOM      6  C   LIG    1       20.966 -20.933   4.406  0.00  0.00    +0.002 A 
ATOM      7  C   LIG    1       21.950 -21.570   5.135  0.00  0.00    +0.001 A 
ATOM      8  N   LIG    1       22.518 -17.785   3.588  0.00  0.00    -0.251 NA
ATOM      9  C   LIG    1       23.187 -20.944   5.311  0.00  0.00    +0.010 A 
ATOM     10  C   LIG    1       23.683 -17.112   3.676  0.00  0.00    +0.053 A 
ENDROOT
BRANCH   2  11
ATOM     11  C   LIG    1       26.054 -19.726   5.273  0.00  0.00    -0.017 A 
ATOM     12  C   LIG    1       25.990 -20.889   6.072  0.00  0.00    +0.011 A 
ATOM     13  C   LIG    1       27.127 -21.471   6.653  0.00  0.00    +0.039 A 
ATOM     14  C   LIG    1       28.382 -20.984   6.340  0.00  0.00    +0.123 A 
ATOM     15  F   LIG    1       29.475 -21.571   6.844  0.00  0.00    -0.205 F 
ATOM     16  C   LIG    1       28.513 -19.893   5.504  0.00  0.00    +0.039 A 
ATOM     17  C   LIG    1       27.362 -19.244   5.033  0.00  0.00    +0.011 A 
ENDBRANCH   2  11
BRANCH  10  18
ATOM     18  C   LIG    1       23.658 -15.635   3.293  0.00  0.00    +0.038 C 
ATOM     19  C   LIG    1       22.365 -14.845   3.291  0.00  0.00    +0.010 C 
ATOM     20  C   LIG    1       23.361 -14.616   4.381  0.00  0.00    +0.010 C 
ENDBRANCH  10  18
BRANCH   1  22
ATOM     21  C   LIG    1       26.208 -15.844   3.269  0.00  0.00    +0.005 C 
ATOM     22  C   LIG    1       26.100 -16.969   3.994  0.00  0.00    +0.008 C 
BRANCH  21  23
ATOM     23  C   LIG    1       27.493 -15.087   3.067  0.00  0.00    +0.140 C 
BRANCH  23  24
ATOM     24  O   LIG    1       27.208 -13.890   2.345  0.00  0.00    -0.388 OA
ATOM     25  H   LIG    1       26.502 -13.419   2.825  0.00  0.00    +0.210 HD
ENDBRANCH  23  24
BRANCH  23  26
ATOM     26  C   LIG    1       28.228 -14.738   4.374  0.00  0.00    +0.067 C 
BRANCH  26  27
ATOM     27  C   LIG    1       27.805 -13.403   5.001  0.00  0.00    +0.128 C 
BRANCH  27  28
ATOM     28  O   LIG    1       27.855 -12.361   4.019  0.00  0.00    -0.391 OA
ATOM     29  H   LIG    1       28.719 -12.465   3.555  0.00  0.00    +0.210 HD
ENDBRANCH  27  28
BRANCH  27  30
ATOM     30  C   LIG    1       26.363 -13.502   5.495  0.00  0.00    +0.151 C 
BRANCH  30  32
ATOM     31  O   LIG    1       25.363 -12.379   3.619  0.00  0.00    -0.251 OA
ATOM     32  C   LIG    1       25.453 -12.502   4.821  0.00  0.00    +0.307 C 
BRANCH  32  33
ATOM     33  O   LIG    1       24.800 -11.700   5.696  0.00  0.00    -0.481 OA
ATOM     34  H   LIG    1       24.952 -11.994   6.627  0.00  0.00    +0.295 HD
ENDBRANCH  32  33
ENDBRANCH  30  32
ENDBRANCH  27  30
ENDBRANCH  26  27
ENDBRANCH  23  26
ENDBRANCH  21  23
ENDBRANCH   1  22
TORSDOF 11
ENDMDL
MODEL 4
REMARK VINA RESULT:       2.8      1.394      1.911
REMARK  Name = *****
REMARK                            x       y       z     vdW  Elec       q    Type
REMARK                         _______ _______ _______ _____ _____    ______ ____
ROOT
ATOM      1  C   LIG    1       26.298 -15.958   3.662  0.00  0.00    +0.005 A 
ATOM      2  C   LIG    1       25.959 -17.286   4.065  0.00  0.00    +0.000 A 
ATOM      3  C   LIG    1       27.036 -18.077   4.614  0.00  0.00    +0.009 A 
ATOM      4  C   LIG    1       28.293 -17.447   4.797  0.00  0.00    +0.072 A 
ATOM      5  C   LIG    1       29.323 -18.111   5.450  0.00  0.00    +0.028 A 
ATOM      6  C   LIG    1       29.191 -19.418   5.909  0.00  0.00    +0.002 A 
ATOM      7  C   LIG    1       28.018 -20.101   5.655  0.00  0.00    +0.001 A 
ATOM      8  N   LIG    1       28.583 -16.225   4.354  0.00  0.00    -0.251 NA
ATOM      9  C   LIG    1       26.976 -19.451   4.989  0.00  0.00    +0.010 A 
ATOM     10  C   LIG    1       27.631 -15.502   3.732  0.00  0.00    +0.053 A 
ENDROOT
BRANCH   2  11
ATOM     11  C   LIG    1       24.538 -17.826   3.931  0.00  0.00    -0.017 A 
ATOM     12  C   LIG    1       23.403 -17.080   4.318  0.00  0.00    +0.011 A 
ATOM     13  C   LIG    1       22.101 -17.601   4.262  0.00  0.00    +0.039 A 
ATOM     14  C   LIG    1       21.881 -18.839   3.689  0.00  0.00    +0.123 A 
ATOM     15  F   LIG    1       20.635 -19.316   3.579  0.00  0.00    -0.205 F 
ATOM     16  C   LIG    1       22.946 -19.584   3.224  0.00  0.00    +0.039 A 
ATOM     17  C   LIG    1       24.252 -19.106   3.401  0.00  0.00    +0.011 A 
ENDBRANCH   2  11
BRANCH  10  18
ATOM     18  C   LIG    1       28.071 -14.193   3.082  0.00  0.00    +0.038 C 
ATOM     19  C   LIG    1       27.865 -12.862   3.778  0.00  0.00    +0.010 C 
ATOM     20  C   LIG    1       29.240 -13.442   3.699  0.00  0.00    +0.010 C 
ENDBRANCH  10  18
BRANCH   1  22
ATOM     21  C   LIG    1       25.619 -13.996   2.296  0.00  0.00    +0.005 C 
ATOM     22  C   LIG    1       25.317 -14.996   3.138  0.00  0.00    +0.008 C 
BRANCH  21  23
ATOM     23  C   LIG    1       24.633 -12.966   1.813  0.00  0.00    +0.140 C 
BRANCH  23  24
ATOM     24  O   LIG    1       23.315 -13.486   1.976  0.00  0.00    -0.388 OA
ATOM     25  H   LIG    1       23.391 -14.452   2.081  0.00  0.00    +0.210 HD
ENDBRANCH  23  24
BRANCH  23  26
ATOM     26  C   LIG    1       24.744 -11.607   2.529  0.00  0.00    +0.067 C 
BRANCH  26  27
ATOM     27  C   LIG    1       23.806 -11.447   3.732  0.00  0.00    +0.128 C 
BRANCH  27  28
ATOM     28  O   LIG    1       22.884 -12.543   3.786  0.00  0.00    -0.391 OA
ATOM     29  H   LIG    1       22.571 -12.591   4.721  0.00  0.00    +0.210 HD
ENDBRANCH  27  28
BRANCH  27  30
ATOM     30  C   LIG    1       24.620 -11.467   5.025  0.00  0.00    +0.151 C 
BRANCH  30  32
ATOM     31  O   LIG    1       24.050 -13.744   5.542  0.00  0.00    -0.251 OA
ATOM     32  C   LIG    1       24.888 -12.869   5.517  0.00  0.00    +0.307 C 
BRANCH  32  33
ATOM     33  O   LIG    1       26.143 -13.035   6.001  0.00  0.00    -0.481 OA
ATOM     34  H   LIG    1       26.245 -13.924   6.419  0.00  0.00    +0.295 HD
ENDBRANCH  32  33
ENDBRANCH  30  32
ENDBRANCH  27  30
ENDBRANCH  26  27
ENDBRANCH  23  26
ENDBRANCH  21  23
ENDBRANCH   1  22
TORSDOF 11
ENDMDL
MODEL 5
REMARK VINA RESULT:       3.4      2.461      5.270
REMARK  Name = *****
REMARK                            x       y       z     vdW  Elec       q    Type
REMARK                         _______ _______ _______ _____ _____    ______ ____
ROOT
ATOM      1  C   LIG    1       26.352 -17.601   4.209  0.00  0.00    +0.005 A 
ATOM      2  C   LIG    1       25.015 -17.198   3.910  0.00  0.00    +0.000 A 
ATOM      3  C   LIG    1       24.001 -18.220   4.036  0.00  0.00    +0.009 A 
ATOM      4  C   LIG    1       24.397 -19.487   4.534  0.00  0.00    +0.072 A 
ATOM      5  C   LIG    1       23.447 -20.461   4.811  0.00  0.00    +0.028 A 
ATOM      6  C   LIG    1       22.090 -20.263   4.577  0.00  0.00    +0.002 A 
ATOM      7  C   LIG    1       21.677 -19.081   3.995  0.00  0.00    +0.001 A 
ATOM      8  N   LIG    1       25.665 -19.840   4.744  0.00  0.00    -0.251 NA
ATOM      9  C   LIG    1       22.622 -18.095   3.698  0.00  0.00    +0.010 A 
ATOM     10  C   LIG    1       26.647 -18.944   4.524  0.00  0.00    +0.053 A 
ENDROOT
BRANCH   2  11
ATOM     11  C   LIG    1       24.682 -15.768   3.495  0.00  0.00    -0.017 A 
ATOM     12  C   LIG    1       23.686 -15.003   4.140  0.00  0.00    +0.011 A 
ATOM     13  C   LIG    1       23.329 -13.714   3.715  0.00  0.00    +0.039 A 
ATOM     14  C   LIG    1       24.054 -13.096   2.713  0.00  0.00    +0.123 A 
ATOM     15  F   LIG    1       23.756 -11.845   2.344  0.00  0.00    -0.205 F 
ATOM     16  C   LIG    1       25.089 -13.768   2.094  0.00  0.00    +0.039 A 
ATOM     17  C   LIG    1       25.352 -15.101   2.443  0.00  0.00    +0.011 A 
ENDBRANCH   2  11
BRANCH  10  18
ATOM     18  C   LIG    1       28.081 -19.459   4.600  0.00  0.00    +0.038 C 
ATOM     19  C   LIG    1       29.086 -18.848   5.556  0.00  0.00    +0.010 C 
ATOM     20  C   LIG    1       28.515 -20.195   5.858  0.00  0.00    +0.010 C 
ENDBRANCH  10  18
BRANCH   1  22
ATOM     21  C   LIG    1       27.406 -15.370   3.908  0.00  0.00    +0.005 C 
ATOM     22  C   LIG    1       27.498 -16.680   4.189  0.00  0.00    +0.008 C 
BRANCH  21  23
ATOM     23  C   LIG    1       28.584 -14.438   3.815  0.00  0.00    +0.140 C 
BRANCH  23  24
ATOM     24  O   LIG    1       28.312 -13.458   2.816  0.00  0.00    -0.388 OA
ATOM     25  H   LIG    1       28.984 -12.756   2.903  0.00  0.00    +0.210 HD
ENDBRANCH  23  24
BRANCH  23  26
ATOM     26  C   LIG    1       28.936 -13.739   5.142  0.00  0.00    +0.067 C 
BRANCH  26  27
ATOM     27  C   LIG    1       28.492 -12.273   5.222  0.00  0.00    +0.128 C 
BRANCH  27  28
ATOM     28  O   LIG    1       29.349 -11.455   4.415  0.00  0.00    -0.391 OA
ATOM     29  H   LIG    1       30.223 -11.444   4.871  0.00  0.00    +0.210 HD
ENDBRANCH  27  28
BRANCH  27  30
ATOM     30  C   LIG    1       27.073 -12.134   4.673  0.00  0.00    +0.151 C 
BRANCH  30  32
ATOM     31  O   LIG    1       26.018 -13.665   6.197  0.00  0.00    -0.251 OA
ATOM     32  C   LIG    1       26.025 -12.575   5.666  0.00  0.00    +0.307 C 
BRANCH  32  33
ATOM     33  O   LIG    1       25.044 -11.659   5.851  0.00  0.00    -0.481 OA
ATOM     34  H   LIG    1       25.421 -10.748   5.923  0.00  0.00    +0.295 HD
ENDBRANCH  32  33
ENDBRANCH  30  32
ENDBRANCH  27  30
ENDBRANCH  26  27
ENDBRANCH  23  26
ENDBRANCH  21  23
ENDBRANCH   1  22
TORSDOF 11
ENDMDL
MODEL 6
REMARK VINA RESULT:       4.0      3.212      6.284
REMARK  Name = *****
REMARK                            x       y       z     vdW  Elec       q    Type
REMARK                         _______ _______ _______ _____ _____    ______ ____
ROOT
ATOM      1  C   LIG    1       26.471 -16.750   4.041  0.00  0.00    +0.005 A 
ATOM      2  C   LIG    1       25.192 -16.172   3.771  0.00  0.00    +0.000 A 
ATOM      3  C   LIG    1       25.189 -14.766   3.438  0.00  0.00    +0.009 A 
ATOM      4  C   LIG    1       26.441 -14.113   3.310  0.00  0.00    +0.072 A 
ATOM      5  C   LIG    1       26.508 -12.804   2.854  0.00  0.00    +0.028 A 
ATOM      6  C   LIG    1       25.369 -12.065   2.547  0.00  0.00    +0.002 A 
ATOM      7  C   LIG    1       24.128 -12.631   2.759  0.00  0.00    +0.001 A 
ATOM      8  N   LIG    1       27.608 -14.674   3.628  0.00  0.00    -0.251 NA
ATOM      9  C   LIG    1       24.043 -13.944   3.230  0.00  0.00    +0.010 A 
ATOM     10  C   LIG    1       27.634 -15.952   4.055  0.00  0.00    +0.053 A 
ENDROOT
BRANCH   2  11
ATOM     11  C   LIG    1       23.911 -17.000   3.822  0.00  0.00    -0.017 A 
ATOM     12  C   LIG    1       22.732 -16.534   4.443  0.00  0.00    +0.011 A 
ATOM     13  C   LIG    1       21.575 -17.321   4.554  0.00  0.00    +0.039 A 
ATOM     14  C   LIG    1       21.518 -18.550   3.925  0.00  0.00    +0.123 A 
ATOM     15  F   LIG    1       20.397 -19.280   3.978  0.00  0.00    -0.205 F 
ATOM     16  C   LIG    1       22.617 -19.027   3.239  0.00  0.00    +0.039 A 
ATOM     17  C   LIG    1       23.808 -18.286   3.243  0.00  0.00    +0.011 A 
ENDBRANCH   2  11
BRANCH  10  18
ATOM     18  C   LIG    1       28.966 -16.478   4.581  0.00  0.00    +0.038 C 
ATOM     19  C   LIG    1       29.092 -17.037   5.984  0.00  0.00    +0.010 C 
ATOM     20  C   LIG    1       29.105 -17.973   4.819  0.00  0.00    +0.010 C 
ENDBRANCH  10  18
BRANCH   1  22
ATOM     21  C   LIG    1       26.023 -19.172   3.709  0.00  0.00    +0.005 C 
ATOM     22  C   LIG    1       26.666 -18.177   4.339  0.00  0.00    +0.008 C 
BRANCH  21  23
ATOM     23  C   LIG    1       26.166 -20.629   4.059  0.00  0.00    +0.140 C 
BRANCH  23  24
ATOM     24  O   LIG    1       27.359 -20.800   4.821  0.00  0.00    -0.388 OA
ATOM     25  H   LIG    1       28.010 -20.150   4.497  0.00  0.00    +0.210 HD
ENDBRANCH  23  24
BRANCH  23  26
ATOM     26  C   LIG    1       24.969 -21.207   4.837  0.00  0.00    +0.067 C 
BRANCH  26  27
ATOM     27  C   LIG    1       25.215 -21.379   6.341  0.00  0.00    +0.128 C 
BRANCH  27  28
ATOM     28  O   LIG    1       25.829 -20.199   6.876  0.00  0.00    -0.391 OA
ATOM     29  H   LIG    1       26.532 -19.942   6.234  0.00  0.00    +0.210 HD
ENDBRANCH  27  28
BRANCH  27  30
ATOM     30  C   LIG    1       23.883 -21.572   7.062  0.00  0.00    +0.151 C 
BRANCH  30  32
ATOM     31  O   LIG    1       21.939 -21.564   5.646  0.00  0.00    -0.251 OA
ATOM     32  C   LIG    1       22.729 -20.939   6.321  0.00  0.00    +0.307 C 
BRANCH  32  33
ATOM     33  O   LIG    1       22.706 -19.588   6.421  0.00  0.00    -0.481 OA
ATOM     34  H   LIG    1       23.556 -19.247   6.791  0.00  0.00    +0.295 HD
ENDBRANCH  32  33
ENDBRANCH  30  32
ENDBRANCH  27  30
ENDBRANCH  26  27
ENDBRANCH  23  26
ENDBRANCH  21  23
ENDBRANCH   1  22
TORSDOF 11
ENDMDL
MODEL 7
REMARK VINA RESULT:       4.1      3.180      6.493
REMARK  Name = *****
REMARK                            x       y       z     vdW  Elec       q    Type
REMARK                         _______ _______ _______ _____ _____    ______ ____
ROOT
ATOM      1  C   LIG    1       26.172 -15.365   3.845  0.00  0.00    +0.005 A 
ATOM      2  C   LIG    1       24.756 -15.364   4.038  0.00  0.00    +0.000 A 
ATOM      3  C   LIG    1       24.130 -14.065   4.138  0.00  0.00    +0.009 A 
ATOM      4  C   LIG    1       24.943 -12.922   3.939  0.00  0.00    +0.072 A 
ATOM      5  C   LIG    1       24.375 -11.657   3.882  0.00  0.00    +0.028 A 
ATOM      6  C   LIG    1       23.010 -11.447   4.058  0.00  0.00    +0.002 A 
ATOM      7  C   LIG    1       22.201 -12.524   4.358  0.00  0.00    +0.001 A 
ATOM      8  N   LIG    1       26.270 -12.964   3.821  0.00  0.00    -0.251 NA
ATOM      9  C   LIG    1       22.760 -13.803   4.431  0.00  0.00    +0.010 A 
ATOM     10  C   LIG    1       26.899 -14.156   3.840  0.00  0.00    +0.053 A 
ENDROOT
BRANCH   2  11
ATOM     11  C   LIG    1       23.957 -16.662   4.120  0.00  0.00    -0.017 A 
ATOM     12  C   LIG    1       22.660 -16.720   4.673  0.00  0.00    +0.011 A 
ATOM     13  C   LIG    1       21.952 -17.923   4.815  0.00  0.00    +0.039 A 
ATOM     14  C   LIG    1       22.467 -19.090   4.282  0.00  0.00    +0.123 A 
ATOM     15  F   LIG    1       21.770 -20.230   4.362  0.00  0.00    -0.205 F 
ATOM     16  C   LIG    1       23.701 -19.081   3.662  0.00  0.00    +0.039 A 
ATOM     17  C   LIG    1       24.453 -17.897   3.640  0.00  0.00    +0.011 A 
ENDBRANCH   2  11
BRANCH  10  18
ATOM     18  C   LIG    1       28.424 -14.132   3.889  0.00  0.00    +0.038 C 
ATOM     19  C   LIG    1       29.225 -13.197   3.006  0.00  0.00    +0.010 C 
ATOM     20  C   LIG    1       29.105 -12.902   4.466  0.00  0.00    +0.010 C 
ENDBRANCH  10  18
BRANCH   1  22
ATOM     21  C   LIG    1       27.432 -17.339   4.675  0.00  0.00    +0.005 C 
ATOM     22  C   LIG    1       26.962 -16.591   3.664  0.00  0.00    +0.008 C 
BRANCH  21  23
ATOM     23  C   LIG    1       28.302 -18.555   4.497  0.00  0.00    +0.140 C 
BRANCH  23  24
ATOM     24  O   LIG    1       29.474 -18.398   5.295  0.00  0.00    -0.388 OA
ATOM     25  H   LIG    1       30.070 -19.142   5.091  0.00  0.00    +0.210 HD
ENDBRANCH  23  24
BRANCH  23  26
ATOM     26  C   LIG    1       27.608 -19.881   4.855  0.00  0.00    +0.067 C 
BRANCH  26  27
ATOM     27  C   LIG    1       28.213 -20.607   6.064  0.00  0.00    +0.128 C 
BRANCH  27  28
ATOM     28  O   LIG    1       28.605 -19.656   7.062  0.00  0.00    -0.391 OA
ATOM     29  H   LIG    1       28.254 -19.999   7.918  0.00  0.00    +0.210 HD
ENDBRANCH  27  28
BRANCH  27  30
ATOM     30  C   LIG    1       27.165 -21.525   6.690  0.00  0.00    +0.151 C 
BRANCH  30  32
ATOM     31  O   LIG    1       24.851 -21.572   6.041  0.00  0.00    -0.251 OA
ATOM     32  C   LIG    1       25.766 -20.973   6.565  0.00  0.00    +0.307 C 
BRANCH  32  33
ATOM     33  O   LIG    1       25.647 -19.707   7.031  0.00  0.00    -0.481 OA
ATOM     34  H   LIG    1       24.702 -19.488   7.223  0.00  0.00    +0.295 HD
ENDBRANCH  32  33
ENDBRANCH  30  32
ENDBRANCH  27  30
ENDBRANCH  26  27
ENDBRANCH  23  26
ENDBRANCH  21  23
ENDBRANCH   1  22
TORSDOF 11
ENDMDL
