MODEL 1
REMARK VINA RESULT:      -4.3      0.000      0.000
REMARK  Name = *****
REMARK                            x       y       z     vdW  Elec       q    Type
REMARK                         _______ _______ _______ _____ _____    ______ ____
ROOT
ATOM      1  N   LIG    1       25.662 -17.705   3.300  0.00  0.00    -0.287 NA
ATOM      2  C   LIG    1       24.331 -17.387   3.836  0.00  0.00    +0.108 C 
ATOM      3  C   LIG    1       23.341 -18.574   3.763  0.00  0.00    +0.039 C 
ATOM      4  C   LIG    1       22.010 -18.179   4.427  0.00  0.00    +0.030 C 
ATOM      5  C   LIG    1       23.976 -19.731   4.544  0.00  0.00    +0.108 C 
ATOM      6  N   LIG    1       25.323 -20.061   4.094  0.00  0.00    -0.287 NA
ATOM      7  C   LIG    1       26.238 -18.936   3.894  0.00  0.00    +0.171 C 
ENDROOT
BRANCH   3   8
ATOM      8  N   LIG    1       23.056 -19.004   2.373  0.00  0.00    -0.323 NA
ATOM      9  H   LIG    1       22.341 -19.707   2.377  0.00  0.00    +0.119 HD
ATOM     10  H   LIG    1       22.608 -18.186   1.923  0.00  0.00    +0.119 HD
ENDBRANCH   3   8
BRANCH   1  11
ATOM     11  C   LIG    1       26.618 -16.571   3.509  0.00  0.00    +0.089 C 
BRANCH  11  12
ATOM     12  C   LIG    1       26.207 -15.088   3.166  0.00  0.00    +0.003 C 
BRANCH  12  13
ATOM     13  C   LIG    1       27.386 -14.158   2.796  0.00  0.00    +0.001 C 
ATOM     14  C   LIG    1       28.334 -13.759   3.910  0.00  0.00    +0.004 C 
ENDBRANCH  12  13
BRANCH  12  15
ATOM     15  C   LIG    1       25.445 -14.457   4.393  0.00  0.00    +0.005 C 
BRANCH  15  16
ATOM     16  C   LIG    1       24.138 -13.721   4.026  0.00  0.00    +0.000 C 
BRANCH  16  18
ATOM     17  C   LIG    1       24.398 -12.402   1.846  0.00  0.00    +0.004 C 
ATOM     18  C   LIG    1       24.333 -12.348   3.365  0.00  0.00    -0.003 C 
ENDBRANCH  16  18
ENDBRANCH  15  16
ENDBRANCH  12  15
ENDBRANCH  11  12
ENDBRANCH   1  11
BRANCH   6  19
ATOM     19  C   LIG    1       25.904 -21.162   4.904  0.00  0.00    +0.089 C 
BRANCH  19  20
ATOM     20  C   LIG    1       25.988 -21.061   6.472  0.00  0.00    +0.003 C 
BRANCH  20  21
ATOM     21  C   LIG    1       24.625 -20.576   7.043  0.00  0.00    +0.001 C 
ATOM     22  C   LIG    1       23.474 -21.569   6.869  0.00  0.00    +0.004 C 
ENDBRANCH  20  21
BRANCH  20  23
ATOM     23  C   LIG    1       27.164 -20.238   7.062  0.00  0.00    +0.005 C 
BRANCH  23  24
ATOM     24  C   LIG    1       28.585 -20.761   6.791  0.00  0.00    +0.000 C 
BRANCH  24  25
ATOM     25  C   LIG    1       29.475 -19.746   6.054  0.00  0.00    -0.003 C 
ATOM     26  C   LIG    1       29.348 -18.326   6.588  0.00  0.00    +0.004 C 
ENDBRANCH  24  25
ENDBRANCH  23  24
ENDBRANCH  20  23
ENDBRANCH  19  20
ENDBRANCH   6  19
TORSDOF 13
ENDMDL
MODEL 2
REMARK VINA RESULT:      -3.3      1.592      6.497
REMARK  Name = *****
REMARK                            x       y       z     vdW  Elec       q    Type
REMARK                         _______ _______ _______ _____ _____    ______ ____
ROOT
ATOM      1  N   LIG    1       26.000 -19.576   3.945  0.00  0.00    -0.287 NA
ATOM      2  C   LIG    1       26.429 -19.967   5.295  0.00  0.00    +0.108 C 
ATOM      3  C   LIG    1       27.900 -19.597   5.603  0.00  0.00    +0.039 C 
ATOM      4  C   LIG    1       28.230 -19.958   7.062  0.00  0.00    +0.030 C 
ATOM      5  C   LIG    1       28.026 -18.080   5.412  0.00  0.00    +0.108 C 
ATOM      6  N   LIG    1       27.564 -17.622   4.107  0.00  0.00    -0.287 NA
ATOM      7  C   LIG    1       26.280 -18.151   3.646  0.00  0.00    +0.171 C 
ENDROOT
BRANCH   3   8
ATOM      8  N   LIG    1       28.867 -20.295   4.722  0.00  0.00    -0.323 NA
ATOM      9  H   LIG    1       28.732 -19.999   3.772  0.00  0.00    +0.119 HD
ATOM     10  H   LIG    1       29.793 -19.912   4.980  0.00  0.00    +0.119 HD
ENDBRANCH   3   8
BRANCH   1  11
ATOM     11  C   LIG    1       24.539 -19.838   3.741  0.00  0.00    +0.089 C 
BRANCH  11  12
ATOM     12  C   LIG    1       23.595 -20.170   4.958  0.00  0.00    +0.003 C 
BRANCH  12  13
ATOM     13  C   LIG    1       22.905 -21.552   4.886  0.00  0.00    +0.001 C 
ATOM     14  C   LIG    1       21.389 -21.572   4.845  0.00  0.00    +0.004 C 
ENDBRANCH  12  13
BRANCH  12  15
ATOM     15  C   LIG    1       22.477 -19.065   5.073  0.00  0.00    +0.005 C 
BRANCH  15  16
ATOM     16  C   LIG    1       22.803 -17.744   4.340  0.00  0.00    +0.000 C 
BRANCH  16  18
ATOM     17  C   LIG    1       22.282 -15.602   5.644  0.00  0.00    +0.004 C 
ATOM     18  C   LIG    1       21.810 -16.601   4.597  0.00  0.00    -0.003 C 
ENDBRANCH  16  18
ENDBRANCH  15  16
ENDBRANCH  12  15
ENDBRANCH  11  12
ENDBRANCH   1  11
BRANCH   6  19
ATOM     19  C   LIG    1       27.675 -16.145   3.988  0.00  0.00    +0.089 C 
BRANCH  19  20
ATOM     20  C   LIG    1       26.533 -15.296   3.315  0.00  0.00    +0.003 C 
BRANCH  20  21
ATOM     21  C   LIG    1       27.151 -14.090   2.553  0.00  0.00    +0.001 C 
ATOM     22  C   LIG    1       27.903 -13.095   3.440  0.00  0.00    +0.004 C 
ENDBRANCH  20  21
BRANCH  20  23
ATOM     23  C   LIG    1       25.365 -14.840   4.229  0.00  0.00    +0.005 C 
BRANCH  23  24
ATOM     24  C   LIG    1       24.149 -14.200   3.537  0.00  0.00    +0.000 C 
BRANCH  24  25
ATOM     25  C   LIG    1       24.112 -12.668   3.670  0.00  0.00    -0.003 C 
ATOM     26  C   LIG    1       24.631 -12.161   5.008  0.00  0.00    +0.004 C 
ENDBRANCH  24  25
ENDBRANCH  23  24
ENDBRANCH  20  23
ENDBRANCH  19  20
ENDBRANCH   6  19
TORSDOF 13
ENDMDL
MODEL 3
REMARK VINA RESULT:      -2.8      1.213      6.828
REMARK  Name = *****
REMARK                            x       y       z     vdW  Elec       q    Type
REMARK                         _______ _______ _______ _____ _____    ______ ____
ROOT
ATOM      1  N   LIG    1       24.846 -19.307   4.766  0.00  0.00    -0.287 NA
ATOM      2  C   LIG    1       23.532 -19.428   4.120  0.00  0.00    +0.108 C 
ATOM      3  C   LIG    1       22.781 -18.081   4.000  0.00  0.00    +0.039 C 
ATOM      4  C   LIG    1       21.463 -18.289   3.233  0.00  0.00    +0.030 C 
ATOM      5  C   LIG    1       23.689 -17.134   3.206  0.00  0.00    +0.108 C 
ATOM      6  N   LIG    1       25.029 -17.013   3.768  0.00  0.00    -0.287 NA
ATOM      7  C   LIG    1       25.694 -18.261   4.145  0.00  0.00    +0.171 C 
ENDROOT
BRANCH   3   8
ATOM      8  N   LIG    1       22.461 -17.479   5.318  0.00  0.00    -0.323 NA
ATOM      9  H   LIG    1       21.491 -17.628   5.530  0.00  0.00    +0.119 HD
ATOM     10  H   LIG    1       22.966 -18.058   6.010  0.00  0.00    +0.119 HD
ENDBRANCH   3   8
BRANCH   1  11
ATOM     11  C   LIG    1       25.586 -20.610   4.743  0.00  0.00    +0.089 C 
BRANCH  11  12
ATOM     12  C   LIG    1       25.575 -21.572   5.992  0.00  0.00    +0.003 C 
BRANCH  12  13
ATOM     13  C   LIG    1       24.511 -21.233   7.062  0.00  0.00    +0.001 C 
ATOM     14  C   LIG    1       23.057 -21.264   6.631  0.00  0.00    +0.004 C 
ENDBRANCH  12  13
BRANCH  12  15
ATOM     15  C   LIG    1       26.992 -21.554   6.682  0.00  0.00    +0.005 C 
BRANCH  15  16
ATOM     16  C   LIG    1       27.617 -20.148   6.826  0.00  0.00    +0.000 C 
BRANCH  16  18
ATOM     17  C   LIG    1       29.358 -18.504   5.915  0.00  0.00    +0.004 C 
ATOM     18  C   LIG    1       28.959 -19.961   6.101  0.00  0.00    -0.003 C 
ENDBRANCH  16  18
ENDBRANCH  15  16
ENDBRANCH  12  15
ENDBRANCH  11  12
ENDBRANCH   1  11
BRANCH   6  19
ATOM     19  C   LIG    1       25.877 -16.115   2.942  0.00  0.00    +0.089 C 
BRANCH  19  20
ATOM     20  C   LIG    1       25.986 -14.578   3.263  0.00  0.00    +0.003 C 
BRANCH  20  21
ATOM     21  C   LIG    1       27.226 -14.314   4.165  0.00  0.00    +0.001 C 
ATOM     22  C   LIG    1       26.905 -13.673   5.516  0.00  0.00    +0.004 C 
ENDBRANCH  20  21
BRANCH  20  23
ATOM     23  C   LIG    1       24.721 -13.888   3.839  0.00  0.00    +0.005 C 
BRANCH  23  24
ATOM     24  C   LIG    1       23.944 -12.957   2.892  0.00  0.00    +0.000 C 
BRANCH  24  25
ATOM     25  C   LIG    1       23.753 -11.540   3.457  0.00  0.00    -0.003 C 
ATOM     26  C   LIG    1       23.691 -11.495   4.978  0.00  0.00    +0.004 C 
ENDBRANCH  24  25
ENDBRANCH  23  24
ENDBRANCH  20  23
ENDBRANCH  19  20
ENDBRANCH   6  19
TORSDOF 13
ENDMDL
MODEL 4
REMARK VINA RESULT:      -2.6      0.839      2.079
REMARK  Name = *****
REMARK                            x       y       z     vdW  Elec       q    Type
REMARK                         _______ _______ _______ _____ _____    ______ ____
ROOT
ATOM      1  N   LIG    1       25.192 -17.799   3.264  0.00  0.00    -0.287 NA
ATOM      2  C   LIG    1       24.036 -17.323   4.037  0.00  0.00    +0.108 C 
ATOM      3  C   LIG    1       22.874 -18.344   4.094  0.00  0.00    +0.039 C 
ATOM      4  C   LIG    1       21.752 -17.801   4.996  0.00  0.00    +0.030 C 
ATOM      5  C   LIG    1       23.443 -19.631   4.706  0.00  0.00    +0.108 C 
ATOM      6  N   LIG    1       24.626 -20.125   4.013  0.00  0.00    -0.287 NA
ATOM      7  C   LIG    1       25.660 -19.137   3.699  0.00  0.00    +0.171 C 
ENDROOT
BRANCH   3   8
ATOM      8  N   LIG    1       22.296 -18.636   2.760  0.00  0.00    -0.323 NA
ATOM      9  H   LIG    1       21.327 -18.877   2.858  0.00  0.00    +0.119 HD
ATOM     10  H   LIG    1       22.285 -17.728   2.264  0.00  0.00    +0.119 HD
ENDBRANCH   3   8
BRANCH   1  11
ATOM     11  C   LIG    1       26.335 -16.834   3.344  0.00  0.00    +0.089 C 
BRANCH  11  12
ATOM     12  C   LIG    1       26.107 -15.339   3.790  0.00  0.00    +0.003 C 
BRANCH  12  13
ATOM     13  C   LIG    1       24.624 -14.905   3.866  0.00  0.00    +0.001 C 
ATOM     14  C   LIG    1       24.267 -13.546   3.297  0.00  0.00    +0.004 C 
ENDBRANCH  12  13
BRANCH  12  15
ATOM     15  C   LIG    1       26.854 -14.373   2.794  0.00  0.00    +0.005 C 
BRANCH  15  16
ATOM     16  C   LIG    1       28.187 -13.805   3.332  0.00  0.00    +0.000 C 
BRANCH  16  18
ATOM     17  C   LIG    1       28.960 -11.910   4.873  0.00  0.00    +0.004 C 
ATOM     18  C   LIG    1       28.097 -13.154   4.721  0.00  0.00    -0.003 C 
ENDBRANCH  16  18
ENDBRANCH  15  16
ENDBRANCH  12  15
ENDBRANCH  11  12
ENDBRANCH   1  11
BRANCH   6  19
ATOM     19  C   LIG    1       25.156 -21.350   4.666  0.00  0.00    +0.089 C 
BRANCH  19  20
ATOM     20  C   LIG    1       25.550 -21.354   6.190  0.00  0.00    +0.003 C 
BRANCH  20  21
ATOM     21  C   LIG    1       24.280 -21.572   7.062  0.00  0.00    +0.001 C 
ATOM     22  C   LIG    1       22.957 -21.402   6.313  0.00  0.00    +0.004 C 
ENDBRANCH  20  21
BRANCH  20  23
ATOM     23  C   LIG    1       26.381 -20.149   6.705  0.00  0.00    +0.005 C 
BRANCH  23  24
ATOM     24  C   LIG    1       27.884 -20.386   6.933  0.00  0.00    +0.000 C 
BRANCH  24  25
ATOM     25  C   LIG    1       28.757 -19.917   5.757  0.00  0.00    -0.003 C 
ATOM     26  C   LIG    1       29.397 -18.554   5.982  0.00  0.00    +0.004 C 
ENDBRANCH  24  25
ENDBRANCH  23  24
ENDBRANCH  20  23
ENDBRANCH  19  20
ENDBRANCH   6  19
TORSDOF 13
ENDMDL
MODEL 5
REMARK VINA RESULT:      -2.5      1.169      6.401
REMARK  Name = *****
REMARK                            x       y       z     vdW  Elec       q    Type
REMARK                         _______ _______ _______ _____ _____    ______ ____
ROOT
ATOM      1  N   LIG    1       24.875 -19.332   4.792  0.00  0.00    -0.287 NA
ATOM      2  C   LIG    1       23.559 -19.526   4.168  0.00  0.00    +0.108 C 
ATOM      3  C   LIG    1       22.738 -18.220   4.048  0.00  0.00    +0.039 C 
ATOM      4  C   LIG    1       21.422 -18.502   3.304  0.00  0.00    +0.030 C 
ATOM      5  C   LIG    1       23.585 -17.236   3.231  0.00  0.00    +0.108 C 
ATOM      6  N   LIG    1       24.925 -17.041   3.771  0.00  0.00    -0.287 NA
ATOM      7  C   LIG    1       25.659 -18.250   4.149  0.00  0.00    +0.171 C 
ENDROOT
BRANCH   3   8
ATOM      8  N   LIG    1       22.408 -17.623   5.365  0.00  0.00    -0.323 NA
ATOM      9  H   LIG    1       22.715 -18.234   6.099  0.00  0.00    +0.119 HD
ATOM     10  H   LIG    1       23.022 -16.794   5.448  0.00  0.00    +0.119 HD
ENDBRANCH   3   8
BRANCH   1  11
ATOM     11  C   LIG    1       25.680 -20.596   4.770  0.00  0.00    +0.089 C 
BRANCH  11  12
ATOM     12  C   LIG    1       25.695 -21.571   6.007  0.00  0.00    +0.003 C 
BRANCH  12  13
ATOM     13  C   LIG    1       24.597 -21.298   7.061  0.00  0.00    +0.001 C 
ATOM     14  C   LIG    1       23.161 -21.567   6.656  0.00  0.00    +0.004 C 
ENDBRANCH  12  13
BRANCH  12  15
ATOM     15  C   LIG    1       27.098 -21.491   6.723  0.00  0.00    +0.005 C 
BRANCH  15  16
ATOM     16  C   LIG    1       27.643 -20.057   6.905  0.00  0.00    +0.000 C 
BRANCH  16  18
ATOM     17  C   LIG    1       29.244 -18.563   5.576  0.00  0.00    +0.004 C 
ATOM     18  C   LIG    1       29.073 -19.840   6.385  0.00  0.00    -0.003 C 
ENDBRANCH  16  18
ENDBRANCH  15  16
ENDBRANCH  12  15
ENDBRANCH  11  12
ENDBRANCH   1  11
BRANCH   6  19
ATOM     19  C   LIG    1       25.714 -16.110   2.924  0.00  0.00    +0.089 C 
BRANCH  19  20
ATOM     20  C   LIG    1       25.918 -14.606   3.343  0.00  0.00    +0.003 C 
BRANCH  20  21
ATOM     21  C   LIG    1       24.580 -13.829   3.186  0.00  0.00    +0.001 C 
ATOM     22  C   LIG    1       23.853 -13.541   4.501  0.00  0.00    +0.004 C 
ENDBRANCH  20  21
BRANCH  20  23
ATOM     23  C   LIG    1       27.089 -13.842   2.671  0.00  0.00    +0.005 C 
BRANCH  23  24
ATOM     24  C   LIG    1       28.379 -13.681   3.493  0.00  0.00    +0.000 C 
BRANCH  24  25
ATOM     25  C   LIG    1       28.248 -12.660   4.636  0.00  0.00    -0.003 C 
ATOM     26  C   LIG    1       27.373 -13.143   5.785  0.00  0.00    +0.004 C 
ENDBRANCH  24  25
ENDBRANCH  23  24
ENDBRANCH  20  23
ENDBRANCH  19  20
ENDBRANCH   6  19
TORSDOF 13
ENDMDL
MODEL 6
REMARK VINA RESULT:      -2.4      1.532      4.005
REMARK  Name = *****
REMARK                            x       y       z     vdW  Elec       q    Type
REMARK                         _______ _______ _______ _____ _____    ______ ____
ROOT
ATOM      1  N   LIG    1       27.497 -17.153   4.422  0.00  0.00    -0.287 NA
ATOM      2  C   LIG    1       28.639 -17.992   4.811  0.00  0.00    +0.108 C 
ATOM      3  C   LIG    1       28.231 -19.250   5.614  0.00  0.00    +0.039 C 
ATOM      4  C   LIG    1       29.475 -20.111   5.896  0.00  0.00    +0.030 C 
ATOM      5  C   LIG    1       27.253 -20.040   4.736  0.00  0.00    +0.108 C 
ATOM      6  N   LIG    1       26.122 -19.246   4.272  0.00  0.00    -0.287 NA
ATOM      7  C   LIG    1       26.432 -17.921   3.733  0.00  0.00    +0.171 C 
ENDROOT
BRANCH   3   8
ATOM      8  N   LIG    1       27.589 -18.924   6.910  0.00  0.00    -0.323 NA
ATOM      9  H   LIG    1       27.871 -18.007   7.205  0.00  0.00    +0.119 HD
ATOM     10  H   LIG    1       26.581 -18.826   6.697  0.00  0.00    +0.119 HD
ENDBRANCH   3   8
BRANCH   1  11
ATOM     11  C   LIG    1       27.929 -16.021   3.540  0.00  0.00    +0.089 C 
BRANCH  11  12
ATOM     12  C   LIG    1       27.394 -14.558   3.777  0.00  0.00    +0.003 C 
BRANCH  12  13
ATOM     13  C   LIG    1       26.892 -14.275   5.212  0.00  0.00    +0.001 C 
ATOM     14  C   LIG    1       27.471 -13.070   5.927  0.00  0.00    +0.004 C 
ENDBRANCH  12  13
BRANCH  12  15
ATOM     15  C   LIG    1       26.215 -14.260   2.774  0.00  0.00    +0.005 C 
BRANCH  15  16
ATOM     16  C   LIG    1       25.416 -12.975   3.087  0.00  0.00    +0.000 C 
BRANCH  16  18
ATOM     17  C   LIG    1       23.550 -14.470   4.007  0.00  0.00    +0.004 C 
ATOM     18  C   LIG    1       23.906 -13.184   3.275  0.00  0.00    -0.003 C 
ENDBRANCH  16  18
ENDBRANCH  15  16
ENDBRANCH  12  15
ENDBRANCH  11  12
ENDBRANCH   1  11
BRANCH   6  19
ATOM     19  C   LIG    1       25.226 -20.047   3.399  0.00  0.00    +0.089 C 
BRANCH  19  20
ATOM     20  C   LIG    1       23.667 -20.048   3.616  0.00  0.00    +0.003 C 
BRANCH  20  21
ATOM     21  C   LIG    1       23.197 -18.638   4.074  0.00  0.00    +0.001 C 
ATOM     22  C   LIG    1       21.680 -18.439   4.066  0.00  0.00    +0.004 C 
ENDBRANCH  20  21
BRANCH  20  23
ATOM     23  C   LIG    1       23.086 -21.155   4.534  0.00  0.00    +0.005 C 
BRANCH  23  24
ATOM     24  C   LIG    1       22.654 -20.732   5.949  0.00  0.00    +0.000 C 
BRANCH  24  25
ATOM     25  C   LIG    1       23.451 -21.432   7.062  0.00  0.00    -0.003 C 
ATOM     26  C   LIG    1       24.935 -21.571   6.750  0.00  0.00    +0.004 C 
ENDBRANCH  24  25
ENDBRANCH  23  24
ENDBRANCH  20  23
ENDBRANCH  19  20
ENDBRANCH   6  19
TORSDOF 13
ENDMDL
MODEL 7
REMARK VINA RESULT:      -2.2      1.531      6.369
REMARK  Name = *****
REMARK                            x       y       z     vdW  Elec       q    Type
REMARK                         _______ _______ _______ _____ _____    ______ ____
ROOT
ATOM      1  N   LIG    1       26.526 -19.463   4.024  0.00  0.00    -0.287 NA
ATOM      2  C   LIG    1       27.276 -19.316   5.279  0.00  0.00    +0.108 C 
ATOM      3  C   LIG    1       28.430 -18.290   5.188  0.00  0.00    +0.039 C 
ATOM      4  C   LIG    1       29.095 -18.135   6.566  0.00  0.00    +0.030 C 
ATOM      5  C   LIG    1       27.804 -16.953   4.770  0.00  0.00    +0.108 C 
ATOM      6  N   LIG    1       27.002 -17.045   3.557  0.00  0.00    -0.287 NA
ATOM      7  C   LIG    1       26.062 -18.164   3.479  0.00  0.00    +0.171 C 
ENDROOT
BRANCH   3   8
ATOM      8  N   LIG    1       29.474 -18.681   4.210  0.00  0.00    -0.323 NA
ATOM      9  H   LIG    1       29.278 -19.600   3.857  0.00  0.00    +0.119 HD
ATOM     10  H   LIG    1       29.331 -18.058   3.396  0.00  0.00    +0.119 HD
ENDBRANCH   3   8
BRANCH   1  11
ATOM     11  C   LIG    1       25.344 -20.368   4.198  0.00  0.00    +0.089 C 
BRANCH  11  12
ATOM     12  C   LIG    1       24.188 -20.008   5.206  0.00  0.00    +0.003 C 
BRANCH  12  13
ATOM     13  C   LIG    1       24.264 -20.738   6.568  0.00  0.00    +0.001 C 
ATOM     14  C   LIG    1       23.007 -21.429   7.058  0.00  0.00    +0.004 C 
ENDBRANCH  12  13
BRANCH  12  15
ATOM     15  C   LIG    1       22.794 -20.338   4.547  0.00  0.00    +0.005 C 
BRANCH  15  16
ATOM     16  C   LIG    1       21.915 -19.101   4.254  0.00  0.00    +0.000 C 
BRANCH  16  18
ATOM     17  C   LIG    1       22.695 -16.661   4.301  0.00  0.00    +0.004 C 
ATOM     18  C   LIG    1       22.234 -17.866   5.110  0.00  0.00    -0.003 C 
ENDBRANCH  16  18
ENDBRANCH  15  16
ENDBRANCH  12  15
ENDBRANCH  11  12
ENDBRANCH   1  11
BRANCH   6  19
ATOM     19  C   LIG    1       26.392 -15.734   3.217  0.00  0.00    +0.089 C 
BRANCH  19  20
ATOM     20  C   LIG    1       25.857 -14.770   4.341  0.00  0.00    +0.003 C 
BRANCH  20  21
ATOM     21  C   LIG    1       24.881 -13.729   3.722  0.00  0.00    +0.001 C 
ATOM     22  C   LIG    1       25.349 -13.127   2.396  0.00  0.00    +0.004 C 
ENDBRANCH  20  21
BRANCH  20  23
ATOM     23  C   LIG    1       26.918 -14.077   5.236  0.00  0.00    +0.005 C 
BRANCH  23  24
ATOM     24  C   LIG    1       27.107 -12.562   5.046  0.00  0.00    +0.000 C 
BRANCH  24  25
ATOM     25  C   LIG    1       28.467 -12.193   4.431  0.00  0.00    -0.003 C 
ATOM     26  C   LIG    1       29.085 -13.313   3.605  0.00  0.00    +0.004 C 
ENDBRANCH  24  25
ENDBRANCH  23  24
ENDBRANCH  20  23
ENDBRANCH  19  20
ENDBRANCH   6  19
TORSDOF 13
ENDMDL
MODEL 8
REMARK VINA RESULT:      -2.0      1.743      5.184
REMARK  Name = *****
REMARK                            x       y       z     vdW  Elec       q    Type
REMARK                         _______ _______ _______ _____ _____    ______ ____
ROOT
ATOM      1  N   LIG    1       25.419 -15.711   3.183  0.00  0.00    -0.287 NA
ATOM      2  C   LIG    1       25.417 -14.437   3.916  0.00  0.00    +0.108 C 
ATOM      3  C   LIG    1       24.017 -13.783   4.006  0.00  0.00    +0.039 C 
ATOM      4  C   LIG    1       24.095 -12.509   4.865  0.00  0.00    +0.030 C 
ATOM      5  C   LIG    1       23.094 -14.801   4.686  0.00  0.00    +0.108 C 
ATOM      6  N   LIG    1       23.093 -16.106   4.035  0.00  0.00    -0.287 NA
ATOM      7  C   LIG    1       24.401 -16.663   3.688  0.00  0.00    +0.171 C 
ENDROOT
BRANCH   3   8
ATOM      8  N   LIG    1       23.466 -13.415   2.679  0.00  0.00    -0.323 NA
ATOM      9  H   LIG    1       24.152 -12.898   2.161  0.00  0.00    +0.119 HD
ATOM     10  H   LIG    1       23.378 -14.309   2.165  0.00  0.00    +0.119 HD
ENDBRANCH   3   8
BRANCH   1  11
ATOM     11  C   LIG    1       26.766 -16.365   3.233  0.00  0.00    +0.089 C 
BRANCH  11  12
ATOM     12  C   LIG    1       27.649 -16.307   4.537  0.00  0.00    +0.003 C 
BRANCH  12  13
ATOM     13  C   LIG    1       28.380 -14.963   4.766  0.00  0.00    +0.001 C 
ATOM     14  C   LIG    1       28.297 -13.929   3.660  0.00  0.00    +0.004 C 
ENDBRANCH  12  13
BRANCH  12  15
ATOM     15  C   LIG    1       28.729 -17.455   4.493  0.00  0.00    +0.005 C 
BRANCH  15  16
ATOM     16  C   LIG    1       29.076 -18.062   5.870  0.00  0.00    +0.000 C 
BRANCH  16  18
ATOM     17  C   LIG    1       27.899 -20.101   6.880  0.00  0.00    +0.004 C 
ATOM     18  C   LIG    1       28.986 -19.594   5.943  0.00  0.00    -0.003 C 
ENDBRANCH  16  18
ENDBRANCH  15  16
ENDBRANCH  12  15
ENDBRANCH  11  12
ENDBRANCH   1  11
BRANCH   6  19
ATOM     19  C   LIG    1       22.212 -17.063   4.752  0.00  0.00    +0.089 C 
BRANCH  19  20
ATOM     20  C   LIG    1       22.181 -18.588   4.364  0.00  0.00    +0.003 C 
BRANCH  20  21
ATOM     21  C   LIG    1       20.742 -18.993   3.932  0.00  0.00    +0.001 C 
ATOM     22  C   LIG    1       20.100 -18.059   2.904  0.00  0.00    +0.004 C 
ENDBRANCH  20  21
BRANCH  20  23
ATOM     23  C   LIG    1       22.755 -19.589   5.400  0.00  0.00    +0.005 C 
BRANCH  23  24
ATOM     24  C   LIG    1       23.105 -20.997   4.888  0.00  0.00    +0.000 C 
BRANCH  24  25
ATOM     25  C   LIG    1       24.617 -21.276   4.862  0.00  0.00    -0.003 C 
ATOM     26  C   LIG    1       25.434 -20.139   4.264  0.00  0.00    +0.004 C 
ENDBRANCH  24  25
ENDBRANCH  23  24
ENDBRANCH  20  23
ENDBRANCH  19  20
ENDBRANCH   6  19
TORSDOF 13
ENDMDL
MODEL 9
REMARK VINA RESULT:      -1.9      2.240      6.320
REMARK  Name = *****
REMARK                            x       y       z     vdW  Elec       q    Type
REMARK                         _______ _______ _______ _____ _____    ______ ____
ROOT
ATOM      1  N   LIG    1       23.387 -14.507   4.230  0.00  0.00    -0.287 NA
ATOM      2  C   LIG    1       23.562 -13.750   2.982  0.00  0.00    +0.108 C 
ATOM      3  C   LIG    1       24.308 -12.409   3.178  0.00  0.00    +0.039 C 
ATOM      4  C   LIG    1       24.526 -11.733   1.813  0.00  0.00    +0.030 C 
ATOM      5  C   LIG    1       25.668 -12.744   3.804  0.00  0.00    +0.108 C 
ATOM      6  N   LIG    1       25.563 -13.542   5.020  0.00  0.00    -0.287 NA
ATOM      7  C   LIG    1       24.658 -14.691   4.971  0.00  0.00    +0.171 C 
ENDROOT
BRANCH   3   8
ATOM      8  N   LIG    1       23.574 -11.462   4.052  0.00  0.00    -0.323 NA
ATOM      9  H   LIG    1       23.822 -11.626   5.010  0.00  0.00    +0.119 HD
ATOM     10  H   LIG    1       23.973 -10.531   3.839  0.00  0.00    +0.119 HD
ENDBRANCH   3   8
BRANCH   1  11
ATOM     11  C   LIG    1       22.776 -15.850   3.970  0.00  0.00    +0.089 C 
BRANCH  11  12
ATOM     12  C   LIG    1       23.560 -17.177   4.299  0.00  0.00    +0.003 C 
BRANCH  12  13
ATOM     13  C   LIG    1       24.811 -17.424   3.424  0.00  0.00    +0.001 C 
ATOM     14  C   LIG    1       25.264 -18.860   3.248  0.00  0.00    +0.004 C 
ENDBRANCH  12  13
BRANCH  12  15
ATOM     15  C   LIG    1       22.594 -18.412   4.140  0.00  0.00    +0.005 C 
BRANCH  15  16
ATOM     16  C   LIG    1       22.333 -19.194   5.447  0.00  0.00    +0.000 C 
BRANCH  16  18
ATOM     17  C   LIG    1       24.221 -20.653   6.380  0.00  0.00    +0.004 C 
ATOM     18  C   LIG    1       22.978 -20.588   5.505  0.00  0.00    -0.003 C 
ENDBRANCH  16  18
ENDBRANCH  15  16
ENDBRANCH  12  15
ENDBRANCH  11  12
ENDBRANCH   1  11
BRANCH   6  19
ATOM     19  C   LIG    1       26.906 -13.867   5.565  0.00  0.00    +0.089 C 
BRANCH  19  20
ATOM     20  C   LIG    1       27.995 -14.575   4.675  0.00  0.00    +0.003 C 
BRANCH  20  21
ATOM     21  C   LIG    1       28.260 -13.732   3.395  0.00  0.00    +0.001 C 
ATOM     22  C   LIG    1       29.252 -12.584   3.584  0.00  0.00    +0.004 C 
ENDBRANCH  20  21
BRANCH  20  23
ATOM     23  C   LIG    1       27.752 -16.066   4.321  0.00  0.00    +0.005 C 
BRANCH  23  24
ATOM     24  C   LIG    1       28.630 -17.105   5.040  0.00  0.00    +0.000 C 
BRANCH  24  25
ATOM     25  C   LIG    1       28.353 -18.549   4.590  0.00  0.00    -0.003 C 
ATOM     26  C   LIG    1       28.022 -19.492   5.739  0.00  0.00    +0.004 C 
ENDBRANCH  24  25
ENDBRANCH  23  24
ENDBRANCH  20  23
ENDBRANCH  19  20
ENDBRANCH   6  19
TORSDOF 13
ENDMDL
