MODEL 1
REMARK VINA RESULT:      -4.4      0.000      0.000
REMARK  Name = *****
REMARK                            x       y       z     vdW  Elec       q    Type
REMARK                         _______ _______ _______ _____ _____    ______ ____
ROOT
ATOM      1  C   LIG    1       21.752 -20.633   4.802  0.00  0.00    +0.150 C 
ATOM      2  N   LIG    1       22.999 -20.845   5.491  0.00  0.00    -0.328 N 
ATOM      3  C   LIG    1       24.222 -20.369   5.124  0.00  0.00    +0.151 A 
ATOM      4  C   LIG    1       24.643 -19.571   4.027  0.00  0.00    +0.280 C 
ATOM      5  N   LIG    1       25.997 -19.325   4.049  0.00  0.00    -0.273 N 
ATOM      6  H   LIG    1       26.368 -18.764   3.301  0.00  0.00    +0.173 HD
ATOM      7  C   LIG    1       26.915 -19.763   4.988  0.00  0.00    +0.331 C 
ATOM      8  N   LIG    1       26.432 -20.541   6.036  0.00  0.00    -0.280 N 
ATOM      9  C   LIG    1       27.326 -21.040   7.062  0.00  0.00    +0.155 C 
ATOM     10  O   LIG    1       28.098 -19.447   4.853  0.00  0.00    -0.246 OA
ATOM     11  O   LIG    1       23.908 -19.139   3.148  0.00  0.00    -0.265 OA
ATOM     12  C   LIG    1       25.084 -20.828   6.078  0.00  0.00    +0.168 A 
ATOM     13  N   LIG    1       24.443 -21.570   7.024  0.00  0.00    -0.218 NA
ATOM     14  C   LIG    1       23.178 -21.565   6.644  0.00  0.00    +0.202 A 
ENDROOT
TORSDOF 0
ENDMDL
MODEL 2
REMARK VINA RESULT:      -4.1      1.391      3.641
REMARK  Name = *****
REMARK                            x       y       z     vdW  Elec       q    Type
REMARK                         _______ _______ _______ _____ _____    ______ ____
ROOT
ATOM      1  C   LIG    1       28.277 -19.505   5.221  0.00  0.00    +0.150 C 
ATOM      2  N   LIG    1       27.070 -20.093   5.743  0.00  0.00    -0.328 N 
ATOM      3  C   LIG    1       25.813 -19.954   5.235  0.00  0.00    +0.151 A 
ATOM      4  C   LIG    1       25.313 -19.239   4.115  0.00  0.00    +0.280 C 
ATOM      5  N   LIG    1       23.951 -19.379   3.971  0.00  0.00    -0.273 N 
ATOM      6  H   LIG    1       23.525 -18.899   3.196  0.00  0.00    +0.173 HD
ATOM      7  C   LIG    1       23.092 -20.109   4.775  0.00  0.00    +0.331 C 
ATOM      8  N   LIG    1       23.652 -20.784   5.856  0.00  0.00    -0.280 N 
ATOM      9  C   LIG    1       22.824 -21.572   6.746  0.00  0.00    +0.155 C 
ATOM     10  O   LIG    1       21.892 -20.125   4.499  0.00  0.00    -0.246 OA
ATOM     11  O   LIG    1       25.992 -18.566   3.348  0.00  0.00    -0.265 OA
ATOM     12  C   LIG    1       25.012 -20.689   6.061  0.00  0.00    +0.168 A 
ATOM     13  N   LIG    1       25.724 -21.279   7.061  0.00  0.00    -0.218 NA
ATOM     14  C   LIG    1       26.970 -20.902   6.844  0.00  0.00    +0.202 A 
ENDROOT
TORSDOF 0
ENDMDL
MODEL 3
REMARK VINA RESULT:      -3.8      1.616      1.789
REMARK  Name = *****
REMARK                            x       y       z     vdW  Elec       q    Type
REMARK                         _______ _______ _______ _____ _____    ______ ____
ROOT
ATOM      1  C   LIG    1       23.531 -20.071   3.647  0.00  0.00    +0.150 C 
ATOM      2  N   LIG    1       24.607 -20.418   4.541  0.00  0.00    -0.328 N 
ATOM      3  C   LIG    1       25.803 -19.777   4.659  0.00  0.00    +0.151 A 
ATOM      4  C   LIG    1       26.347 -18.646   3.994  0.00  0.00    +0.280 C 
ATOM      5  N   LIG    1       27.614 -18.339   4.436  0.00  0.00    -0.273 N 
ATOM      6  H   LIG    1       28.064 -17.546   4.009  0.00  0.00    +0.173 HD
ATOM      7  C   LIG    1       28.347 -18.998   5.408  0.00  0.00    +0.331 C 
ATOM      8  N   LIG    1       27.752 -20.098   6.017  0.00  0.00    -0.280 N 
ATOM      9  C   LIG    1       28.450 -20.844   7.045  0.00  0.00    +0.155 C 
ATOM     10  O   LIG    1       29.475 -18.585   5.681  0.00  0.00    -0.246 OA
ATOM     11  O   LIG    1       25.777 -18.000   3.123  0.00  0.00    -0.265 OA
ATOM     12  C   LIG    1       26.481 -20.464   5.624  0.00  0.00    +0.168 A 
ATOM     13  N   LIG    1       25.752 -21.506   6.109  0.00  0.00    -0.218 NA
ATOM     14  C   LIG    1       24.618 -21.456   5.435  0.00  0.00    +0.202 A 
ENDROOT
TORSDOF 0
ENDMDL
MODEL 4
REMARK VINA RESULT:      -3.7      1.762      2.822
REMARK  Name = *****
REMARK                            x       y       z     vdW  Elec       q    Type
REMARK                         _______ _______ _______ _____ _____    ______ ____
ROOT
ATOM      1  C   LIG    1       21.975 -19.934   4.775  0.00  0.00    +0.150 C 
ATOM      2  N   LIG    1       23.391 -19.716   4.622  0.00  0.00    -0.328 N 
ATOM      3  C   LIG    1       24.382 -20.240   5.397  0.00  0.00    +0.151 A 
ATOM      4  C   LIG    1       24.353 -21.104   6.524  0.00  0.00    +0.280 C 
ATOM      5  N   LIG    1       25.614 -21.381   7.002  0.00  0.00    -0.273 N 
ATOM      6  H   LIG    1       25.672 -21.990   7.802  0.00  0.00    +0.173 HD
ATOM      7  C   LIG    1       26.821 -20.918   6.507  0.00  0.00    +0.331 C 
ATOM      8  N   LIG    1       26.773 -20.075   5.401  0.00  0.00    -0.280 N 
ATOM      9  C   LIG    1       27.991 -19.546   4.819  0.00  0.00    +0.155 C 
ATOM     10  O   LIG    1       27.863 -21.269   7.062  0.00  0.00    -0.246 OA
ATOM     11  O   LIG    1       23.338 -21.563   7.033  0.00  0.00    -0.265 OA
ATOM     12  C   LIG    1       25.543 -19.754   4.867  0.00  0.00    +0.168 A 
ATOM     13  N   LIG    1       25.310 -18.949   3.794  0.00  0.00    -0.218 NA
ATOM     14  C   LIG    1       23.996 -18.943   3.666  0.00  0.00    +0.202 A 
ENDROOT
TORSDOF 0
ENDMDL
MODEL 5
REMARK VINA RESULT:      -3.3      2.082      3.261
REMARK  Name = *****
REMARK                            x       y       z     vdW  Elec       q    Type
REMARK                         _______ _______ _______ _____ _____    ______ ____
ROOT
ATOM      1  C   LIG    1       23.566 -19.561   3.582  0.00  0.00    +0.150 C 
ATOM      2  N   LIG    1       24.924 -19.181   3.878  0.00  0.00    -0.328 N 
ATOM      3  C   LIG    1       25.763 -19.788   4.764  0.00  0.00    +0.151 A 
ATOM      4  C   LIG    1       25.593 -20.906   5.622  0.00  0.00    +0.280 C 
ATOM      5  N   LIG    1       26.725 -21.176   6.359  0.00  0.00    -0.273 N 
ATOM      6  H   LIG    1       26.679 -21.958   6.991  0.00  0.00    +0.173 HD
ATOM      7  C   LIG    1       27.928 -20.493   6.331  0.00  0.00    +0.331 C 
ATOM      8  N   LIG    1       28.023 -19.406   5.465  0.00  0.00    -0.280 N 
ATOM      9  C   LIG    1       29.247 -18.637   5.374  0.00  0.00    +0.155 C 
ATOM     10  O   LIG    1       28.843 -20.873   7.062  0.00  0.00    -0.246 OA
ATOM     11  O   LIG    1       24.569 -21.572   5.718  0.00  0.00    -0.265 OA
ATOM     12  C   LIG    1       26.927 -19.078   4.695  0.00  0.00    +0.168 A 
ATOM     13  N   LIG    1       26.843 -18.054   3.802  0.00  0.00    -0.218 NA
ATOM     14  C   LIG    1       25.617 -18.139   3.319  0.00  0.00    +0.202 A 
ENDROOT
TORSDOF 0
ENDMDL
MODEL 6
REMARK VINA RESULT:      -2.7      1.230      1.503
REMARK  Name = *****
REMARK                            x       y       z     vdW  Elec       q    Type
REMARK                         _______ _______ _______ _____ _____    ______ ____
ROOT
ATOM      1  C   LIG    1       22.153 -18.636   3.214  0.00  0.00    +0.150 C 
ATOM      2  N   LIG    1       22.884 -19.411   4.184  0.00  0.00    -0.328 N 
ATOM      3  C   LIG    1       24.238 -19.479   4.316  0.00  0.00    +0.151 A 
ATOM      4  C   LIG    1       25.297 -18.862   3.598  0.00  0.00    +0.280 C 
ATOM      5  N   LIG    1       26.535 -19.221   4.081  0.00  0.00    -0.273 N 
ATOM      6  H   LIG    1       27.335 -18.821   3.621  0.00  0.00    +0.173 HD
ATOM      7  C   LIG    1       26.810 -20.076   5.135  0.00  0.00    +0.331 C 
ATOM      8  N   LIG    1       25.723 -20.645   5.792  0.00  0.00    -0.280 N 
ATOM      9  C   LIG    1       25.923 -21.550   6.906  0.00  0.00    +0.155 C 
ATOM     10  O   LIG    1       27.985 -20.288   5.435  0.00  0.00    -0.246 OA
ATOM     11  O   LIG    1       25.154 -18.094   2.654  0.00  0.00    -0.265 OA
ATOM     12  C   LIG    1       24.452 -20.329   5.362  0.00  0.00    +0.168 A 
ATOM     13  N   LIG    1       23.282 -20.791   5.885  0.00  0.00    -0.218 NA
ATOM     14  C   LIG    1       22.345 -20.218   5.152  0.00  0.00    +0.202 A 
ENDROOT
TORSDOF 0
ENDMDL
MODEL 7
REMARK VINA RESULT:      -2.7      1.868      4.566
REMARK  Name = *****
REMARK                            x       y       z     vdW  Elec       q    Type
REMARK                         _______ _______ _______ _____ _____    ______ ____
ROOT
ATOM      1  C   LIG    1       28.207 -19.648   5.501  0.00  0.00    +0.150 C 
ATOM      2  N   LIG    1       26.914 -19.450   4.897  0.00  0.00    -0.328 N 
ATOM      3  C   LIG    1       25.756 -20.086   5.229  0.00  0.00    +0.151 A 
ATOM      4  C   LIG    1       25.460 -21.078   6.202  0.00  0.00    +0.280 C 
ATOM      5  N   LIG    1       24.132 -21.441   6.191  0.00  0.00    -0.273 N 
ATOM      6  H   LIG    1       23.847 -22.141   6.855  0.00  0.00    +0.173 HD
ATOM      7  C   LIG    1       23.134 -20.951   5.365  0.00  0.00    +0.331 C 
ATOM      8  N   LIG    1       23.497 -19.981   4.435  0.00  0.00    -0.280 N 
ATOM      9  C   LIG    1       22.514 -19.415   3.534  0.00  0.00    +0.155 C 
ATOM     10  O   LIG    1       21.991 -21.392   5.491  0.00  0.00    -0.246 OA
ATOM     11  O   LIG    1       26.272 -21.572   6.974  0.00  0.00    -0.265 OA
ATOM     12  C   LIG    1       24.812 -19.568   4.390  0.00  0.00    +0.168 A 
ATOM     13  N   LIG    1       25.339 -18.636   3.550  0.00  0.00    -0.218 NA
ATOM     14  C   LIG    1       26.617 -18.583   3.878  0.00  0.00    +0.202 A 
ENDROOT
TORSDOF 0
ENDMDL
MODEL 8
REMARK VINA RESULT:      -2.6      1.543      1.873
REMARK  Name = *****
REMARK                            x       y       z     vdW  Elec       q    Type
REMARK                         _______ _______ _______ _____ _____    ______ ____
ROOT
ATOM      1  C   LIG    1       22.314 -21.482   5.816  0.00  0.00    +0.150 C 
ATOM      2  N   LIG    1       23.688 -21.057   5.733  0.00  0.00    -0.328 N 
ATOM      3  C   LIG    1       24.186 -20.067   4.940  0.00  0.00    +0.151 A 
ATOM      4  C   LIG    1       23.568 -19.196   4.004  0.00  0.00    +0.280 C 
ATOM      5  N   LIG    1       24.468 -18.335   3.418  0.00  0.00    -0.273 N 
ATOM      6  H   LIG    1       24.101 -17.686   2.742  0.00  0.00    +0.173 HD
ATOM      7  C   LIG    1       25.830 -18.257   3.652  0.00  0.00    +0.331 C 
ATOM      8  N   LIG    1       26.368 -19.142   4.582  0.00  0.00    -0.280 N 
ATOM      9  C   LIG    1       27.784 -19.127   4.887  0.00  0.00    +0.155 C 
ATOM     10  O   LIG    1       26.491 -17.421   3.035  0.00  0.00    -0.246 OA
ATOM     11  O   LIG    1       22.374 -19.190   3.729  0.00  0.00    -0.265 OA
ATOM     12  C   LIG    1       25.523 -20.034   5.210  0.00  0.00    +0.168 A 
ATOM     13  N   LIG    1       25.875 -20.964   6.140  0.00  0.00    -0.218 NA
ATOM     14  C   LIG    1       24.742 -21.572   6.441  0.00  0.00    +0.202 A 
ENDROOT
TORSDOF 0
ENDMDL
MODEL 9
REMARK VINA RESULT:      -2.2      4.052      5.303
REMARK  Name = *****
REMARK                            x       y       z     vdW  Elec       q    Type
REMARK                         _______ _______ _______ _____ _____    ______ ____
ROOT
ATOM      1  C   LIG    1       23.185 -19.048   4.099  0.00  0.00    +0.150 C 
ATOM      2  N   LIG    1       24.246 -18.127   3.782  0.00  0.00    -0.328 N 
ATOM      3  C   LIG    1       24.219 -16.773   3.931  0.00  0.00    +0.151 A 
ATOM      4  C   LIG    1       23.216 -15.888   4.408  0.00  0.00    +0.280 C 
ATOM      5  N   LIG    1       23.624 -14.573   4.385  0.00  0.00    -0.273 N 
ATOM      6  H   LIG    1       22.964 -13.887   4.710  0.00  0.00    +0.173 HD
ATOM      7  C   LIG    1       24.847 -14.081   3.963  0.00  0.00    +0.331 C 
ATOM      8  N   LIG    1       25.782 -15.006   3.508  0.00  0.00    -0.280 N 
ATOM      9  C   LIG    1       27.088 -14.576   3.049  0.00  0.00    +0.155 C 
ATOM     10  O   LIG    1       25.046 -12.867   4.010  0.00  0.00    -0.246 OA
ATOM     11  O   LIG    1       22.106 -16.227   4.801  0.00  0.00    -0.265 OA
ATOM     12  C   LIG    1       25.441 -16.343   3.504  0.00  0.00    +0.168 A 
ATOM     13  N   LIG    1       26.227 -17.377   3.095  0.00  0.00    -0.218 NA
ATOM     14  C   LIG    1       25.477 -18.449   3.274  0.00  0.00    +0.202 A 
ENDROOT
TORSDOF 0
ENDMDL
