MODEL 1
REMARK VINA RESULT:      -2.7      0.000      0.000
REMARK  Name = *****
REMARK                            x       y       z     vdW  Elec       q    Type
REMARK                         _______ _______ _______ _____ _____    ______ ____
ROOT
ATOM      1  C   LIG    1       21.923 -17.922   5.011  0.00  0.00    +0.138 C 
ATOM      2  N   LIG    1       23.105 -18.454   4.346  0.00  0.00    -0.270 N 
ATOM      3  C   LIG    1       23.063 -19.800   3.962  0.00  0.00    +0.271 C 
ATOM      4  O   LIG    1       22.127 -20.547   4.272  0.00  0.00    -0.270 OA
ATOM      5  C   LIG    1       24.225 -20.317   3.069  0.00  0.00    +0.320 C 
ATOM      6  N   LIG    1       25.397 -20.447   3.922  0.00  0.00    -0.243 NA
ATOM      7  C   LIG    1       25.963 -19.364   4.337  0.00  0.00    +0.079 C 
ATOM      8  C   LIG    1       25.532 -17.984   3.962  0.00  0.00    +0.023 A 
ATOM      9  C   LIG    1       26.545 -17.073   3.609  0.00  0.00    +0.032 A 
ATOM     10  C   LIG    1       26.233 -15.741   3.362  0.00  0.00    +0.042 A 
ATOM     11 CL   LIG    1       27.477 -14.633   2.941  0.00  0.00    -0.084 Cl
ATOM     12  C   LIG    1       24.920 -15.303   3.464  0.00  0.00    +0.022 A 
ATOM     13  C   LIG    1       23.907 -16.207   3.799  0.00  0.00    +0.025 A 
ATOM     14  C   LIG    1       24.185 -17.569   4.032  0.00  0.00    +0.045 A 
ENDROOT
BRANCH   7  15
ATOM     15  C   LIG    1       27.160 -19.528   5.212  0.00  0.00    +0.019 A 
ATOM     16  C   LIG    1       27.219 -20.435   6.278  0.00  0.00    +0.050 A 
ATOM     17 CL   LIG    1       25.935 -21.528   6.657  0.00  0.00    -0.083 Cl
ATOM     18  C   LIG    1       28.375 -20.510   7.062  0.00  0.00    +0.021 A 
ATOM     19  C   LIG    1       29.474 -19.694   6.779  0.00  0.00    +0.002 A 
ATOM     20  C   LIG    1       29.427 -18.810   5.704  0.00  0.00    +0.001 A 
ATOM     21  C   LIG    1       28.277 -18.729   4.918  0.00  0.00    +0.011 A 
ENDBRANCH   7  15
BRANCH   5  22
ATOM     22  O   LIG    1       23.869 -21.549   2.460  0.00  0.00    -0.364 OA
ATOM     23  H   LIG    1       24.718 -22.019   2.380  0.00  0.00    +0.212 HD
ENDBRANCH   5  22
TORSDOF 2
ENDMDL
MODEL 2
REMARK VINA RESULT:      -0.6      3.075      5.155
REMARK  Name = *****
REMARK                            x       y       z     vdW  Elec       q    Type
REMARK                         _______ _______ _______ _____ _____    ______ ____
ROOT
ATOM      1  C   LIG    1       23.356 -20.821   7.025  0.00  0.00    +0.138 C 
ATOM      2  N   LIG    1       23.765 -20.241   5.753  0.00  0.00    -0.270 N 
ATOM      3  C   LIG    1       25.113 -20.376   5.400  0.00  0.00    +0.271 C 
ATOM      4  O   LIG    1       25.954 -20.854   6.171  0.00  0.00    -0.270 OA
ATOM      5  C   LIG    1       25.513 -19.952   3.959  0.00  0.00    +0.320 C 
ATOM      6  N   LIG    1       25.500 -18.498   3.921  0.00  0.00    -0.243 NA
ATOM      7  C   LIG    1       24.354 -17.904   3.967  0.00  0.00    +0.079 C 
ATOM      8  C   LIG    1       23.036 -18.605   4.006  0.00  0.00    +0.023 A 
ATOM      9  C   LIG    1       22.025 -18.109   3.162  0.00  0.00    +0.032 A 
ATOM     10  C   LIG    1       20.740 -18.635   3.227  0.00  0.00    +0.042 A 
ATOM     11 CL   LIG    1       19.508 -18.016   2.201  0.00  0.00    -0.084 Cl
ATOM     12  C   LIG    1       20.447 -19.650   4.127  0.00  0.00    +0.022 A 
ATOM     13  C   LIG    1       21.452 -20.158   4.956  0.00  0.00    +0.025 A 
ATOM     14  C   LIG    1       22.771 -19.665   4.899  0.00  0.00    +0.045 A 
ENDROOT
BRANCH   7  15
ATOM     15  C   LIG    1       24.372 -16.413   3.929  0.00  0.00    +0.019 A 
ATOM     16  C   LIG    1       23.387 -15.614   4.525  0.00  0.00    +0.050 A 
ATOM     17 CL   LIG    1       22.074 -16.263   5.441  0.00  0.00    -0.083 Cl
ATOM     18  C   LIG    1       23.471 -14.220   4.424  0.00  0.00    +0.021 A 
ATOM     19  C   LIG    1       24.536 -13.625   3.744  0.00  0.00    +0.002 A 
ATOM     20  C   LIG    1       25.529 -14.416   3.174  0.00  0.00    +0.001 A 
ATOM     21  C   LIG    1       25.453 -15.806   3.269  0.00  0.00    +0.011 A 
ENDBRANCH   7  15
BRANCH   5  22
ATOM     22  O   LIG    1       26.785 -20.484   3.623  0.00  0.00    -0.364 OA
ATOM     23  H   LIG    1       26.675 -20.777   2.701  0.00  0.00    +0.212 HD
ENDBRANCH   5  22
TORSDOF 2
ENDMDL
MODEL 3
REMARK VINA RESULT:      -0.5      2.786      5.276
REMARK  Name = *****
REMARK                            x       y       z     vdW  Elec       q    Type
REMARK                         _______ _______ _______ _____ _____    ______ ____
ROOT
ATOM      1  C   LIG    1       23.434 -20.994   6.961  0.00  0.00    +0.138 C 
ATOM      2  N   LIG    1       23.799 -20.344   5.710  0.00  0.00    -0.270 N 
ATOM      3  C   LIG    1       25.144 -20.421   5.325  0.00  0.00    +0.271 C 
ATOM      4  O   LIG    1       26.014 -20.908   6.057  0.00  0.00    -0.270 OA
ATOM      5  C   LIG    1       25.501 -19.919   3.899  0.00  0.00    +0.320 C 
ATOM      6  N   LIG    1       25.443 -18.466   3.928  0.00  0.00    -0.243 NA
ATOM      7  C   LIG    1       24.282 -17.911   4.024  0.00  0.00    +0.079 C 
ATOM      8  C   LIG    1       22.987 -18.654   4.055  0.00  0.00    +0.023 A 
ATOM      9  C   LIG    1       21.944 -18.150   3.254  0.00  0.00    +0.032 A 
ATOM     10  C   LIG    1       20.677 -18.718   3.319  0.00  0.00    +0.042 A 
ATOM     11 CL   LIG    1       19.406 -18.092   2.346  0.00  0.00    -0.084 Cl
ATOM     12  C   LIG    1       20.433 -19.783   4.176  0.00  0.00    +0.022 A 
ATOM     13  C   LIG    1       21.470 -20.297   4.961  0.00  0.00    +0.025 A 
ATOM     14  C   LIG    1       22.772 -19.761   4.903  0.00  0.00    +0.045 A 
ENDROOT
BRANCH   7  15
ATOM     15  C   LIG    1       24.254 -16.419   4.055  0.00  0.00    +0.019 A 
ATOM     16  C   LIG    1       25.361 -15.619   3.742  0.00  0.00    +0.050 A 
ATOM     17 CL   LIG    1       26.871 -16.268   3.207  0.00  0.00    -0.083 Cl
ATOM     18  C   LIG    1       25.253 -14.226   3.817  0.00  0.00    +0.021 A 
ATOM     19  C   LIG    1       24.045 -13.632   4.190  0.00  0.00    +0.002 A 
ATOM     20  C   LIG    1       22.937 -14.424   4.477  0.00  0.00    +0.001 A 
ATOM     21  C   LIG    1       23.037 -15.814   4.405  0.00  0.00    +0.011 A 
ENDBRANCH   7  15
BRANCH   5  22
ATOM     22  O   LIG    1       26.782 -20.395   3.515  0.00  0.00    -0.364 OA
ATOM     23  H   LIG    1       26.948 -19.946   2.666  0.00  0.00    +0.212 HD
ENDBRANCH   5  22
TORSDOF 2
ENDMDL
