MODEL 1
REMARK VINA RESULT:     -10.3      0.000      0.000
REMARK  Name = *****
REMARK                            x       y       z     vdW  Elec       q    Type
REMARK                         _______ _______ _______ _____ _____    ______ ____
ROOT
ATOM      1  C   LIG    1       29.910 -19.870   8.388  0.00  0.00    +0.105 C 
ATOM      2  N   LIG    1       29.616 -20.458   7.083  0.00  0.00    -0.305 NA
ATOM      3  C   LIG    1       29.095 -21.835   7.205  0.00  0.00    +0.088 C 
ATOM      4  C   LIG    1       27.645 -21.926   7.711  0.00  0.00    +0.047 C 
ATOM      5  C   LIG    1       26.719 -21.120   6.808  0.00  0.00    -0.057 C 
ATOM      6  C   LIG    1       25.637 -21.610   6.147  0.00  0.00    +0.007 C 
ATOM      7  C   LIG    1       25.239 -23.044   6.267  0.00  0.00    +0.075 A 
ATOM      8  C   LIG    1       23.947 -23.450   6.629  0.00  0.00    -0.021 A 
ATOM      9  C   LIG    1       23.707 -24.836   6.691  0.00  0.00    +0.007 A 
ATOM     10  C   LIG    1       24.716 -25.746   6.403  0.00  0.00    +0.020 A 
ATOM     11  C   LIG    1       25.947 -25.248   6.036  0.00  0.00    +0.111 A 
ATOM     12  C   LIG    1       22.765 -22.544   6.908  0.00  0.00    +0.042 C 
ATOM     13  C   LIG    1       22.997 -21.042   7.108  0.00  0.00    +0.040 C 
ATOM     14  C   LIG    1       23.494 -20.382   5.845  0.00  0.00    -0.039 A 
ATOM     15  C   LIG    1       22.676 -19.504   5.121  0.00  0.00    +0.004 A 
ATOM     16  C   LIG    1       23.128 -18.945   3.926  0.00  0.00    +0.000 A 
ATOM     17  C   LIG    1       24.392 -19.268   3.436  0.00  0.00    +0.001 A 
ATOM     18  C   LIG    1       25.213 -20.143   4.149  0.00  0.00    +0.009 A 
ATOM     19  N   LIG    1       26.224 -23.932   5.953  0.00  0.00    -0.255 NA
ATOM     20  C   LIG    1       24.778 -20.685   5.365  0.00  0.00    -0.013 A 
ATOM     21  C   LIG    1       27.213 -19.677   6.762  0.00  0.00    +0.047 C 
ATOM     22  C   LIG    1       28.683 -19.624   6.300  0.00  0.00    +0.088 C 
ENDROOT
TORSDOF 0
ENDMDL
MODEL 2
REMARK VINA RESULT:      -7.6      1.268      4.803
REMARK  Name = *****
REMARK                            x       y       z     vdW  Elec       q    Type
REMARK                         _______ _______ _______ _____ _____    ______ ____
ROOT
ATOM      1  C   LIG    1       24.509 -26.518   5.806  0.00  0.00    +0.105 C 
ATOM      2  N   LIG    1       24.267 -25.473   6.798  0.00  0.00    -0.305 NA
ATOM      3  C   LIG    1       25.525 -24.845   7.253  0.00  0.00    +0.088 C 
ATOM      4  C   LIG    1       26.170 -23.895   6.228  0.00  0.00    +0.047 C 
ATOM      5  C   LIG    1       25.184 -22.805   5.824  0.00  0.00    -0.057 C 
ATOM      6  C   LIG    1       25.392 -21.468   5.947  0.00  0.00    +0.007 C 
ATOM      7  C   LIG    1       26.669 -20.929   6.501  0.00  0.00    +0.075 A 
ATOM      8  C   LIG    1       27.449 -19.974   5.833  0.00  0.00    -0.021 A 
ATOM      9  C   LIG    1       28.624 -19.544   6.477  0.00  0.00    +0.007 A 
ATOM     10  C   LIG    1       28.980 -20.054   7.720  0.00  0.00    +0.020 A 
ATOM     11  C   LIG    1       28.137 -20.973   8.305  0.00  0.00    +0.111 A 
ATOM     12  C   LIG    1       27.123 -19.316   4.508  0.00  0.00    +0.042 C 
ATOM     13  C   LIG    1       26.011 -19.899   3.629  0.00  0.00    +0.040 C 
ATOM     14  C   LIG    1       24.658 -19.769   4.283  0.00  0.00    -0.039 A 
ATOM     15  C   LIG    1       23.699 -18.877   3.784  0.00  0.00    +0.004 A 
ATOM     16  C   LIG    1       22.473 -18.726   4.432  0.00  0.00    +0.000 A 
ATOM     17  C   LIG    1       22.199 -19.451   5.590  0.00  0.00    +0.001 A 
ATOM     18  C   LIG    1       23.149 -20.341   6.097  0.00  0.00    +0.009 A 
ATOM     19  N   LIG    1       26.997 -21.409   7.734  0.00  0.00    -0.255 NA
ATOM     20  C   LIG    1       24.370 -20.520   5.434  0.00  0.00    -0.013 A 
ATOM     21  C   LIG    1       23.924 -23.464   5.270  0.00  0.00    +0.047 C 
ATOM     22  C   LIG    1       23.331 -24.446   6.300  0.00  0.00    +0.088 C 
ENDROOT
TORSDOF 0
ENDMDL
