MODEL 1
REMARK VINA RESULT:      -8.3      0.000      0.000
REMARK  Name = *****
REMARK                            x       y       z     vdW  Elec       q    Type
REMARK                         _______ _______ _______ _____ _____    ______ ____
ROOT
ATOM      1  N   LIG    1       24.468 -22.569   6.794  0.00  0.00    -0.291 NA
ENDROOT
BRANCH   1   3
ATOM      2  C   LIG    1       25.371 -21.231   8.756  0.00  0.00    +0.028 C 
ATOM      3  C   LIG    1       25.535 -22.469   7.840  0.00  0.00    +0.091 C 
BRANCH   3   4
ATOM      4  C   LIG    1       26.979 -22.364   7.257  0.00  0.00    +0.247 C 
BRANCH   4   5
ATOM      5  O   LIG    1       27.889 -21.665   8.110  0.00  0.00    -0.490 OA
BRANCH   5   6
ATOM      6  C   LIG    1       28.663 -20.704   7.509  0.00  0.00    +0.121 A 
ATOM      7  C   LIG    1       28.110 -20.067   6.398  0.00  0.00    +0.045 A 
ATOM      8  C   LIG    1       28.851 -19.108   5.695  0.00  0.00    +0.004 A 
ATOM      9  C   LIG    1       30.153 -18.791   6.102  0.00  0.00    +0.000 A 
ATOM     10  C   LIG    1       30.702 -19.417   7.209  0.00  0.00    +0.004 A 
ATOM     11  C   LIG    1       29.965 -20.367   7.912  0.00  0.00    +0.045 A 
ENDBRANCH   5   6
ENDBRANCH   4   5
ENDBRANCH   3   4
ENDBRANCH   1   3
BRANCH   1  12
ATOM     12  C   LIG    1       23.515 -21.435   6.841  0.00  0.00    +0.120 C 
BRANCH  12  13
ATOM     13  C   LIG    1       23.598 -20.469   5.675  0.00  0.00    -0.033 A 
ATOM     14  C   LIG    1       22.525 -19.615   5.375  0.00  0.00    +0.005 A 
ATOM     15  C   LIG    1       22.606 -18.723   4.304  0.00  0.00    +0.000 A 
ATOM     16  C   LIG    1       23.758 -18.675   3.521  0.00  0.00    +0.000 A 
ATOM     17  C   LIG    1       24.827 -19.522   3.804  0.00  0.00    +0.000 A 
ATOM     18  C   LIG    1       24.746 -20.419   4.870  0.00  0.00    +0.005 A 
ENDBRANCH  12  13
ENDBRANCH   1  12
BRANCH   1  19
ATOM     19  C   LIG    1       23.764 -23.883   6.818  0.00  0.00    +0.101 C 
BRANCH  19  20
ATOM     20  C   LIG    1       24.575 -25.122   6.411  0.00  0.00    +0.124 C 
ATOM     21 CL   LIG    1       25.052 -25.028   4.693  0.00  0.00    -0.124 Cl
ENDBRANCH  19  20
ENDBRANCH   1  19
TORSDOF 8
ENDMDL
MODEL 2
REMARK VINA RESULT:      -8.1      1.221      1.835
REMARK  Name = *****
REMARK                            x       y       z     vdW  Elec       q    Type
REMARK                         _______ _______ _______ _____ _____    ______ ____
ROOT
ATOM      1  N   LIG    1       25.712 -22.548   6.440  0.00  0.00    -0.291 NA
ENDROOT
BRANCH   1   3
ATOM      2  C   LIG    1       25.855 -21.173   8.572  0.00  0.00    +0.028 C 
ATOM      3  C   LIG    1       26.618 -21.850   7.406  0.00  0.00    +0.091 C 
BRANCH   3   4
ATOM      4  C   LIG    1       27.475 -20.717   6.759  0.00  0.00    +0.247 C 
BRANCH   4   5
ATOM      5  O   LIG    1       28.864 -21.039   6.660  0.00  0.00    -0.490 OA
BRANCH   5   6
ATOM      6  C   LIG    1       29.720 -20.256   7.394  0.00  0.00    +0.121 A 
ATOM      7  C   LIG    1       30.528 -20.919   8.317  0.00  0.00    +0.045 A 
ATOM      8  C   LIG    1       31.396 -20.192   9.143  0.00  0.00    +0.004 A 
ATOM      9  C   LIG    1       31.448 -18.796   9.049  0.00  0.00    +0.000 A 
ATOM     10  C   LIG    1       30.650 -18.136   8.129  0.00  0.00    +0.004 A 
ATOM     11  C   LIG    1       29.791 -18.857   7.304  0.00  0.00    +0.045 A 
ENDBRANCH   5   6
ENDBRANCH   4   5
ENDBRANCH   3   4
ENDBRANCH   1   3
BRANCH   1  12
ATOM     12  C   LIG    1       24.306 -22.092   6.545  0.00  0.00    +0.120 C 
BRANCH  12  13
ATOM     13  C   LIG    1       23.915 -20.972   5.598  0.00  0.00    -0.033 A 
ATOM     14  C   LIG    1       22.801 -20.162   5.869  0.00  0.00    +0.005 A 
ATOM     15  C   LIG    1       22.447 -19.129   5.000  0.00  0.00    +0.000 A 
ATOM     16  C   LIG    1       23.199 -18.895   3.851  0.00  0.00    +0.000 A 
ATOM     17  C   LIG    1       24.303 -19.697   3.567  0.00  0.00    +0.000 A 
ATOM     18  C   LIG    1       24.656 -20.733   4.431  0.00  0.00    +0.005 A 
ENDBRANCH  12  13
ENDBRANCH   1  12
BRANCH   1  19
ATOM     19  C   LIG    1       25.818 -24.032   6.526  0.00  0.00    +0.101 C 
BRANCH  19  20
ATOM     20  C   LIG    1       25.151 -24.850   5.409  0.00  0.00    +0.124 C 
ATOM     21 CL   LIG    1       24.081 -26.103   6.097  0.00  0.00    -0.124 Cl
ENDBRANCH  19  20
ENDBRANCH   1  19
TORSDOF 8
ENDMDL
MODEL 3
REMARK VINA RESULT:      -7.6      2.635      5.957
REMARK  Name = *****
REMARK                            x       y       z     vdW  Elec       q    Type
REMARK                         _______ _______ _______ _____ _____    ______ ____
ROOT
ATOM      1  N   LIG    1       25.260 -22.325   6.757  0.00  0.00    -0.291 NA
ENDROOT
BRANCH   1   3
ATOM      2  C   LIG    1       23.502 -24.158   6.660  0.00  0.00    +0.028 C 
ATOM      3  C   LIG    1       24.938 -23.711   6.289  0.00  0.00    +0.091 C 
BRANCH   3   4
ATOM      4  C   LIG    1       25.878 -24.809   6.878  0.00  0.00    +0.247 C 
BRANCH   4   5
ATOM      5  O   LIG    1       26.127 -25.890   5.976  0.00  0.00    -0.490 OA
BRANCH   5   6
ATOM      6  C   LIG    1       25.520 -27.083   6.282  0.00  0.00    +0.121 A 
ATOM      7  C   LIG    1       25.877 -27.667   7.497  0.00  0.00    +0.045 A 
ATOM      8  C   LIG    1       25.343 -28.909   7.866  0.00  0.00    +0.004 A 
ATOM      9  C   LIG    1       24.454 -29.571   7.010  0.00  0.00    +0.000 A 
ATOM     10  C   LIG    1       24.093 -28.990   5.806  0.00  0.00    +0.004 A 
ATOM     11  C   LIG    1       24.620 -27.754   5.440  0.00  0.00    +0.045 A 
ENDBRANCH   5   6
ENDBRANCH   4   5
ENDBRANCH   3   4
ENDBRANCH   1   3
BRANCH   1  12
ATOM     12  C   LIG    1       25.684 -21.434   5.651  0.00  0.00    +0.120 C 
BRANCH  12  13
ATOM     13  C   LIG    1       24.620 -20.479   5.143  0.00  0.00    -0.033 A 
ATOM     14  C   LIG    1       23.385 -20.366   5.802  0.00  0.00    +0.005 A 
ATOM     15  C   LIG    1       22.411 -19.483   5.335  0.00  0.00    +0.000 A 
ATOM     16  C   LIG    1       22.657 -18.705   4.206  0.00  0.00    +0.000 A 
ATOM     17  C   LIG    1       23.875 -18.813   3.539  0.00  0.00    +0.000 A 
ATOM     18  C   LIG    1       24.849 -19.699   4.000  0.00  0.00    +0.005 A 
ENDBRANCH  12  13
ENDBRANCH   1  12
BRANCH   1  19
ATOM     19  C   LIG    1       26.238 -22.313   7.881  0.00  0.00    +0.101 C 
BRANCH  19  20
ATOM     20  C   LIG    1       27.100 -21.052   8.049  0.00  0.00    +0.124 C 
ATOM     21 CL   LIG    1       28.776 -21.358   7.517  0.00  0.00    -0.124 Cl
ENDBRANCH  19  20
ENDBRANCH   1  19
TORSDOF 8
ENDMDL
MODEL 4
REMARK VINA RESULT:      -7.5      3.339      7.484
REMARK  Name = *****
REMARK                            x       y       z     vdW  Elec       q    Type
REMARK                         _______ _______ _______ _____ _____    ______ ____
ROOT
ATOM      1  N   LIG    1       30.628 -19.531   8.113  0.00  0.00    -0.291 NA
ENDROOT
BRANCH   1   3
ATOM      2  C   LIG    1       31.204 -21.895   8.847  0.00  0.00    +0.028 C 
ATOM      3  C   LIG    1       30.122 -20.792   8.745  0.00  0.00    +0.091 C 
BRANCH   3   4
ATOM      4  C   LIG    1       28.933 -21.448   7.974  0.00  0.00    +0.247 C 
BRANCH   4   5
ATOM      5  O   LIG    1       27.717 -21.482   8.726  0.00  0.00    -0.490 OA
BRANCH   5   6
ATOM      6  C   LIG    1       26.571 -21.721   8.009  0.00  0.00    +0.121 A 
ATOM      7  C   LIG    1       25.612 -20.709   8.018  0.00  0.00    +0.045 A 
ATOM      8  C   LIG    1       24.391 -20.889   7.353  0.00  0.00    +0.004 A 
ATOM      9  C   LIG    1       24.129 -22.090   6.684  0.00  0.00    +0.000 A 
ATOM     10  C   LIG    1       25.082 -23.095   6.668  0.00  0.00    +0.004 A 
ATOM     11  C   LIG    1       26.297 -22.915   7.324  0.00  0.00    +0.045 A 
ENDBRANCH   5   6
ENDBRANCH   4   5
ENDBRANCH   3   4
ENDBRANCH   1   3
BRANCH   1  12
ATOM     12  C   LIG    1       30.014 -18.316   8.696  0.00  0.00    +0.120 C 
BRANCH  12  13
ATOM     13  C   LIG    1       30.911 -17.516   9.624  0.00  0.00    -0.033 A 
ATOM     14  C   LIG    1       32.104 -16.947   9.151  0.00  0.00    +0.005 A 
ATOM     15  C   LIG    1       32.924 -16.208  10.005  0.00  0.00    +0.000 A 
ATOM     16  C   LIG    1       32.563 -16.031  11.339  0.00  0.00    +0.000 A 
ATOM     17  C   LIG    1       31.385 -16.597  11.822  0.00  0.00    +0.000 A 
ATOM     18  C   LIG    1       30.566 -17.341  10.972  0.00  0.00    +0.005 A 
ENDBRANCH  12  13
ENDBRANCH   1  12
BRANCH   1  19
ATOM     19  C   LIG    1       30.514 -19.549   6.628  0.00  0.00    +0.101 C 
BRANCH  19  20
ATOM     20  C   LIG    1       29.559 -18.531   5.984  0.00  0.00    +0.124 C 
ATOM     21 CL   LIG    1       28.081 -19.338   5.393  0.00  0.00    -0.124 Cl
ENDBRANCH  19  20
ENDBRANCH   1  19
TORSDOF 8
ENDMDL
MODEL 5
REMARK VINA RESULT:      -7.5      1.910      4.133
REMARK  Name = *****
REMARK                            x       y       z     vdW  Elec       q    Type
REMARK                         _______ _______ _______ _____ _____    ______ ____
ROOT
ATOM      1  N   LIG    1       24.787 -21.404   6.608  0.00  0.00    -0.291 NA
ENDROOT
BRANCH   1   3
ATOM      2  C   LIG    1       26.150 -20.545   8.573  0.00  0.00    +0.028 C 
ATOM      3  C   LIG    1       26.161 -21.145   7.146  0.00  0.00    +0.091 C 
BRANCH   3   4
ATOM      4  C   LIG    1       26.997 -20.148   6.284  0.00  0.00    +0.247 C 
BRANCH   4   5
ATOM      5  O   LIG    1       28.329 -20.599   6.022  0.00  0.00    -0.490 OA
BRANCH   5   6
ATOM      6  C   LIG    1       29.301 -20.137   6.873  0.00  0.00    +0.121 A 
ATOM      7  C   LIG    1       29.846 -21.068   7.756  0.00  0.00    +0.045 A 
ATOM      8  C   LIG    1       30.809 -20.671   8.693  0.00  0.00    +0.004 A 
ATOM      9  C   LIG    1       31.223 -19.334   8.748  0.00  0.00    +0.000 A 
ATOM     10  C   LIG    1       30.688 -18.409   7.868  0.00  0.00    +0.004 A 
ATOM     11  C   LIG    1       29.734 -18.803   6.933  0.00  0.00    +0.045 A 
ENDBRANCH   5   6
ENDBRANCH   4   5
ENDBRANCH   3   4
ENDBRANCH   1   3
BRANCH   1  12
ATOM     12  C   LIG    1       24.120 -22.546   7.274  0.00  0.00    +0.120 C 
BRANCH  12  13
ATOM     13  C   LIG    1       24.550 -23.920   6.793  0.00  0.00    -0.033 A 
ATOM     14  C   LIG    1       23.616 -24.807   6.233  0.00  0.00    +0.005 A 
ATOM     15  C   LIG    1       24.016 -26.067   5.786  0.00  0.00    +0.000 A 
ATOM     16  C   LIG    1       25.349 -26.456   5.895  0.00  0.00    +0.000 A 
ATOM     17  C   LIG    1       26.284 -25.588   6.455  0.00  0.00    +0.000 A 
ATOM     18  C   LIG    1       25.886 -24.330   6.908  0.00  0.00    +0.005 A 
ENDBRANCH  12  13
ENDBRANCH   1  12
BRANCH   1  19
ATOM     19  C   LIG    1       24.770 -21.544   5.124  0.00  0.00    +0.101 C 
BRANCH  19  20
ATOM     20  C   LIG    1       23.803 -20.639   4.345  0.00  0.00    +0.124 C 
ATOM     21 CL   LIG    1       22.713 -19.771   5.460  0.00  0.00    -0.124 Cl
ENDBRANCH  19  20
ENDBRANCH   1  19
TORSDOF 8
ENDMDL
MODEL 6
REMARK VINA RESULT:      -7.5      3.434      7.494
REMARK  Name = *****
REMARK                            x       y       z     vdW  Elec       q    Type
REMARK                         _______ _______ _______ _____ _____    ______ ____
ROOT
ATOM      1  N   LIG    1       29.836 -19.526   8.425  0.00  0.00    -0.291 NA
ENDROOT
BRANCH   1   3
ATOM      2  C   LIG    1       29.079 -19.208   6.020  0.00  0.00    +0.028 C 
ATOM      3  C   LIG    1       29.068 -20.110   7.279  0.00  0.00    +0.091 C 
BRANCH   3   4
ATOM      4  C   LIG    1       27.561 -20.362   7.595  0.00  0.00    +0.247 C 
BRANCH   4   5
ATOM      5  O   LIG    1       26.917 -21.223   6.653  0.00  0.00    -0.490 OA
BRANCH   5   6
ATOM      6  C   LIG    1       25.599 -20.948   6.385  0.00  0.00    +0.121 A 
ATOM      7  C   LIG    1       25.311 -20.487   5.100  0.00  0.00    +0.045 A 
ATOM      8  C   LIG    1       24.000 -20.135   4.756  0.00  0.00    +0.004 A 
ATOM      9  C   LIG    1       22.974 -20.239   5.704  0.00  0.00    +0.000 A 
ATOM     10  C   LIG    1       23.256 -20.703   6.978  0.00  0.00    +0.004 A 
ATOM     11  C   LIG    1       24.559 -21.057   7.321  0.00  0.00    +0.045 A 
ENDBRANCH   5   6
ENDBRANCH   4   5
ENDBRANCH   3   4
ENDBRANCH   1   3
BRANCH   1  12
ATOM     12  C   LIG    1       30.170 -18.097   8.218  0.00  0.00    +0.120 C 
BRANCH  12  13
ATOM     13  C   LIG    1       30.953 -17.444   9.342  0.00  0.00    -0.033 A 
ATOM     14  C   LIG    1       30.400 -17.328  10.626  0.00  0.00    +0.005 A 
ATOM     15  C   LIG    1       31.124 -16.732  11.660  0.00  0.00    +0.000 A 
ATOM     16  C   LIG    1       32.407 -16.244  11.421  0.00  0.00    +0.000 A 
ATOM     17  C   LIG    1       32.965 -16.347  10.149  0.00  0.00    +0.000 A 
ATOM     18  C   LIG    1       32.241 -16.937   9.113  0.00  0.00    +0.005 A 
ENDBRANCH  12  13
ENDBRANCH   1  12
BRANCH   1  19
ATOM     19  C   LIG    1       31.041 -20.329   8.776  0.00  0.00    +0.101 C 
BRANCH  19  20
ATOM     20  C   LIG    1       30.811 -21.777   9.235  0.00  0.00    +0.124 C 
ATOM     21 CL   LIG    1       32.007 -22.873   8.490  0.00  0.00    -0.124 Cl
ENDBRANCH  19  20
ENDBRANCH   1  19
TORSDOF 8
ENDMDL
MODEL 7
REMARK VINA RESULT:      -7.4      1.873      4.387
REMARK  Name = *****
REMARK                            x       y       z     vdW  Elec       q    Type
REMARK                         _______ _______ _______ _____ _____    ______ ____
ROOT
ATOM      1  N   LIG    1       24.541 -22.672   7.266  0.00  0.00    -0.291 NA
ENDROOT
BRANCH   1   3
ATOM      2  C   LIG    1       25.397 -20.704   8.627  0.00  0.00    +0.028 C 
ATOM      3  C   LIG    1       25.649 -22.148   8.126  0.00  0.00    +0.091 C 
BRANCH   3   4
ATOM      4  C   LIG    1       27.034 -22.102   7.409  0.00  0.00    +0.247 C 
BRANCH   4   5
ATOM      5  O   LIG    1       28.082 -21.574   8.226  0.00  0.00    -0.490 OA
BRANCH   5   6
ATOM      6  C   LIG    1       28.908 -20.654   7.630  0.00  0.00    +0.121 A 
ATOM      7  C   LIG    1       28.361 -19.917   6.580  0.00  0.00    +0.045 A 
ATOM      8  C   LIG    1       29.148 -18.991   5.884  0.00  0.00    +0.004 A 
ATOM      9  C   LIG    1       30.491 -18.807   6.236  0.00  0.00    +0.000 A 
ATOM     10  C   LIG    1       31.035 -19.533   7.283  0.00  0.00    +0.004 A 
ATOM     11  C   LIG    1       30.253 -20.451   7.979  0.00  0.00    +0.045 A 
ENDBRANCH   5   6
ENDBRANCH   4   5
ENDBRANCH   3   4
ENDBRANCH   1   3
BRANCH   1  12
ATOM     12  C   LIG    1       25.037 -23.329   6.035  0.00  0.00    +0.120 C 
BRANCH  12  13
ATOM     13  C   LIG    1       25.134 -24.842   6.101  0.00  0.00    -0.033 A 
ATOM     14  C   LIG    1       26.325 -25.466   6.507  0.00  0.00    +0.005 A 
ATOM     15  C   LIG    1       26.409 -26.858   6.573  0.00  0.00    +0.000 A 
ATOM     16  C   LIG    1       25.309 -27.641   6.232  0.00  0.00    +0.000 A 
ATOM     17  C   LIG    1       24.124 -27.034   5.821  0.00  0.00    +0.000 A 
ATOM     18  C   LIG    1       24.038 -25.644   5.749  0.00  0.00    +0.005 A 
ENDBRANCH  12  13
ENDBRANCH   1  12
BRANCH   1  19
ATOM     19  C   LIG    1       23.513 -21.636   6.962  0.00  0.00    +0.101 C 
BRANCH  19  20
ATOM     20  C   LIG    1       23.376 -21.190   5.498  0.00  0.00    +0.124 C 
ATOM     21 CL   LIG    1       22.555 -19.609   5.393  0.00  0.00    -0.124 Cl
ENDBRANCH  19  20
ENDBRANCH   1  19
TORSDOF 8
ENDMDL
MODEL 8
REMARK VINA RESULT:      -7.4      2.381      5.765
REMARK  Name = *****
REMARK                            x       y       z     vdW  Elec       q    Type
REMARK                         _______ _______ _______ _____ _____    ______ ____
ROOT
ATOM      1  N   LIG    1       26.270 -22.206   7.094  0.00  0.00    -0.291 NA
ENDROOT
BRANCH   1   3
ATOM      2  C   LIG    1       25.672 -20.510   8.890  0.00  0.00    +0.028 C 
ATOM      3  C   LIG    1       25.336 -21.108   7.502  0.00  0.00    +0.091 C 
BRANCH   3   4
ATOM      4  C   LIG    1       23.843 -21.555   7.595  0.00  0.00    +0.247 C 
BRANCH   4   5
ATOM      5  O   LIG    1       23.237 -21.785   6.320  0.00  0.00    -0.490 OA
BRANCH   5   6
ATOM      6  C   LIG    1       23.402 -20.795   5.385  0.00  0.00    +0.121 A 
ATOM      7  C   LIG    1       22.523 -19.716   5.462  0.00  0.00    +0.045 A 
ATOM      8  C   LIG    1       22.589 -18.683   4.517  0.00  0.00    +0.004 A 
ATOM      9  C   LIG    1       23.535 -18.737   3.486  0.00  0.00    +0.000 A 
ATOM     10  C   LIG    1       24.414 -19.805   3.411  0.00  0.00    +0.004 A 
ATOM     11  C   LIG    1       24.352 -20.829   4.352  0.00  0.00    +0.045 A 
ENDBRANCH   5   6
ENDBRANCH   4   5
ENDBRANCH   3   4
ENDBRANCH   1   3
BRANCH   1  12
ATOM     12  C   LIG    1       25.905 -23.514   7.685  0.00  0.00    +0.120 C 
BRANCH  12  13
ATOM     13  C   LIG    1       25.721 -24.646   6.692  0.00  0.00    -0.033 A 
ATOM     14  C   LIG    1       26.076 -25.962   7.031  0.00  0.00    +0.005 A 
ATOM     15  C   LIG    1       25.900 -27.002   6.117  0.00  0.00    +0.000 A 
ATOM     16  C   LIG    1       25.371 -26.740   4.855  0.00  0.00    +0.000 A 
ATOM     17  C   LIG    1       25.021 -25.438   4.503  0.00  0.00    +0.000 A 
ATOM     18  C   LIG    1       25.201 -24.396   5.413  0.00  0.00    +0.005 A 
ENDBRANCH  12  13
ENDBRANCH   1  12
BRANCH   1  19
ATOM     19  C   LIG    1       27.699 -21.866   7.349  0.00  0.00    +0.101 C 
BRANCH  19  20
ATOM     20  C   LIG    1       28.288 -20.681   6.568  0.00  0.00    +0.124 C 
ATOM     21 CL   LIG    1       29.023 -19.495   7.682  0.00  0.00    -0.124 Cl
ENDBRANCH  19  20
ENDBRANCH   1  19
TORSDOF 8
ENDMDL
MODEL 9
REMARK VINA RESULT:      -7.4      2.677      6.208
REMARK  Name = *****
REMARK                            x       y       z     vdW  Elec       q    Type
REMARK                         _______ _______ _______ _____ _____    ______ ____
ROOT
ATOM      1  N   LIG    1       24.626 -21.580   5.166  0.00  0.00    -0.291 NA
ENDROOT
BRANCH   1   3
ATOM      2  C   LIG    1       23.414 -22.918   6.954  0.00  0.00    +0.028 C 
ATOM      3  C   LIG    1       24.174 -22.939   5.605  0.00  0.00    +0.091 C 
BRANCH   3   4
ATOM      4  C   LIG    1       25.341 -23.957   5.803  0.00  0.00    +0.247 C 
BRANCH   4   5
ATOM      5  O   LIG    1       25.167 -25.172   5.070  0.00  0.00    -0.490 OA
BRANCH   5   6
ATOM      6  C   LIG    1       25.212 -26.332   5.804  0.00  0.00    +0.121 A 
ATOM      7  C   LIG    1       24.374 -27.364   5.383  0.00  0.00    +0.045 A 
ATOM      8  C   LIG    1       24.319 -28.565   6.102  0.00  0.00    +0.004 A 
ATOM      9  C   LIG    1       25.102 -28.729   7.252  0.00  0.00    +0.000 A 
ATOM     10  C   LIG    1       25.940 -27.708   7.668  0.00  0.00    +0.004 A 
ATOM     11  C   LIG    1       25.998 -26.515   6.951  0.00  0.00    +0.045 A 
ENDBRANCH   5   6
ENDBRANCH   4   5
ENDBRANCH   3   4
ENDBRANCH   1   3
BRANCH   1  12
ATOM     12  C   LIG    1       24.909 -20.678   6.307  0.00  0.00    +0.120 C 
BRANCH  12  13
ATOM     13  C   LIG    1       26.378 -20.391   6.559  0.00  0.00    -0.033 A 
ATOM     14  C   LIG    1       26.933 -20.567   7.837  0.00  0.00    +0.005 A 
ATOM     15  C   LIG    1       28.285 -20.308   8.064  0.00  0.00    +0.000 A 
ATOM     16  C   LIG    1       29.097 -19.869   7.021  0.00  0.00    +0.000 A 
ATOM     17  C   LIG    1       28.557 -19.683   5.750  0.00  0.00    +0.000 A 
ATOM     18  C   LIG    1       27.204 -19.936   5.521  0.00  0.00    +0.005 A 
ENDBRANCH  12  13
ENDBRANCH   1  12
BRANCH   1  19
ATOM     19  C   LIG    1       23.694 -20.955   4.186  0.00  0.00    +0.101 C 
BRANCH  19  20
ATOM     20  C   LIG    1       23.770 -19.429   4.019  0.00  0.00    +0.124 C 
ATOM     21 CL   LIG    1       22.284 -18.652   4.632  0.00  0.00    -0.124 Cl
ENDBRANCH  19  20
ENDBRANCH   1  19
TORSDOF 8
ENDMDL
