MODEL 1
REMARK VINA RESULT:      18.0      0.000      0.000
REMARK  Name = *****
REMARK                            x       y       z     vdW  Elec       q    Type
REMARK                         _______ _______ _______ _____ _____    ______ ____
ROOT
ATOM      1  C   LIG    1       25.892 -18.651   3.947  0.00  0.00    +0.015 C 
ATOM      2  C   LIG    1       27.220 -18.271   4.668  0.00  0.00    +0.018 C 
ATOM      3  C   LIG    1       25.389 -20.034   4.511  0.00  0.00    +0.128 C 
ATOM      4  C   LIG    1       24.686 -19.924   5.898  0.00  0.00    +0.022 C 
ATOM      5  C   LIG    1       25.304 -20.863   6.961  0.00  0.00    +0.010 C 
ATOM      6  C   LIG    1       23.108 -20.033   5.844  0.00  0.00    -0.014 C 
ATOM      7  C   LIG    1       22.394 -19.532   4.536  0.00  0.00    +0.071 C 
ATOM      8  C   LIG    1       21.120 -20.400   4.541  0.00  0.00    +0.138 C 
ATOM      9  O   LIG    1       20.156 -20.265   3.799  0.00  0.00    -0.297 OA
ATOM     10  C   LIG    1       21.215 -21.564   5.485  0.00  0.00    +0.075 C 
ATOM     11  C   LIG    1       22.260 -17.982   4.336  0.00  0.00    +0.018 C 
ATOM     12  C   LIG    1       21.037 -17.675   3.399  0.00  0.00    +0.016 C 
ATOM     13  C   LIG    1       21.931 -17.233   5.688  0.00  0.00    -0.004 C 
ATOM     14  C   LIG    1       22.096 -15.707   5.665  0.00  0.00    +0.008 C 
ATOM     15  C   LIG    1       22.619 -17.775   6.946  0.00  0.00    +0.004 C 
ATOM     16  C   LIG    1       23.524 -17.468   3.503  0.00  0.00    +0.184 C 
ATOM     17  C   LIG    1       22.497 -19.285   7.062  0.00  0.00    +0.008 C 
ATOM     18  C   LIG    1       22.676 -21.521   5.892  0.00  0.00    +0.015 C 
ATOM     19  C   LIG    1       24.913 -17.447   4.169  0.00  0.00    +0.058 C 
ENDROOT
BRANCH   1  21
ATOM     20  C   LIG    1       26.706 -19.863   1.814  0.00  0.00    +0.004 C 
ATOM     21  C   LIG    1       26.145 -18.818   2.440  0.00  0.00    -0.025 C 
ENDBRANCH   1  21
BRANCH   3  22
ATOM     22  O   LIG    1       26.502 -20.937   4.579  0.00  0.00    -0.391 OA
ATOM     23  H   LIG    1       27.309 -20.441   4.363  0.00  0.00    +0.210 HD
ENDBRANCH   3  22
BRANCH  16  24
ATOM     24  O   LIG    1       23.240 -16.102   3.079  0.00  0.00    -0.460 OA
BRANCH  24  25
ATOM     25  C   LIG    1       24.202 -15.159   3.286  0.00  0.00    +0.317 C 
ATOM     26  O   LIG    1       25.307 -15.150   2.764  0.00  0.00    -0.250 OA
BRANCH  25  27
ATOM     27  C   LIG    1       23.704 -14.090   4.228  0.00  0.00    +0.189 C 
BRANCH  27  28
ATOM     28  S   LIG    1       24.221 -12.416   3.744  0.00  0.00    -0.146 S 
BRANCH  28  29
ATOM     29  C   LIG    1       25.990 -12.440   4.244  0.00  0.00    +0.050 C 
ATOM     30  C   LIG    1       26.266 -13.379   5.431  0.00  0.00    +0.033 C 
ATOM     31  C   LIG    1       27.768 -13.665   5.607  0.00  0.00    +0.058 C 
ATOM     32  N   LIG    1       28.367 -14.237   4.400  0.00  0.00    -0.299 NA
ATOM     33  C   LIG    1       27.811 -15.504   3.960  0.00  0.00    +0.105 C 
ATOM     34  C   LIG    1       28.311 -13.138   3.429  0.00  0.00    +0.058 C 
ATOM     35  C   LIG    1       28.948 -12.021   4.267  0.00  0.00    +0.020 C 
ATOM     36  C   LIG    1       28.573 -12.363   5.716  0.00  0.00    +0.020 C 
ATOM     37  C   LIG    1       26.865 -12.784   3.022  0.00  0.00    +0.033 C 
ENDBRANCH  28  29
ENDBRANCH  27  28
ENDBRANCH  25  27
ENDBRANCH  24  25
ENDBRANCH  16  24
TORSDOF 7
ENDMDL
