MODEL 1
REMARK VINA RESULT:       0.7      0.000      0.000
REMARK  Name = *****
REMARK                            x       y       z     vdW  Elec       q    Type
REMARK                         _______ _______ _______ _____ _____    ______ ____
ROOT
ATOM      1  O   LIG    1       22.761 -15.500   5.223  0.00  0.00    -0.226 OA
ATOM      2  C   LIG    1       23.481 -16.012   4.380  0.00  0.00    +0.404 C 
ATOM      3  N   LIG    1       23.653 -17.367   4.202  0.00  0.00    -0.256 N 
ATOM      4  C   LIG    1       22.931 -18.315   5.053  0.00  0.00    +0.140 C 
ATOM      5  C   LIG    1       23.865 -19.432   5.546  0.00  0.00    -0.019 A 
ATOM      6  C   LIG    1       25.097 -19.699   4.906  0.00  0.00    -0.041 A 
ATOM      7  C   LIG    1       25.893 -20.771   5.334  0.00  0.00    +0.004 A 
ATOM      8  C   LIG    1       25.486 -21.572   6.397  0.00  0.00    +0.000 A 
ATOM      9  C   LIG    1       24.295 -21.289   7.061  0.00  0.00    +0.000 A 
ATOM     10  C   LIG    1       25.625 -18.782   3.831  0.00  0.00    +0.054 C 
ATOM     11  C   LIG    1       23.491 -20.227   6.641  0.00  0.00    +0.006 A 
ATOM     12  C   LIG    1       24.530 -17.944   3.187  0.00  0.00    +0.116 C 
ENDROOT
BRANCH   4  13
ATOM     13  C   LIG    1       21.664 -18.818   4.339  0.00  0.00    -0.022 A 
ATOM     14  C   LIG    1       21.272 -20.169   4.364  0.00  0.00    +0.006 A 
ATOM     15  C   LIG    1       20.125 -20.603   3.692  0.00  0.00    +0.000 A 
ATOM     16  C   LIG    1       19.350 -19.698   2.971  0.00  0.00    +0.000 A 
ATOM     17  C   LIG    1       19.731 -18.360   2.913  0.00  0.00    +0.000 A 
ATOM     18  C   LIG    1       20.879 -17.923   3.586  0.00  0.00    +0.006 A 
ENDBRANCH   4  13
BRANCH   2  19
ATOM     19  O   LIG    1       24.220 -15.299   3.491  0.00  0.00    -0.445 OA
BRANCH  19  20
ATOM     20  C   LIG    1       25.589 -15.031   3.834  0.00  0.00    +0.195 C 
ATOM     21  C   LIG    1       25.597 -13.714   4.639  0.00  0.00    +0.034 C 
ATOM     22  C   LIG    1       25.020 -12.587   3.762  0.00  0.00    +0.022 C 
ATOM     23  C   LIG    1       25.790 -12.535   2.432  0.00  0.00    +0.085 C 
ATOM     24  N   LIG    1       26.959 -13.443   2.441  0.00  0.00    -0.299 NA
ATOM     25  C   LIG    1       27.804 -13.127   3.615  0.00  0.00    +0.085 C 
ATOM     26  C   LIG    1       27.058 -13.357   4.941  0.00  0.00    +0.022 C 
ATOM     27  C   LIG    1       26.462 -14.841   2.571  0.00  0.00    +0.129 C 
ENDBRANCH  19  20
ENDBRANCH   2  19
TORSDOF 3
ENDMDL
MODEL 2
REMARK VINA RESULT:       1.9      0.749      1.605
REMARK  Name = *****
REMARK                            x       y       z     vdW  Elec       q    Type
REMARK                         _______ _______ _______ _____ _____    ______ ____
ROOT
ATOM      1  O   LIG    1       22.872 -15.440   5.105  0.00  0.00    -0.226 OA
ATOM      2  C   LIG    1       23.574 -15.981   4.265  0.00  0.00    +0.404 C 
ATOM      3  N   LIG    1       23.726 -17.342   4.117  0.00  0.00    -0.256 N 
ATOM      4  C   LIG    1       23.002 -18.260   5.001  0.00  0.00    +0.140 C 
ATOM      5  C   LIG    1       23.929 -19.377   5.508  0.00  0.00    -0.019 A 
ATOM      6  C   LIG    1       25.148 -19.676   4.859  0.00  0.00    -0.041 A 
ATOM      7  C   LIG    1       25.936 -20.748   5.302  0.00  0.00    +0.004 A 
ATOM      8  C   LIG    1       25.533 -21.517   6.389  0.00  0.00    +0.000 A 
ATOM      9  C   LIG    1       24.355 -21.203   7.062  0.00  0.00    +0.000 A 
ATOM     10  C   LIG    1       25.674 -18.792   3.755  0.00  0.00    +0.054 C 
ATOM     11  C   LIG    1       23.558 -20.141   6.627  0.00  0.00    +0.006 A 
ATOM     12  C   LIG    1       24.581 -17.955   3.105  0.00  0.00    +0.116 C 
ENDROOT
BRANCH   4  13
ATOM     13  C   LIG    1       21.720 -18.764   4.315  0.00  0.00    -0.022 A 
ATOM     14  C   LIG    1       20.887 -17.918   3.560  0.00  0.00    +0.006 A 
ATOM     15  C   LIG    1       19.718 -18.397   2.962  0.00  0.00    +0.000 A 
ATOM     16  C   LIG    1       19.350 -19.731   3.113  0.00  0.00    +0.000 A 
ATOM     17  C   LIG    1       20.146 -20.583   3.874  0.00  0.00    +0.000 A 
ATOM     18  C   LIG    1       21.318 -20.104   4.475  0.00  0.00    +0.006 A 
ENDBRANCH   4  13
BRANCH   2  19
ATOM     19  O   LIG    1       24.309 -15.299   3.350  0.00  0.00    -0.445 OA
BRANCH  19  20
ATOM     20  C   LIG    1       24.885 -14.050   3.764  0.00  0.00    +0.195 C 
ATOM     21  C   LIG    1       25.879 -13.630   2.659  0.00  0.00    +0.034 C 
ATOM     22  C   LIG    1       26.962 -14.716   2.521  0.00  0.00    +0.022 C 
ATOM     23  C   LIG    1       27.599 -14.975   3.896  0.00  0.00    +0.085 C 
ATOM     24  N   LIG    1       27.128 -14.004   4.909  0.00  0.00    -0.299 NA
ATOM     25  C   LIG    1       27.366 -12.632   4.408  0.00  0.00    +0.085 C 
ATOM     26  C   LIG    1       26.576 -12.344   3.119  0.00  0.00    +0.022 C 
ATOM     27  C   LIG    1       25.662 -14.198   5.094  0.00  0.00    +0.129 C 
ENDBRANCH  19  20
ENDBRANCH   2  19
TORSDOF 3
ENDMDL
