MODEL 1
REMARK VINA RESULT:      -8.7      0.000      0.000
REMARK  Name = *****
REMARK                            x       y       z     vdW  Elec       q    Type
REMARK                         _______ _______ _______ _____ _____    ______ ____
ROOT
ATOM      1  C   LIG    1       24.934 -24.840   6.514  0.00  0.00    -0.021 C 
ATOM      2  C   LIG    1       25.008 -23.443   6.835  0.00  0.00    +0.003 C 
ATOM      3  C   LIG    1       23.709 -22.945   6.902  0.00  0.00    +0.047 C 
ATOM      4  C   LIG    1       23.419 -21.630   7.295  0.00  0.00    +0.026 C 
ATOM      5  C   LIG    1       24.492 -20.802   7.656  0.00  0.00    +0.007 C 
ATOM      6  C   LIG    1       25.814 -21.259   7.588  0.00  0.00    -0.024 C 
ATOM      7  N   LIG    1       22.874 -23.974   6.534  0.00  0.00    -0.360 NA
ATOM      8  H   LIG    1       21.868 -23.902   6.477  0.00  0.00    +0.165 HD
ATOM      9  C   LIG    1       26.069 -22.567   7.130  0.00  0.00    +0.015 C 
ATOM     10  C   LIG    1       23.595 -25.122   6.327  0.00  0.00    +0.087 C 
ENDROOT
BRANCH   1  11
ATOM     11  C   LIG    1       26.066 -25.833   6.518  0.00  0.00    +0.052 C 
BRANCH  11  12
ATOM     12  C   LIG    1       26.004 -26.893   5.398  0.00  0.00    +0.088 C 
BRANCH  12  14
ATOM     13  C   LIG    1       25.459 -28.280   7.320  0.00  0.00    +0.104 C 
ATOM     14  N   LIG    1       25.549 -28.230   5.857  0.00  0.00    -0.308 NA
ATOM     15  C   LIG    1       24.262 -28.620   5.278  0.00  0.00    +0.104 C 
ENDBRANCH  12  14
ENDBRANCH  11  12
ENDBRANCH   1  11
BRANCH   6  16
ATOM     16  C   LIG    1       26.966 -20.375   7.996  0.00  0.00    +0.220 C 
BRANCH  16  17
ATOM     17  S   LIG    1       28.210 -20.363   6.680  0.00  0.00    +0.036 S 
ATOM     18  O   LIG    1       27.617 -19.972   5.414  0.00  0.00    -0.158 OA
ATOM     19  O   LIG    1       29.039 -21.557   6.787  0.00  0.00    -0.158 OA
BRANCH  17  20
ATOM     20  N   LIG    1       29.196 -19.065   7.163  0.00  0.00    -0.181 NA
ATOM     21  C   LIG    1       29.356 -18.927   8.637  0.00  0.00    +0.109 C 
ATOM     22  C   LIG    1       30.750 -18.350   8.821  0.00  0.00    +0.018 C 
ATOM     23  C   LIG    1       31.530 -18.981   7.688  0.00  0.00    +0.018 C 
ATOM     24  C   LIG    1       30.541 -18.980   6.535  0.00  0.00    +0.109 C 
ENDBRANCH  17  20
ENDBRANCH  16  17
ENDBRANCH   6  16
TORSDOF 6
ENDMDL
MODEL 2
REMARK VINA RESULT:      -8.5      2.589      4.380
REMARK  Name = *****
REMARK                            x       y       z     vdW  Elec       q    Type
REMARK                         _______ _______ _______ _____ _____    ______ ____
ROOT
ATOM      1  C   LIG    1       25.518 -20.660   6.199  0.00  0.00    -0.021 C 
ATOM      2  C   LIG    1       26.873 -20.315   6.522  0.00  0.00    +0.003 C 
ATOM      3  C   LIG    1       27.455 -19.746   5.392  0.00  0.00    +0.047 C 
ATOM      4  C   LIG    1       28.749 -19.203   5.397  0.00  0.00    +0.026 C 
ATOM      5  C   LIG    1       29.463 -19.221   6.603  0.00  0.00    +0.007 C 
ATOM      6  C   LIG    1       28.920 -19.798   7.758  0.00  0.00    -0.024 C 
ATOM      7  N   LIG    1       26.524 -19.834   4.384  0.00  0.00    -0.360 NA
ATOM      8  H   LIG    1       26.673 -19.511   3.438  0.00  0.00    +0.165 HD
ATOM      9  C   LIG    1       27.642 -20.387   7.699  0.00  0.00    +0.015 C 
ATOM     10  C   LIG    1       25.350 -20.354   4.864  0.00  0.00    +0.087 C 
ENDROOT
BRANCH   1  11
ATOM     11  C   LIG    1       24.449 -21.129   7.152  0.00  0.00    +0.052 C 
BRANCH  11  12
ATOM     12  C   LIG    1       24.627 -22.572   7.667  0.00  0.00    +0.088 C 
BRANCH  12  14
ATOM     13  C   LIG    1       25.890 -24.427   6.728  0.00  0.00    +0.104 C 
ATOM     14  N   LIG    1       24.689 -23.594   6.592  0.00  0.00    -0.308 NA
ATOM     15  C   LIG    1       23.505 -24.453   6.557  0.00  0.00    +0.104 C 
ENDBRANCH  12  14
ENDBRANCH  11  12
ENDBRANCH   1  11
BRANCH   6  16
ATOM     16  C   LIG    1       29.681 -19.797   9.061  0.00  0.00    +0.220 C 
BRANCH  16  17
ATOM     17  S   LIG    1       31.458 -19.840   8.719  0.00  0.00    +0.036 S 
ATOM     18  O   LIG    1       31.722 -19.540   7.324  0.00  0.00    -0.158 OA
ATOM     19  O   LIG    1       32.046 -21.007   9.363  0.00  0.00    -0.158 OA
BRANCH  17  20
ATOM     20  N   LIG    1       32.002 -18.495   9.604  0.00  0.00    -0.181 NA
ATOM     21  C   LIG    1       32.307 -17.295   8.777  0.00  0.00    +0.109 C 
ATOM     22  C   LIG    1       31.987 -16.114   9.679  0.00  0.00    +0.018 C 
ATOM     23  C   LIG    1       30.813 -16.617  10.492  0.00  0.00    +0.018 C 
ATOM     24  C   LIG    1       31.165 -18.071  10.756  0.00  0.00    +0.109 C 
ENDBRANCH  17  20
ENDBRANCH  16  17
ENDBRANCH   6  16
TORSDOF 6
ENDMDL
MODEL 3
REMARK VINA RESULT:      -8.2      2.742      7.813
REMARK  Name = *****
REMARK                            x       y       z     vdW  Elec       q    Type
REMARK                         _______ _______ _______ _____ _____    ______ ____
ROOT
ATOM      1  C   LIG    1       26.795 -21.485   7.654  0.00  0.00    -0.021 C 
ATOM      2  C   LIG    1       25.801 -22.429   7.227  0.00  0.00    +0.003 C 
ATOM      3  C   LIG    1       24.554 -21.950   7.618  0.00  0.00    +0.047 C 
ATOM      4  C   LIG    1       23.353 -22.584   7.267  0.00  0.00    +0.026 C 
ATOM      5  C   LIG    1       23.428 -23.734   6.468  0.00  0.00    +0.007 C 
ATOM      6  C   LIG    1       24.664 -24.258   6.067  0.00  0.00    -0.024 C 
ATOM      7  N   LIG    1       24.783 -20.807   8.348  0.00  0.00    -0.360 NA
ATOM      8  H   LIG    1       24.059 -20.246   8.775  0.00  0.00    +0.165 HD
ATOM      9  C   LIG    1       25.849 -23.627   6.490  0.00  0.00    +0.015 C 
ATOM     10  C   LIG    1       26.119 -20.504   8.353  0.00  0.00    +0.087 C 
ENDROOT
BRANCH   1  11
ATOM     11  C   LIG    1       28.258 -21.485   7.298  0.00  0.00    +0.052 C 
BRANCH  11  12
ATOM     12  C   LIG    1       28.906 -20.087   7.214  0.00  0.00    +0.088 C 
BRANCH  12  14
ATOM     13  C   LIG    1       30.821 -20.750   8.559  0.00  0.00    +0.104 C 
ATOM     14  N   LIG    1       29.765 -19.749   8.377  0.00  0.00    -0.308 NA
ATOM     15  C   LIG    1       30.369 -18.420   8.268  0.00  0.00    +0.104 C 
ENDBRANCH  12  14
ENDBRANCH  11  12
ENDBRANCH   1  11
BRANCH   6  16
ATOM     16  C   LIG    1       24.743 -25.483   5.191  0.00  0.00    +0.220 C 
BRANCH  16  17
ATOM     17  S   LIG    1       25.848 -26.697   5.954  0.00  0.00    +0.036 S 
ATOM     18  O   LIG    1       26.013 -26.426   7.370  0.00  0.00    -0.158 OA
ATOM     19  O   LIG    1       27.001 -26.912   5.089  0.00  0.00    -0.158 OA
BRANCH  17  20
ATOM     20  N   LIG    1       24.915 -28.113   5.848  0.00  0.00    -0.181 NA
ATOM     21  C   LIG    1       25.539 -29.204   5.048  0.00  0.00    +0.109 C 
ATOM     22  C   LIG    1       25.043 -30.488   5.693  0.00  0.00    +0.018 C 
ATOM     23  C   LIG    1       24.951 -30.117   7.158  0.00  0.00    +0.018 C 
ATOM     24  C   LIG    1       24.429 -28.691   7.128  0.00  0.00    +0.109 C 
ENDBRANCH  17  20
ENDBRANCH  16  17
ENDBRANCH   6  16
TORSDOF 6
ENDMDL
MODEL 4
REMARK VINA RESULT:      -8.0      2.739      7.656
REMARK  Name = *****
REMARK                            x       y       z     vdW  Elec       q    Type
REMARK                         _______ _______ _______ _____ _____    ______ ____
ROOT
ATOM      1  C   LIG    1       25.441 -21.176   7.455  0.00  0.00    -0.021 C 
ATOM      2  C   LIG    1       25.068 -22.548   7.268  0.00  0.00    +0.003 C 
ATOM      3  C   LIG    1       23.705 -22.590   6.983  0.00  0.00    +0.047 C 
ATOM      4  C   LIG    1       23.036 -23.776   6.645  0.00  0.00    +0.026 C 
ATOM      5  C   LIG    1       23.790 -24.956   6.573  0.00  0.00    +0.007 C 
ATOM      6  C   LIG    1       25.159 -24.960   6.868  0.00  0.00    -0.024 C 
ATOM      7  N   LIG    1       23.241 -21.300   7.093  0.00  0.00    -0.360 NA
ATOM      8  H   LIG    1       22.278 -21.024   6.953  0.00  0.00    +0.165 HD
ATOM      9  C   LIG    1       25.783 -23.760   7.262  0.00  0.00    +0.015 C 
ATOM     10  C   LIG    1       24.278 -20.441   7.348  0.00  0.00    +0.087 C 
ENDROOT
BRANCH   1  11
ATOM     11  C   LIG    1       26.837 -20.627   7.600  0.00  0.00    +0.052 C 
BRANCH  11  12
ATOM     12  C   LIG    1       27.563 -20.339   6.270  0.00  0.00    +0.088 C 
BRANCH  12  14
ATOM     13  C   LIG    1       29.468 -18.830   6.181  0.00  0.00    +0.104 C 
ATOM     14  N   LIG    1       29.037 -20.214   6.400  0.00  0.00    -0.308 NA
ATOM     15  C   LIG    1       29.531 -20.676   7.698  0.00  0.00    +0.104 C 
ENDBRANCH  12  14
ENDBRANCH  11  12
ENDBRANCH   1  11
BRANCH   6  16
ATOM     16  C   LIG    1       25.974 -26.226   6.770  0.00  0.00    +0.220 C 
BRANCH  16  17
ATOM     17  S   LIG    1       25.949 -26.825   5.062  0.00  0.00    +0.036 S 
ATOM     18  O   LIG    1       27.263 -27.294   4.661  0.00  0.00    -0.158 OA
ATOM     19  O   LIG    1       25.196 -25.893   4.233  0.00  0.00    -0.158 OA
BRANCH  17  20
ATOM     20  N   LIG    1       24.975 -28.211   5.207  0.00  0.00    -0.181 NA
ATOM     21  C   LIG    1       25.681 -29.492   4.926  0.00  0.00    +0.109 C 
ATOM     22  C   LIG    1       24.994 -30.514   5.818  0.00  0.00    +0.018 C 
ATOM     23  C   LIG    1       24.638 -29.705   7.047  0.00  0.00    +0.018 C 
ATOM     24  C   LIG    1       24.214 -28.363   6.475  0.00  0.00    +0.109 C 
ENDBRANCH  17  20
ENDBRANCH  16  17
ENDBRANCH   6  16
TORSDOF 6
ENDMDL
MODEL 5
REMARK VINA RESULT:      -8.0      2.403      8.545
REMARK  Name = *****
REMARK                            x       y       z     vdW  Elec       q    Type
REMARK                         _______ _______ _______ _____ _____    ______ ____
ROOT
ATOM      1  C   LIG    1       30.429 -18.366   8.464  0.00  0.00    -0.021 C 
ATOM      2  C   LIG    1       29.411 -19.315   8.115  0.00  0.00    +0.003 C 
ATOM      3  C   LIG    1       29.976 -20.260   7.262  0.00  0.00    +0.047 C 
ATOM      4  C   LIG    1       29.276 -21.390   6.812  0.00  0.00    +0.026 C 
ATOM      5  C   LIG    1       27.962 -21.572   7.267  0.00  0.00    +0.007 C 
ATOM      6  C   LIG    1       27.353 -20.637   8.113  0.00  0.00    -0.024 C 
ATOM      7  N   LIG    1       31.264 -19.848   7.016  0.00  0.00    -0.360 NA
ATOM      8  H   LIG    1       31.916 -20.334   6.416  0.00  0.00    +0.165 HD
ATOM      9  C   LIG    1       28.067 -19.485   8.495  0.00  0.00    +0.015 C 
ATOM     10  C   LIG    1       31.555 -18.729   7.753  0.00  0.00    +0.087 C 
ENDROOT
BRANCH   1  11
ATOM     11  C   LIG    1       30.338 -17.277   9.501  0.00  0.00    +0.052 C 
BRANCH  11  12
ATOM     12  C   LIG    1       30.794 -17.688  10.916  0.00  0.00    +0.088 C 
BRANCH  12  14
ATOM     13  C   LIG    1       32.697 -16.319  10.266  0.00  0.00    +0.104 C 
ATOM     14  N   LIG    1       32.187 -17.290  11.241  0.00  0.00    -0.308 NA
ATOM     15  C   LIG    1       32.319 -16.737  12.590  0.00  0.00    +0.104 C 
ENDBRANCH  12  14
ENDBRANCH  11  12
ENDBRANCH   1  11
BRANCH   6  16
ATOM     16  C   LIG    1       25.947 -20.845   8.619  0.00  0.00    +0.220 C 
BRANCH  16  17
ATOM     17  S   LIG    1       24.854 -21.212   7.223  0.00  0.00    +0.036 S 
ATOM     18  O   LIG    1       25.534 -20.985   5.962  0.00  0.00    -0.158 OA
ATOM     19  O   LIG    1       23.536 -20.646   7.481  0.00  0.00    -0.158 OA
BRANCH  17  20
ATOM     20  N   LIG    1       24.676 -22.896   7.370  0.00  0.00    -0.181 NA
ATOM     21  C   LIG    1       23.398 -23.430   6.824  0.00  0.00    +0.109 C 
ATOM     22  C   LIG    1       23.745 -24.825   6.327  0.00  0.00    +0.018 C 
ATOM     23  C   LIG    1       25.167 -24.664   5.833  0.00  0.00    +0.018 C 
ATOM     24  C   LIG    1       25.792 -23.733   6.857  0.00  0.00    +0.109 C 
ENDBRANCH  17  20
ENDBRANCH  16  17
ENDBRANCH   6  16
TORSDOF 6
ENDMDL
MODEL 6
REMARK VINA RESULT:      -8.0      2.485      4.498
REMARK  Name = *****
REMARK                            x       y       z     vdW  Elec       q    Type
REMARK                         _______ _______ _______ _____ _____    ______ ____
ROOT
ATOM      1  C   LIG    1       22.987 -20.860   5.999  0.00  0.00    -0.021 C 
ATOM      2  C   LIG    1       24.159 -21.192   6.758  0.00  0.00    +0.003 C 
ATOM      3  C   LIG    1       24.269 -22.580   6.798  0.00  0.00    +0.047 C 
ATOM      4  C   LIG    1       25.364 -23.237   7.378  0.00  0.00    +0.026 C 
ATOM      5  C   LIG    1       26.394 -22.450   7.913  0.00  0.00    +0.007 C 
ATOM      6  C   LIG    1       26.314 -21.052   7.907  0.00  0.00    -0.024 C 
ATOM      7  N   LIG    1       23.151 -23.081   6.175  0.00  0.00    -0.360 NA
ATOM      8  H   LIG    1       22.949 -24.065   6.065  0.00  0.00    +0.165 HD
ATOM      9  C   LIG    1       25.171 -20.429   7.370  0.00  0.00    +0.015 C 
ATOM     10  C   LIG    1       22.390 -22.060   5.668  0.00  0.00    +0.087 C 
ENDROOT
BRANCH   1  11
ATOM     11  C   LIG    1       22.565 -19.491   5.534  0.00  0.00    +0.052 C 
BRANCH  11  12
ATOM     12  C   LIG    1       23.093 -19.086   4.142  0.00  0.00    +0.088 C 
BRANCH  12  14
ATOM     13  C   LIG    1       24.646 -20.567   2.998  0.00  0.00    +0.104 C 
ATOM     14  N   LIG    1       24.520 -19.429   3.914  0.00  0.00    -0.308 NA
ATOM     15  C   LIG    1       25.298 -18.302   3.397  0.00  0.00    +0.104 C 
ENDBRANCH  12  14
ENDBRANCH  11  12
ENDBRANCH   1  11
BRANCH   6  16
ATOM     16  C   LIG    1       27.432 -20.206   8.464  0.00  0.00    +0.220 C 
BRANCH  16  17
ATOM     17  S   LIG    1       28.974 -20.605   7.604  0.00  0.00    +0.036 S 
ATOM     18  O   LIG    1       28.722 -20.906   6.207  0.00  0.00    -0.158 OA
ATOM     19  O   LIG    1       29.774 -21.496   8.435  0.00  0.00    -0.158 OA
BRANCH  17  20
ATOM     20  N   LIG    1       29.771 -19.104   7.630  0.00  0.00    -0.181 NA
ATOM     21  C   LIG    1       29.615 -18.344   8.902  0.00  0.00    +0.109 C 
ATOM     22  C   LIG    1       30.909 -17.560   9.043  0.00  0.00    +0.018 C 
ATOM     23  C   LIG    1       31.938 -18.493   8.442  0.00  0.00    +0.018 C 
ATOM     24  C   LIG    1       31.210 -19.105   7.258  0.00  0.00    +0.109 C 
ENDBRANCH  17  20
ENDBRANCH  16  17
ENDBRANCH   6  16
TORSDOF 6
ENDMDL
MODEL 7
REMARK VINA RESULT:      -8.0      2.531      7.754
REMARK  Name = *****
REMARK                            x       y       z     vdW  Elec       q    Type
REMARK                         _______ _______ _______ _____ _____    ______ ____
ROOT
ATOM      1  C   LIG    1       29.530 -19.526   7.348  0.00  0.00    -0.021 C 
ATOM      2  C   LIG    1       28.195 -19.897   6.976  0.00  0.00    +0.003 C 
ATOM      3  C   LIG    1       27.976 -19.472   5.668  0.00  0.00    +0.047 C 
ATOM      4  C   LIG    1       26.801 -19.767   4.960  0.00  0.00    +0.026 C 
ATOM      5  C   LIG    1       25.826 -20.544   5.603  0.00  0.00    +0.007 C 
ATOM      6  C   LIG    1       26.000 -20.977   6.923  0.00  0.00    -0.024 C 
ATOM      7  N   LIG    1       29.099 -18.776   5.288  0.00  0.00    -0.360 NA
ATOM      8  H   LIG    1       29.222 -18.335   4.386  0.00  0.00    +0.165 HD
ATOM      9  C   LIG    1       27.167 -20.609   7.621  0.00  0.00    +0.015 C 
ATOM     10  C   LIG    1       30.048 -18.825   6.276  0.00  0.00    +0.087 C 
ENDROOT
BRANCH   1  11
ATOM     11  C   LIG    1       30.272 -19.934   8.593  0.00  0.00    +0.052 C 
BRANCH  11  12
ATOM     12  C   LIG    1       31.680 -19.320   8.741  0.00  0.00    +0.088 C 
BRANCH  12  14
ATOM     13  C   LIG    1       32.265 -17.015   9.248  0.00  0.00    +0.104 C 
ATOM     14  N   LIG    1       31.779 -18.284   9.800  0.00  0.00    -0.308 NA
ATOM     15  C   LIG    1       30.509 -18.057  10.492  0.00  0.00    +0.104 C 
ENDBRANCH  12  14
ENDBRANCH  11  12
ENDBRANCH   1  11
BRANCH   6  16
ATOM     16  C   LIG    1       24.960 -21.829   7.607  0.00  0.00    +0.220 C 
BRANCH  16  17
ATOM     17  S   LIG    1       24.056 -22.786   6.364  0.00  0.00    +0.036 S 
ATOM     18  O   LIG    1       23.731 -21.962   5.215  0.00  0.00    -0.158 OA
ATOM     19  O   LIG    1       23.039 -23.596   7.023  0.00  0.00    -0.158 OA
BRANCH  17  20
ATOM     20  N   LIG    1       25.253 -23.875   5.843  0.00  0.00    -0.181 NA
ATOM     21  C   LIG    1       25.842 -24.709   6.928  0.00  0.00    +0.109 C 
ATOM     22  C   LIG    1       26.203 -26.022   6.252  0.00  0.00    +0.018 C 
ATOM     23  C   LIG    1       25.109 -26.181   5.217  0.00  0.00    +0.018 C 
ATOM     24  C   LIG    1       24.897 -24.766   4.708  0.00  0.00    +0.109 C 
ENDBRANCH  17  20
ENDBRANCH  16  17
ENDBRANCH   6  16
TORSDOF 6
ENDMDL
MODEL 8
REMARK VINA RESULT:      -7.7      3.979      5.536
REMARK  Name = *****
REMARK                            x       y       z     vdW  Elec       q    Type
REMARK                         _______ _______ _______ _____ _____    ______ ____
ROOT
ATOM      1  C   LIG    1       25.321 -28.740   7.225  0.00  0.00    -0.021 C 
ATOM      2  C   LIG    1       25.390 -27.463   6.572  0.00  0.00    +0.003 C 
ATOM      3  C   LIG    1       25.132 -27.656   5.217  0.00  0.00    +0.047 C 
ATOM      4  C   LIG    1       25.023 -26.594   4.307  0.00  0.00    +0.026 C 
ATOM      5  C   LIG    1       25.158 -25.289   4.802  0.00  0.00    +0.007 C 
ATOM      6  C   LIG    1       25.434 -25.053   6.155  0.00  0.00    -0.024 C 
ATOM      7  N   LIG    1       25.011 -29.013   5.029  0.00  0.00    -0.360 NA
ATOM      8  H   LIG    1       24.834 -29.454   4.137  0.00  0.00    +0.165 HD
ATOM      9  C   LIG    1       25.596 -26.148   7.026  0.00  0.00    +0.015 C 
ATOM     10  C   LIG    1       25.094 -29.669   6.229  0.00  0.00    +0.087 C 
ENDROOT
BRANCH   1  11
ATOM     11  C   LIG    1       25.348 -29.003   8.707  0.00  0.00    +0.052 C 
BRANCH  11  12
ATOM     12  C   LIG    1       26.599 -28.475   9.438  0.00  0.00    +0.088 C 
BRANCH  12  14
ATOM     13  C   LIG    1       27.696 -29.406  11.399  0.00  0.00    +0.104 C 
ATOM     14  N   LIG    1       27.494 -29.542   9.952  0.00  0.00    -0.308 NA
ATOM     15  C   LIG    1       27.000 -30.888   9.656  0.00  0.00    +0.104 C 
ENDBRANCH  12  14
ENDBRANCH  11  12
ENDBRANCH   1  11
BRANCH   6  16
ATOM     16  C   LIG    1       25.558 -23.649   6.691  0.00  0.00    +0.220 C 
BRANCH  16  17
ATOM     17  S   LIG    1       23.907 -22.940   6.908  0.00  0.00    +0.036 S 
ATOM     18  O   LIG    1       23.905 -21.953   7.972  0.00  0.00    -0.158 OA
ATOM     19  O   LIG    1       22.914 -24.006   6.867  0.00  0.00    -0.158 OA
BRANCH  17  20
ATOM     20  N   LIG    1       23.720 -22.073   5.458  0.00  0.00    -0.181 NA
ATOM     21  C   LIG    1       22.654 -21.034   5.494  0.00  0.00    +0.109 C 
ATOM     22  C   LIG    1       23.147 -19.943   4.556  0.00  0.00    +0.018 C 
ATOM     23  C   LIG    1       24.648 -19.982   4.751  0.00  0.00    +0.018 C 
ATOM     24  C   LIG    1       24.948 -21.466   4.880  0.00  0.00    +0.109 C 
ENDBRANCH  17  20
ENDBRANCH  16  17
ENDBRANCH   6  16
TORSDOF 6
ENDMDL
MODEL 9
REMARK VINA RESULT:      -7.7      3.043      5.325
REMARK  Name = *****
REMARK                            x       y       z     vdW  Elec       q    Type
REMARK                         _______ _______ _______ _____ _____    ______ ____
ROOT
ATOM      1  C   LIG    1       25.294 -29.458   7.638  0.00  0.00    -0.021 C 
ATOM      2  C   LIG    1       25.430 -28.232   6.904  0.00  0.00    +0.003 C 
ATOM      3  C   LIG    1       25.066 -28.477   5.582  0.00  0.00    +0.047 C 
ATOM      4  C   LIG    1       24.988 -27.463   4.616  0.00  0.00    +0.026 C 
ATOM      5  C   LIG    1       25.268 -26.149   5.020  0.00  0.00    +0.007 C 
ATOM      6  C   LIG    1       25.653 -25.863   6.336  0.00  0.00    -0.024 C 
ATOM      7  N   LIG    1       24.817 -29.826   5.487  0.00  0.00    -0.360 NA
ATOM      8  H   LIG    1       24.543 -30.299   4.636  0.00  0.00    +0.165 HD
ATOM      9  C   LIG    1       25.779 -26.917   7.262  0.00  0.00    +0.015 C 
ATOM     10  C   LIG    1       24.923 -30.419   6.718  0.00  0.00    +0.087 C 
ENDROOT
BRANCH   1  11
ATOM     11  C   LIG    1       25.397 -29.639   9.129  0.00  0.00    +0.052 C 
BRANCH  11  12
ATOM     12  C   LIG    1       26.778 -30.106   9.633  0.00  0.00    +0.088 C 
BRANCH  12  14
ATOM     13  C   LIG    1       26.675 -27.973  10.798  0.00  0.00    +0.104 C 
ATOM     14  N   LIG    1       27.555 -29.051  10.332  0.00  0.00    -0.308 NA
ATOM     15  C   LIG    1       28.326 -29.570  11.463  0.00  0.00    +0.104 C 
ENDBRANCH  12  14
ENDBRANCH  11  12
ENDBRANCH   1  11
BRANCH   6  16
ATOM     16  C   LIG    1       25.934 -24.448   6.775  0.00  0.00    +0.220 C 
BRANCH  16  17
ATOM     17  S   LIG    1       24.533 -23.391   6.327  0.00  0.00    +0.036 S 
ATOM     18  O   LIG    1       23.289 -23.946   6.825  0.00  0.00    -0.158 OA
ATOM     19  O   LIG    1       24.669 -22.972   4.938  0.00  0.00    -0.158 OA
BRANCH  17  20
ATOM     20  N   LIG    1       24.844 -22.007   7.264  0.00  0.00    -0.181 NA
ATOM     21  C   LIG    1       25.837 -22.212   8.355  0.00  0.00    +0.109 C 
ATOM     22  C   LIG    1       26.532 -20.867   8.501  0.00  0.00    +0.018 C 
ATOM     23  C   LIG    1       26.555 -20.343   7.082  0.00  0.00    +0.018 C 
ATOM     24  C   LIG    1       25.207 -20.769   6.526  0.00  0.00    +0.109 C 
ENDBRANCH  17  20
ENDBRANCH  16  17
ENDBRANCH   6  16
TORSDOF 6
ENDMDL
