MODEL 1
REMARK VINA RESULT:      -3.2      0.000      0.000
REMARK  Name = *****
REMARK                            x       y       z     vdW  Elec       q    Type
REMARK                         _______ _______ _______ _____ _____    ______ ____
ROOT
ATOM      1  O   LIG    1       26.442 -15.827   3.239  0.00  0.00    -0.248 OA
ATOM      2  C   LIG    1       26.929 -14.730   3.027  0.00  0.00    +0.331 C 
ENDROOT
BRANCH   2   3
ATOM      3  O   LIG    1       26.823 -14.078   1.840  0.00  0.00    -0.479 OA
ATOM      4  H   LIG    1       25.881 -13.812   1.720  0.00  0.00    +0.295 HD
ENDBRANCH   2   3
BRANCH   2   5
ATOM      5  C   LIG    1       27.706 -13.907   4.043  0.00  0.00    +0.276 C 
BRANCH   5   6
ATOM      6  O   LIG    1       28.723 -13.155   3.371  0.00  0.00    -0.384 OA
ATOM      7  H   LIG    1       28.324 -12.833   2.540  0.00  0.00    +0.210 HD
ENDBRANCH   5   6
ENDBRANCH   2   5
TORSDOF 3
ENDMDL
MODEL 2
REMARK VINA RESULT:      -3.2      0.182      1.436
REMARK  Name = *****
REMARK                            x       y       z     vdW  Elec       q    Type
REMARK                         _______ _______ _______ _____ _____    ______ ____
ROOT
ATOM      1  O   LIG    1       26.508 -14.145   1.861  0.00  0.00    -0.248 OA
ATOM      2  C   LIG    1       26.865 -14.653   2.910  0.00  0.00    +0.331 C 
ENDROOT
BRANCH   2   3
ATOM      3  O   LIG    1       26.546 -15.921   3.278  0.00  0.00    -0.479 OA
ATOM      4  H   LIG    1       25.595 -15.934   3.539  0.00  0.00    +0.295 HD
ENDBRANCH   2   3
BRANCH   2   5
ATOM      5  C   LIG    1       27.732 -13.974   3.959  0.00  0.00    +0.276 C 
BRANCH   5   6
ATOM      6  O   LIG    1       28.695 -13.134   3.313  0.00  0.00    -0.384 OA
ATOM      7  H   LIG    1       28.840 -12.372   3.906  0.00  0.00    +0.210 HD
ENDBRANCH   5   6
ENDBRANCH   2   5
TORSDOF 3
ENDMDL
MODEL 3
REMARK VINA RESULT:      -3.1      1.138      2.672
REMARK  Name = *****
REMARK                            x       y       z     vdW  Elec       q    Type
REMARK                         _______ _______ _______ _____ _____    ______ ____
ROOT
ATOM      1  O   LIG    1       28.916 -12.932   3.904  0.00  0.00    -0.248 OA
ATOM      2  C   LIG    1       28.010 -13.704   3.639  0.00  0.00    +0.331 C 
ENDROOT
BRANCH   2   3
ATOM      3  O   LIG    1       27.982 -14.999   4.046  0.00  0.00    -0.479 OA
ATOM      4  H   LIG    1       27.541 -15.532   3.343  0.00  0.00    +0.295 HD
ENDBRANCH   2   3
BRANCH   2   5
ATOM      5  C   LIG    1       26.766 -13.348   2.839  0.00  0.00    +0.276 C 
BRANCH   5   6
ATOM      6  O   LIG    1       26.563 -14.325   1.812  0.00  0.00    -0.384 OA
ATOM      7  H   LIG    1       26.836 -15.183   2.190  0.00  0.00    +0.210 HD
ENDBRANCH   5   6
ENDBRANCH   2   5
TORSDOF 3
ENDMDL
MODEL 4
REMARK VINA RESULT:      -3.1      1.413      1.937
REMARK  Name = *****
REMARK                            x       y       z     vdW  Elec       q    Type
REMARK                         _______ _______ _______ _____ _____    ______ ____
ROOT
ATOM      1  O   LIG    1       26.716 -14.253   1.989  0.00  0.00    -0.248 OA
ATOM      2  C   LIG    1       27.110 -13.771   3.038  0.00  0.00    +0.331 C 
ENDROOT
BRANCH   2   3
ATOM      3  O   LIG    1       28.358 -13.264   3.210  0.00  0.00    -0.479 OA
ATOM      4  H   LIG    1       28.285 -12.282   3.265  0.00  0.00    +0.295 HD
ENDBRANCH   2   3
BRANCH   2   5
ATOM      5  C   LIG    1       26.278 -13.637   4.304  0.00  0.00    +0.276 C 
BRANCH   5   6
ATOM      6  O   LIG    1       27.114 -13.195   5.380  0.00  0.00    -0.384 OA
ATOM      7  H   LIG    1       27.541 -12.371   5.077  0.00  0.00    +0.210 HD
ENDBRANCH   5   6
ENDBRANCH   2   5
TORSDOF 3
ENDMDL
MODEL 5
REMARK VINA RESULT:      -2.9      1.305      1.305
REMARK  Name = *****
REMARK                            x       y       z     vdW  Elec       q    Type
REMARK                         _______ _______ _______ _____ _____    ______ ____
ROOT
ATOM      1  O   LIG    1       26.407 -15.926   3.214  0.00  0.00    -0.248 OA
ATOM      2  C   LIG    1       26.865 -14.804   3.080  0.00  0.00    +0.331 C 
ENDROOT
BRANCH   2   3
ATOM      3  O   LIG    1       26.863 -14.128   1.902  0.00  0.00    -0.479 OA
ATOM      4  H   LIG    1       26.132 -14.485   1.345  0.00  0.00    +0.295 HD
ENDBRANCH   2   3
BRANCH   2   5
ATOM      5  C   LIG    1       27.487 -13.975   4.193  0.00  0.00    +0.276 C 
BRANCH   5   6
ATOM      6  O   LIG    1       26.478 -13.623   5.147  0.00  0.00    -0.384 OA
ATOM      7  H   LIG    1       26.123 -12.758   4.867  0.00  0.00    +0.210 HD
ENDBRANCH   5   6
ENDBRANCH   2   5
TORSDOF 3
ENDMDL
MODEL 6
REMARK VINA RESULT:      -2.9      2.376      3.193
REMARK  Name = *****
REMARK                            x       y       z     vdW  Elec       q    Type
REMARK                         _______ _______ _______ _____ _____    ______ ____
ROOT
ATOM      1  O   LIG    1       26.650 -14.306   1.859  0.00  0.00    -0.248 OA
ATOM      2  C   LIG    1       26.031 -13.557   2.597  0.00  0.00    +0.331 C 
ENDROOT
BRANCH   2   3
ATOM      3  O   LIG    1       26.276 -13.444   3.928  0.00  0.00    -0.479 OA
ATOM      4  H   LIG    1       27.242 -13.582   4.075  0.00  0.00    +0.295 HD
ENDBRANCH   2   3
BRANCH   2   5
ATOM      5  C   LIG    1       24.914 -12.624   2.158  0.00  0.00    +0.276 C 
BRANCH   5   6
ATOM      6  O   LIG    1       23.654 -13.150   2.591  0.00  0.00    -0.384 OA
ATOM      7  H   LIG    1       22.968 -12.560   2.224  0.00  0.00    +0.210 HD
ENDBRANCH   5   6
ENDBRANCH   2   5
TORSDOF 3
ENDMDL
MODEL 7
REMARK VINA RESULT:      -2.8      1.706      2.390
REMARK  Name = *****
REMARK                            x       y       z     vdW  Elec       q    Type
REMARK                         _______ _______ _______ _____ _____    ______ ____
ROOT
ATOM      1  O   LIG    1       25.379 -14.168   4.280  0.00  0.00    -0.248 OA
ATOM      2  C   LIG    1       26.527 -13.769   4.380  0.00  0.00    +0.331 C 
ENDROOT
BRANCH   2   3
ATOM      3  O   LIG    1       27.028 -13.193   5.503  0.00  0.00    -0.479 OA
ATOM      4  H   LIG    1       27.963 -12.936   5.324  0.00  0.00    +0.295 HD
ENDBRANCH   2   3
BRANCH   2   5
ATOM      5  C   LIG    1       27.583 -13.867   3.289  0.00  0.00    +0.276 C 
BRANCH   5   6
ATOM      6  O   LIG    1       26.947 -14.105   2.029  0.00  0.00    -0.384 OA
ATOM      7  H   LIG    1       27.539 -13.734   1.346  0.00  0.00    +0.210 HD
ENDBRANCH   5   6
ENDBRANCH   2   5
TORSDOF 3
ENDMDL
MODEL 8
REMARK VINA RESULT:      -2.8      2.423      2.803
REMARK  Name = *****
REMARK                            x       y       z     vdW  Elec       q    Type
REMARK                         _______ _______ _______ _____ _____    ______ ____
ROOT
ATOM      1  O   LIG    1       24.178 -14.185   4.035  0.00  0.00    -0.248 OA
ATOM      2  C   LIG    1       24.600 -13.499   3.119  0.00  0.00    +0.331 C 
ENDROOT
BRANCH   2   3
ATOM      3  O   LIG    1       23.799 -12.814   2.262  0.00  0.00    -0.479 OA
ATOM      4  H   LIG    1       23.340 -13.468   1.684  0.00  0.00    +0.295 HD
ENDBRANCH   2   3
BRANCH   2   5
ATOM      5  C   LIG    1       26.071 -13.280   2.797  0.00  0.00    +0.276 C 
BRANCH   5   6
ATOM      6  O   LIG    1       26.518 -14.295   1.891  0.00  0.00    -0.384 OA
ATOM      7  H   LIG    1       27.211 -14.798   2.360  0.00  0.00    +0.210 HD
ENDBRANCH   5   6
ENDBRANCH   2   5
TORSDOF 3
ENDMDL
MODEL 9
REMARK VINA RESULT:      -2.8      2.255      2.974
REMARK  Name = *****
REMARK                            x       y       z     vdW  Elec       q    Type
REMARK                         _______ _______ _______ _____ _____    ______ ____
ROOT
ATOM      1  O   LIG    1       25.968 -14.106   3.948  0.00  0.00    -0.248 OA
ATOM      2  C   LIG    1       25.982 -13.752   2.781  0.00  0.00    +0.331 C 
ENDROOT
BRANCH   2   3
ATOM      3  O   LIG    1       26.916 -14.160   1.884  0.00  0.00    -0.479 OA
ATOM      4  H   LIG    1       26.877 -15.144   1.827  0.00  0.00    +0.295 HD
ENDBRANCH   2   3
BRANCH   2   5
ATOM      5  C   LIG    1       24.961 -12.828   2.136  0.00  0.00    +0.276 C 
BRANCH   5   6
ATOM      6  O   LIG    1       23.652 -13.149   2.620  0.00  0.00    -0.384 OA
ATOM      7  H   LIG    1       23.135 -12.321   2.589  0.00  0.00    +0.210 HD
ENDBRANCH   5   6
ENDBRANCH   2   5
TORSDOF 3
ENDMDL
