MODEL 1
REMARK VINA RESULT:      -3.0      0.000      0.000
REMARK  Name = *****
REMARK                            x       y       z     vdW  Elec       q    Type
REMARK                         _______ _______ _______ _____ _____    ______ ____
ROOT
ATOM      1  C   LIG    1       31.705 -18.312   8.720  0.00  0.00    +0.155 C 
ENDROOT
BRANCH   1   3
ATOM      2  C   LIG    1       30.364 -17.357  10.626  0.00  0.00    +0.006 C 
ATOM      3  C   LIG    1       30.320 -17.921   9.217  0.00  0.00    +0.024 C 
ENDBRANCH   1   3
BRANCH   1   4
ATOM      4  O   LIG    1       32.074 -19.572   9.263  0.00  0.00    -0.395 OA
ATOM      5  H   LIG    1       31.653 -20.259   8.719  0.00  0.00    +0.209 HD
ENDBRANCH   1   4
TORSDOF 2
ENDMDL
MODEL 2
REMARK VINA RESULT:      -3.0      9.372      9.571
REMARK  Name = *****
REMARK                            x       y       z     vdW  Elec       q    Type
REMARK                         _______ _______ _______ _____ _____    ______ ____
ROOT
ATOM      1  C   LIG    1       23.523 -23.249   6.749  0.00  0.00    +0.155 C 
ENDROOT
BRANCH   1   3
ATOM      2  C   LIG    1       23.153 -20.798   6.306  0.00  0.00    +0.006 C 
ATOM      3  C   LIG    1       23.406 -21.861   7.361  0.00  0.00    +0.024 C 
ENDBRANCH   1   3
BRANCH   1   4
ATOM      4  O   LIG    1       22.233 -23.833   6.629  0.00  0.00    -0.395 OA
ATOM      5  H   LIG    1       22.272 -24.716   7.035  0.00  0.00    +0.209 HD
ENDBRANCH   1   4
TORSDOF 2
ENDMDL
MODEL 3
REMARK VINA RESULT:      -2.9      9.967     10.296
REMARK  Name = *****
REMARK                            x       y       z     vdW  Elec       q    Type
REMARK                         _______ _______ _______ _____ _____    ______ ____
ROOT
ATOM      1  C   LIG    1       23.568 -23.783   6.680  0.00  0.00    +0.155 C 
ENDROOT
BRANCH   1   3
ATOM      2  C   LIG    1       25.610 -25.253   6.580  0.00  0.00    +0.006 C 
ATOM      3  C   LIG    1       24.119 -25.153   6.313  0.00  0.00    +0.024 C 
ENDBRANCH   1   3
BRANCH   1   4
ATOM      4  O   LIG    1       22.148 -23.816   6.673  0.00  0.00    -0.395 OA
ATOM      5  H   LIG    1       21.872 -24.636   7.118  0.00  0.00    +0.209 HD
ENDBRANCH   1   4
TORSDOF 2
ENDMDL
MODEL 4
REMARK VINA RESULT:      -2.9      9.961     10.084
REMARK  Name = *****
REMARK                            x       y       z     vdW  Elec       q    Type
REMARK                         _______ _______ _______ _____ _____    ______ ____
ROOT
ATOM      1  C   LIG    1       25.070 -25.031   5.085  0.00  0.00    +0.155 C 
ENDROOT
BRANCH   1   3
ATOM      2  C   LIG    1       23.349 -24.136   6.691  0.00  0.00    +0.006 C 
ATOM      3  C   LIG    1       24.086 -25.368   6.196  0.00  0.00    +0.024 C 
ENDBRANCH   1   3
BRANCH   1   4
ATOM      4  O   LIG    1       24.865 -23.694   4.648  0.00  0.00    -0.395 OA
ATOM      5  H   LIG    1       24.133 -23.705   4.007  0.00  0.00    +0.209 HD
ENDBRANCH   1   4
TORSDOF 2
ENDMDL
MODEL 5
REMARK VINA RESULT:      -2.9      2.239      2.877
REMARK  Name = *****
REMARK                            x       y       z     vdW  Elec       q    Type
REMARK                         _______ _______ _______ _____ _____    ______ ____
ROOT
ATOM      1  C   LIG    1       31.068 -21.094   8.798  0.00  0.00    +0.155 C 
ENDROOT
BRANCH   1   3
ATOM      2  C   LIG    1       30.904 -19.320   7.019  0.00  0.00    +0.006 C 
ATOM      3  C   LIG    1       31.138 -19.605   8.492  0.00  0.00    +0.024 C 
ENDBRANCH   1   3
BRANCH   1   4
ATOM      4  O   LIG    1       32.223 -21.491   9.524  0.00  0.00    -0.395 OA
ATOM      5  H   LIG    1       32.041 -22.367   9.907  0.00  0.00    +0.209 HD
ENDBRANCH   1   4
TORSDOF 2
ENDMDL
MODEL 6
REMARK VINA RESULT:      -2.9     12.411     12.693
REMARK  Name = *****
REMARK                            x       y       z     vdW  Elec       q    Type
REMARK                         _______ _______ _______ _____ _____    ______ ____
ROOT
ATOM      1  C   LIG    1       24.481 -28.826   5.342  0.00  0.00    +0.155 C 
ENDROOT
BRANCH   1   3
ATOM      2  C   LIG    1       24.266 -26.348   5.733  0.00  0.00    +0.006 C 
ATOM      3  C   LIG    1       24.545 -27.700   6.364  0.00  0.00    +0.024 C 
ENDBRANCH   1   3
BRANCH   1   4
ATOM      4  O   LIG    1       23.199 -29.438   5.378  0.00  0.00    -0.395 OA
ATOM      5  H   LIG    1       22.544 -28.735   5.526  0.00  0.00    +0.209 HD
ENDBRANCH   1   4
TORSDOF 2
ENDMDL
MODEL 7
REMARK VINA RESULT:      -2.8      6.522      6.952
REMARK  Name = *****
REMARK                            x       y       z     vdW  Elec       q    Type
REMARK                         _______ _______ _______ _____ _____    ______ ____
ROOT
ATOM      1  C   LIG    1       25.770 -21.441   8.363  0.00  0.00    +0.155 C 
ENDROOT
BRANCH   1   3
ATOM      2  C   LIG    1       23.599 -20.869   7.224  0.00  0.00    +0.006 C 
ATOM      3  C   LIG    1       25.113 -20.771   7.165  0.00  0.00    +0.024 C 
ENDBRANCH   1   3
BRANCH   1   4
ATOM      4  O   LIG    1       25.900 -20.508   9.427  0.00  0.00    -0.395 OA
ATOM      5  H   LIG    1       26.050 -21.014  10.243  0.00  0.00    +0.209 HD
ENDBRANCH   1   4
TORSDOF 2
ENDMDL
MODEL 8
REMARK VINA RESULT:      -2.8      8.993      9.408
REMARK  Name = *****
REMARK                            x       y       z     vdW  Elec       q    Type
REMARK                         _______ _______ _______ _____ _____    ______ ____
ROOT
ATOM      1  C   LIG    1       24.053 -20.708   5.157  0.00  0.00    +0.155 C 
ENDROOT
BRANCH   1   3
ATOM      2  C   LIG    1       22.346 -18.936   4.620  0.00  0.00    +0.006 C 
ATOM      3  C   LIG    1       22.772 -20.014   5.600  0.00  0.00    +0.024 C 
ENDBRANCH   1   3
BRANCH   1   4
ATOM      4  O   LIG    1       23.767 -21.624   4.109  0.00  0.00    -0.395 OA
ATOM      5  H   LIG    1       24.439 -21.496   3.417  0.00  0.00    +0.209 HD
ENDBRANCH   1   4
TORSDOF 2
ENDMDL
MODEL 9
REMARK VINA RESULT:      -2.8      8.471      8.840
REMARK  Name = *****
REMARK                            x       y       z     vdW  Elec       q    Type
REMARK                         _______ _______ _______ _____ _____    ______ ____
ROOT
ATOM      1  C   LIG    1       24.642 -20.531   4.218  0.00  0.00    +0.155 C 
ENDROOT
BRANCH   1   3
ATOM      2  C   LIG    1       22.563 -19.182   4.663  0.00  0.00    +0.006 C 
ATOM      3  C   LIG    1       23.808 -19.326   3.805  0.00  0.00    +0.024 C 
ENDBRANCH   1   3
BRANCH   1   4
ATOM      4  O   LIG    1       26.024 -20.235   4.065  0.00  0.00    -0.395 OA
ATOM      5  H   LIG    1       26.153 -19.304   4.314  0.00  0.00    +0.209 HD
ENDBRANCH   1   4
TORSDOF 2
ENDMDL
