MODEL 1
REMARK VINA RESULT:     -11.2      0.000      0.000
REMARK  Name = *****
REMARK                            x       y       z     vdW  Elec       q    Type
REMARK                         _______ _______ _______ _____ _____    ______ ____
ROOT
ATOM      1  C   LIG    1       25.617 -21.387   6.589  0.00  0.00    +0.100 C 
ENDROOT
BRANCH   1   2
ATOM      2  C   LIG    1       27.089 -20.841   6.682  0.00  0.00    -0.028 A 
ATOM      3  C   LIG    1       28.026 -21.459   7.548  0.00  0.00    +0.005 A 
ATOM      4  C   LIG    1       29.358 -21.051   7.615  0.00  0.00    +0.000 A 
ATOM      5  C   LIG    1       29.799 -20.007   6.812  0.00  0.00    +0.000 A 
ATOM      6  C   LIG    1       28.905 -19.383   5.945  0.00  0.00    +0.000 A 
ATOM      7  C   LIG    1       27.566 -19.796   5.876  0.00  0.00    +0.005 A 
ENDBRANCH   1   2
BRANCH   1   8
ATOM      8  C   LIG    1       24.730 -20.568   5.568  0.00  0.00    -0.028 A 
ATOM      9  C   LIG    1       23.403 -20.182   5.869  0.00  0.00    +0.005 A 
ATOM     10  C   LIG    1       22.627 -19.431   4.971  0.00  0.00    +0.000 A 
ATOM     11  C   LIG    1       23.139 -19.051   3.743  0.00  0.00    +0.000 A 
ATOM     12  C   LIG    1       24.431 -19.429   3.402  0.00  0.00    +0.000 A 
ATOM     13  C   LIG    1       25.205 -20.181   4.298  0.00  0.00    +0.005 A 
ENDBRANCH   1   8
BRANCH   1  17
ATOM     14  N   LIG    1       25.592 -20.610   9.001  0.00  0.00    -0.328 N 
ATOM     15  H   LIG    1       26.488 -20.166   8.845  0.00  0.00    +0.145 HD
ATOM     16  H   LIG    1       25.149 -20.532   9.905  0.00  0.00    +0.145 HD
ATOM     17  C   LIG    1       24.934 -21.312   8.022  0.00  0.00    +0.226 C 
ATOM     18  O   LIG    1       23.853 -21.816   8.314  0.00  0.00    -0.275 OA
ENDBRANCH   1  17
BRANCH   1  19
ATOM     19  C   LIG    1       25.716 -22.915   6.148  0.00  0.00    +0.028 C 
ATOM     20  C   LIG    1       25.944 -23.931   7.282  0.00  0.00    +0.089 C 
ATOM     21  N   LIG    1       25.334 -25.200   6.857  0.00  0.00    -0.302 NA
ATOM     22  C   LIG    1       24.119 -24.763   6.149  0.00  0.00    +0.085 C 
ATOM     23  C   LIG    1       24.507 -23.497   5.388  0.00  0.00    +0.022 C 
BRANCH  21  24
ATOM     24  C   LIG    1       26.181 -26.045   5.998  0.00  0.00    +0.089 C 
BRANCH  24  25
ATOM     25  C   LIG    1       25.385 -26.987   5.078  0.00  0.00    +0.050 C 
BRANCH  25  26
ATOM     26  C   LIG    1       25.165 -28.343   5.711  0.00  0.00    -0.046 A 
ATOM     27  C   LIG    1       24.592 -28.447   6.988  0.00  0.00    +0.011 A 
ATOM     28  C   LIG    1       24.420 -29.708   7.536  0.00  0.00    -0.002 A 
ATOM     29  C   LIG    1       23.908 -30.088   8.870  0.00  0.00    +0.080 C 
ATOM     30  C   LIG    1       23.860 -31.610   8.708  0.00  0.00    +0.234 C 
ATOM     31  O   LIG    1       24.606 -32.008   7.534  0.00  0.00    -0.491 OA
ATOM     32  C   LIG    1       24.805 -30.843   6.846  0.00  0.00    +0.124 A 
ATOM     33  C   LIG    1       25.361 -30.777   5.587  0.00  0.00    +0.046 A 
ATOM     34  C   LIG    1       25.537 -29.515   5.014  0.00  0.00    +0.007 A 
ENDBRANCH  25  26
ENDBRANCH  24  25
ENDBRANCH  21  24
ENDBRANCH   1  19
TORSDOF 7
ENDMDL
MODEL 2
REMARK VINA RESULT:     -10.9      1.334      1.579
REMARK  Name = *****
REMARK                            x       y       z     vdW  Elec       q    Type
REMARK                         _______ _______ _______ _____ _____    ______ ____
ROOT
ATOM      1  C   LIG    1       25.597 -21.320   6.627  0.00  0.00    +0.100 C 
ENDROOT
BRANCH   1   2
ATOM      2  C   LIG    1       27.070 -20.772   6.681  0.00  0.00    -0.028 A 
ATOM      3  C   LIG    1       28.003 -21.322   7.595  0.00  0.00    +0.005 A 
ATOM      4  C   LIG    1       29.336 -20.913   7.634  0.00  0.00    +0.000 A 
ATOM      5  C   LIG    1       29.781 -19.936   6.753  0.00  0.00    +0.000 A 
ATOM      6  C   LIG    1       28.891 -19.379   5.838  0.00  0.00    +0.000 A 
ATOM      7  C   LIG    1       27.551 -19.793   5.797  0.00  0.00    +0.005 A 
ENDBRANCH   1   2
BRANCH   1   8
ATOM      8  C   LIG    1       24.685 -20.509   5.621  0.00  0.00    -0.028 A 
ATOM      9  C   LIG    1       23.344 -20.178   5.926  0.00  0.00    +0.005 A 
ATOM     10  C   LIG    1       22.545 -19.435   5.042  0.00  0.00    +0.000 A 
ATOM     11  C   LIG    1       23.047 -19.008   3.825  0.00  0.00    +0.000 A 
ATOM     12  C   LIG    1       24.352 -19.331   3.481  0.00  0.00    +0.000 A 
ATOM     13  C   LIG    1       25.149 -20.076   4.363  0.00  0.00    +0.005 A 
ENDBRANCH   1   8
BRANCH   1  17
ATOM     14  N   LIG    1       23.627 -21.592   8.196  0.00  0.00    -0.328 N 
ATOM     15  H   LIG    1       23.065 -21.879   7.406  0.00  0.00    +0.145 HD
ATOM     16  H   LIG    1       23.215 -21.570   9.118  0.00  0.00    +0.145 HD
ATOM     17  C   LIG    1       24.947 -21.236   8.074  0.00  0.00    +0.226 C 
ATOM     18  O   LIG    1       25.541 -20.899   9.095  0.00  0.00    -0.275 OA
ENDBRANCH   1  17
BRANCH   1  19
ATOM     19  C   LIG    1       25.688 -22.851   6.194  0.00  0.00    +0.028 C 
ATOM     20  C   LIG    1       25.907 -23.863   7.333  0.00  0.00    +0.089 C 
ATOM     21  N   LIG    1       25.290 -25.130   6.915  0.00  0.00    -0.302 NA
ATOM     22  C   LIG    1       24.080 -24.689   6.201  0.00  0.00    +0.085 C 
ATOM     23  C   LIG    1       24.477 -23.429   5.434  0.00  0.00    +0.022 C 
BRANCH  21  24
ATOM     24  C   LIG    1       26.134 -25.984   6.062  0.00  0.00    +0.089 C 
BRANCH  24  25
ATOM     25  C   LIG    1       25.506 -27.351   5.739  0.00  0.00    +0.050 C 
BRANCH  25  26
ATOM     26  C   LIG    1       25.368 -28.216   6.973  0.00  0.00    -0.046 A 
ATOM     27  C   LIG    1       26.245 -28.053   8.057  0.00  0.00    +0.011 A 
ATOM     28  C   LIG    1       26.092 -28.873   9.162  0.00  0.00    -0.002 A 
ATOM     29  C   LIG    1       26.909 -28.952  10.392  0.00  0.00    +0.080 C 
ATOM     30  C   LIG    1       26.070 -29.945  11.201  0.00  0.00    +0.234 C 
ATOM     31  O   LIG    1       25.101 -30.591  10.343  0.00  0.00    -0.491 OA
ATOM     32  C   LIG    1       25.100 -29.836   9.202  0.00  0.00    +0.124 A 
ATOM     33  C   LIG    1       24.216 -30.016   8.160  0.00  0.00    +0.046 A 
ATOM     34  C   LIG    1       24.349 -29.193   7.039  0.00  0.00    +0.007 A 
ENDBRANCH  25  26
ENDBRANCH  24  25
ENDBRANCH  21  24
ENDBRANCH   1  19
TORSDOF 7
ENDMDL
MODEL 3
REMARK VINA RESULT:      -9.5      3.528      9.362
REMARK  Name = *****
REMARK                            x       y       z     vdW  Elec       q    Type
REMARK                         _______ _______ _______ _____ _____    ______ ____
ROOT
ATOM      1  C   LIG    1       25.125 -21.236   6.660  0.00  0.00    +0.100 C 
ENDROOT
BRANCH   1   2
ATOM      2  C   LIG    1       24.432 -20.407   5.519  0.00  0.00    -0.028 A 
ATOM      3  C   LIG    1       23.091 -19.970   5.667  0.00  0.00    +0.005 A 
ATOM      4  C   LIG    1       22.457 -19.178   4.710  0.00  0.00    +0.000 A 
ATOM      5  C   LIG    1       23.148 -18.792   3.569  0.00  0.00    +0.000 A 
ATOM      6  C   LIG    1       24.469 -19.199   3.395  0.00  0.00    +0.000 A 
ATOM      7  C   LIG    1       25.107 -19.993   4.360  0.00  0.00    +0.005 A 
ENDBRANCH   1   2
BRANCH   1   8
ATOM      8  C   LIG    1       25.307 -22.760   6.278  0.00  0.00    -0.028 A 
ATOM      9  C   LIG    1       25.986 -23.669   7.123  0.00  0.00    +0.005 A 
ATOM     10  C   LIG    1       26.122 -25.027   6.793  0.00  0.00    +0.000 A 
ATOM     11  C   LIG    1       25.601 -25.523   5.610  0.00  0.00    +0.000 A 
ATOM     12  C   LIG    1       24.947 -24.657   4.745  0.00  0.00    +0.000 A 
ATOM     13  C   LIG    1       24.813 -23.300   5.073  0.00  0.00    +0.005 A 
ENDBRANCH   1   8
BRANCH   1  17
ATOM     14  N   LIG    1       23.077 -21.866   8.013  0.00  0.00    -0.328 N 
ATOM     15  H   LIG    1       22.755 -22.416   7.228  0.00  0.00    +0.145 HD
ATOM     16  H   LIG    1       22.531 -21.841   8.861  0.00  0.00    +0.145 HD
ATOM     17  C   LIG    1       24.249 -21.151   7.983  0.00  0.00    +0.226 C 
ATOM     18  O   LIG    1       24.550 -20.513   8.988  0.00  0.00    -0.275 OA
ENDBRANCH   1  17
BRANCH   1  19
ATOM     19  C   LIG    1       26.538 -20.553   6.937  0.00  0.00    +0.028 C 
ATOM     20  C   LIG    1       27.471 -21.302   7.906  0.00  0.00    +0.089 C 
ATOM     21  N   LIG    1       28.851 -20.977   7.519  0.00  0.00    -0.302 NA
ATOM     22  C   LIG    1       28.781 -20.932   6.050  0.00  0.00    +0.085 C 
ATOM     23  C   LIG    1       27.436 -20.294   5.710  0.00  0.00    +0.022 C 
BRANCH  21  24
ATOM     24  C   LIG    1       29.375 -19.715   8.070  0.00  0.00    +0.089 C 
BRANCH  24  25
ATOM     25  C   LIG    1       30.910 -19.666   8.154  0.00  0.00    +0.050 C 
BRANCH  25  26
ATOM     26  C   LIG    1       31.393 -18.526   9.024  0.00  0.00    -0.046 A 
ATOM     27  C   LIG    1       31.159 -18.539  10.408  0.00  0.00    +0.011 A 
ATOM     28  C   LIG    1       31.607 -17.469  11.166  0.00  0.00    -0.002 A 
ATOM     29  C   LIG    1       31.437 -17.208  12.611  0.00  0.00    +0.080 C 
ATOM     30  C   LIG    1       32.306 -15.955  12.755  0.00  0.00    +0.234 C 
ATOM     31  O   LIG    1       32.614 -15.412  11.450  0.00  0.00    -0.491 OA
ATOM     32  C   LIG    1       32.269 -16.407  10.577  0.00  0.00    +0.124 A 
ATOM     33  C   LIG    1       32.523 -16.367   9.223  0.00  0.00    +0.046 A 
ATOM     34  C   LIG    1       32.086 -17.440   8.442  0.00  0.00    +0.007 A 
ENDBRANCH  25  26
ENDBRANCH  24  25
ENDBRANCH  21  24
ENDBRANCH   1  19
TORSDOF 7
ENDMDL
MODEL 4
REMARK VINA RESULT:      -9.1      2.742      9.696
REMARK  Name = *****
REMARK                            x       y       z     vdW  Elec       q    Type
REMARK                         _______ _______ _______ _____ _____    ______ ____
ROOT
ATOM      1  C   LIG    1       24.909 -30.501   8.949  0.00  0.00    +0.100 C 
ENDROOT
BRANCH   1   2
ATOM      2  C   LIG    1       25.538 -31.696   8.144  0.00  0.00    -0.028 A 
ATOM      3  C   LIG    1       24.723 -32.772   7.711  0.00  0.00    +0.005 A 
ATOM      4  C   LIG    1       25.224 -33.820   6.939  0.00  0.00    +0.000 A 
ATOM      5  C   LIG    1       26.563 -33.825   6.572  0.00  0.00    +0.000 A 
ATOM      6  C   LIG    1       27.390 -32.779   6.976  0.00  0.00    +0.000 A 
ATOM      7  C   LIG    1       26.885 -31.723   7.749  0.00  0.00    +0.005 A 
ENDBRANCH   1   2
BRANCH   1   8
ATOM      8  C   LIG    1       25.905 -29.900  10.020  0.00  0.00    -0.028 A 
ATOM      9  C   LIG    1       27.273 -30.258  10.055  0.00  0.00    +0.005 A 
ATOM     10  C   LIG    1       28.161 -29.701  10.990  0.00  0.00    +0.000 A 
ATOM     11  C   LIG    1       27.718 -28.784  11.926  0.00  0.00    +0.000 A 
ATOM     12  C   LIG    1       26.377 -28.424  11.938  0.00  0.00    +0.000 A 
ATOM     13  C   LIG    1       25.490 -28.981  11.005  0.00  0.00    +0.005 A 
ENDBRANCH   1   8
BRANCH   1  17
ATOM     14  N   LIG    1       23.763 -31.931  10.699  0.00  0.00    -0.328 N 
ATOM     15  H   LIG    1       24.666 -32.313  10.947  0.00  0.00    +0.145 HD
ATOM     16  H   LIG    1       22.941 -32.230  11.203  0.00  0.00    +0.145 HD
ATOM     17  C   LIG    1       23.602 -31.000   9.703  0.00  0.00    +0.226 C 
ATOM     18  O   LIG    1       22.463 -30.602   9.477  0.00  0.00    -0.275 OA
ENDBRANCH   1  17
BRANCH   1  19
ATOM     19  C   LIG    1       24.493 -29.391   7.884  0.00  0.00    +0.028 C 
ATOM     20  C   LIG    1       25.535 -28.291   7.614  0.00  0.00    +0.089 C 
ATOM     21  N   LIG    1       25.334 -27.832   6.232  0.00  0.00    -0.302 NA
ATOM     22  C   LIG    1       24.998 -29.073   5.516  0.00  0.00    +0.085 C 
ATOM     23  C   LIG    1       24.128 -29.889   6.470  0.00  0.00    +0.022 C 
BRANCH  21  24
ATOM     24  C   LIG    1       24.286 -26.811   6.058  0.00  0.00    +0.089 C 
BRANCH  24  25
ATOM     25  C   LIG    1       24.745 -25.584   5.251  0.00  0.00    +0.050 C 
BRANCH  25  26
ATOM     26  C   LIG    1       24.726 -24.321   6.082  0.00  0.00    -0.046 A 
ATOM     27  C   LIG    1       25.927 -23.732   6.508  0.00  0.00    +0.011 A 
ATOM     28  C   LIG    1       25.864 -22.582   7.278  0.00  0.00    -0.002 A 
ATOM     29  C   LIG    1       26.961 -21.810   7.900  0.00  0.00    +0.080 C 
ATOM     30  C   LIG    1       26.167 -20.619   8.446  0.00  0.00    +0.234 C 
ATOM     31  O   LIG    1       24.751 -20.914   8.420  0.00  0.00    -0.491 OA
ATOM     32  C   LIG    1       24.648 -22.023   7.626  0.00  0.00    +0.124 A 
ATOM     33  C   LIG    1       23.451 -22.570   7.217  0.00  0.00    +0.046 A 
ATOM     34  C   LIG    1       23.493 -23.726   6.433  0.00  0.00    +0.007 A 
ENDBRANCH  25  26
ENDBRANCH  24  25
ENDBRANCH  21  24
ENDBRANCH   1  19
TORSDOF 7
ENDMDL
MODEL 5
REMARK VINA RESULT:      -9.1      2.829      9.460
REMARK  Name = *****
REMARK                            x       y       z     vdW  Elec       q    Type
REMARK                         _______ _______ _______ _____ _____    ______ ____
ROOT
ATOM      1  C   LIG    1       25.313 -30.026   9.647  0.00  0.00    +0.100 C 
ENDROOT
BRANCH   1   2
ATOM      2  C   LIG    1       25.525 -29.030  10.845  0.00  0.00    -0.028 A 
ATOM      3  C   LIG    1       24.635 -29.041  11.948  0.00  0.00    +0.005 A 
ATOM      4  C   LIG    1       24.820 -28.221  13.061  0.00  0.00    +0.000 A 
ATOM      5  C   LIG    1       25.910 -27.361  13.108  0.00  0.00    +0.000 A 
ATOM      6  C   LIG    1       26.807 -27.330  12.043  0.00  0.00    +0.000 A 
ATOM      7  C   LIG    1       26.622 -28.157  10.925  0.00  0.00    +0.005 A 
ENDBRANCH   1   2
BRANCH   1   8
ATOM      8  C   LIG    1       24.283 -31.177   9.990  0.00  0.00    -0.028 A 
ATOM      9  C   LIG    1       24.700 -32.430  10.495  0.00  0.00    +0.005 A 
ATOM     10  C   LIG    1       23.781 -33.439  10.824  0.00  0.00    +0.000 A 
ATOM     11  C   LIG    1       22.422 -33.241  10.650  0.00  0.00    +0.000 A 
ATOM     12  C   LIG    1       21.976 -32.032  10.136  0.00  0.00    +0.000 A 
ATOM     13  C   LIG    1       22.894 -31.025   9.805  0.00  0.00    +0.005 A 
ENDBRANCH   1   8
BRANCH   1  17
ATOM     14  N   LIG    1       26.754 -31.419   8.097  0.00  0.00    -0.328 N 
ATOM     15  H   LIG    1       25.947 -31.554   7.503  0.00  0.00    +0.145 HD
ATOM     16  H   LIG    1       27.642 -31.821   7.830  0.00  0.00    +0.145 HD
ATOM     17  C   LIG    1       26.703 -30.693   9.262  0.00  0.00    +0.226 C 
ATOM     18  O   LIG    1       27.738 -30.592   9.914  0.00  0.00    -0.275 OA
ENDBRANCH   1  17
BRANCH   1  19
ATOM     19  C   LIG    1       24.800 -29.162   8.410  0.00  0.00    +0.028 C 
ATOM     20  C   LIG    1       25.800 -28.141   7.839  0.00  0.00    +0.089 C 
ATOM     21  N   LIG    1       25.488 -27.979   6.411  0.00  0.00    -0.302 NA
ATOM     22  C   LIG    1       25.120 -29.343   5.996  0.00  0.00    +0.085 C 
ATOM     23  C   LIG    1       24.338 -29.943   7.163  0.00  0.00    +0.022 C 
BRANCH  21  24
ATOM     24  C   LIG    1       24.413 -27.018   6.111  0.00  0.00    +0.089 C 
BRANCH  24  25
ATOM     25  C   LIG    1       24.882 -25.798   5.299  0.00  0.00    +0.050 C 
BRANCH  25  26
ATOM     26  C   LIG    1       24.762 -24.513   6.089  0.00  0.00    -0.046 A 
ATOM     27  C   LIG    1       25.911 -23.862   6.566  0.00  0.00    +0.011 A 
ATOM     28  C   LIG    1       25.756 -22.695   7.296  0.00  0.00    -0.002 A 
ATOM     29  C   LIG    1       26.780 -21.860   7.957  0.00  0.00    +0.080 C 
ATOM     30  C   LIG    1       25.908 -20.689   8.419  0.00  0.00    +0.234 C 
ATOM     31  O   LIG    1       24.509 -21.044   8.319  0.00  0.00    -0.491 OA
ATOM     32  C   LIG    1       24.499 -22.178   7.554  0.00  0.00    +0.124 A 
ATOM     33  C   LIG    1       23.352 -22.787   7.093  0.00  0.00    +0.046 A 
ATOM     34  C   LIG    1       23.487 -23.961   6.349  0.00  0.00    +0.007 A 
ENDBRANCH  25  26
ENDBRANCH  24  25
ENDBRANCH  21  24
ENDBRANCH   1  19
TORSDOF 7
ENDMDL
MODEL 6
REMARK VINA RESULT:      -9.1      2.814      9.486
REMARK  Name = *****
REMARK                            x       y       z     vdW  Elec       q    Type
REMARK                         _______ _______ _______ _____ _____    ______ ____
ROOT
ATOM      1  C   LIG    1       25.297 -30.126   9.620  0.00  0.00    +0.100 C 
ENDROOT
BRANCH   1   2
ATOM      2  C   LIG    1       25.545 -29.165  10.839  0.00  0.00    -0.028 A 
ATOM      3  C   LIG    1       26.651 -28.278  10.836  0.00  0.00    +0.005 A 
ATOM      4  C   LIG    1       26.873 -27.363  11.865  0.00  0.00    +0.000 A 
ATOM      5  C   LIG    1       25.989 -27.303  12.935  0.00  0.00    +0.000 A 
ATOM      6  C   LIG    1       24.888 -28.156  12.965  0.00  0.00    +0.000 A 
ATOM      7  C   LIG    1       24.664 -29.074  11.928  0.00  0.00    +0.005 A 
ENDBRANCH   1   2
BRANCH   1   8
ATOM      8  C   LIG    1       24.253 -31.268   9.949  0.00  0.00    -0.028 A 
ATOM      9  C   LIG    1       22.865 -31.098   9.739  0.00  0.00    +0.005 A 
ATOM     10  C   LIG    1       21.944 -32.123  10.007  0.00  0.00    +0.000 A 
ATOM     11  C   LIG    1       22.369 -33.343  10.504  0.00  0.00    +0.000 A 
ATOM     12  C   LIG    1       23.722 -33.540  10.744  0.00  0.00    +0.000 A 
ATOM     13  C   LIG    1       24.642 -32.515  10.479  0.00  0.00    +0.005 A 
ENDBRANCH   1   8
BRANCH   1  17
ATOM     14  N   LIG    1       26.698 -31.477   7.997  0.00  0.00    -0.328 N 
ATOM     15  H   LIG    1       25.886 -31.564   7.402  0.00  0.00    +0.145 HD
ATOM     16  H   LIG    1       27.575 -31.886   7.707  0.00  0.00    +0.145 HD
ATOM     17  C   LIG    1       26.669 -30.806   9.195  0.00  0.00    +0.226 C 
ATOM     18  O   LIG    1       27.709 -30.761   9.846  0.00  0.00    -0.275 OA
ENDBRANCH   1  17
BRANCH   1  19
ATOM     19  C   LIG    1       24.779 -29.223   8.414  0.00  0.00    +0.028 C 
ATOM     20  C   LIG    1       25.785 -28.198   7.858  0.00  0.00    +0.089 C 
ATOM     21  N   LIG    1       25.457 -27.994   6.439  0.00  0.00    -0.302 NA
ATOM     22  C   LIG    1       25.067 -29.341   5.992  0.00  0.00    +0.085 C 
ATOM     23  C   LIG    1       24.292 -29.963   7.151  0.00  0.00    +0.022 C 
BRANCH  21  24
ATOM     24  C   LIG    1       24.391 -27.011   6.179  0.00  0.00    +0.089 C 
BRANCH  24  25
ATOM     25  C   LIG    1       24.850 -25.805   5.342  0.00  0.00    +0.050 C 
BRANCH  25  26
ATOM     26  C   LIG    1       24.768 -24.511   6.122  0.00  0.00    -0.046 A 
ATOM     27  C   LIG    1       25.937 -23.870   6.562  0.00  0.00    +0.011 A 
ATOM     28  C   LIG    1       25.816 -22.694   7.284  0.00  0.00    -0.002 A 
ATOM     29  C   LIG    1       26.869 -21.866   7.910  0.00  0.00    +0.080 C 
ATOM     30  C   LIG    1       26.024 -20.680   8.382  0.00  0.00    +0.234 C 
ATOM     31  O   LIG    1       24.619 -21.017   8.323  0.00  0.00    -0.491 OA
ATOM     32  C   LIG    1       24.574 -22.159   7.571  0.00  0.00    +0.124 A 
ATOM     33  C   LIG    1       23.407 -22.757   7.146  0.00  0.00    +0.046 A 
ATOM     34  C   LIG    1       23.508 -23.940   6.410  0.00  0.00    +0.007 A 
ENDBRANCH  25  26
ENDBRANCH  24  25
ENDBRANCH  21  24
ENDBRANCH   1  19
TORSDOF 7
ENDMDL
MODEL 7
REMARK VINA RESULT:      -9.0      2.765      9.977
REMARK  Name = *****
REMARK                            x       y       z     vdW  Elec       q    Type
REMARK                         _______ _______ _______ _____ _____    ______ ____
ROOT
ATOM      1  C   LIG    1       25.523 -30.717   7.982  0.00  0.00    +0.100 C 
ENDROOT
BRANCH   1   2
ATOM      2  C   LIG    1       24.170 -31.151   8.654  0.00  0.00    -0.028 A 
ATOM      3  C   LIG    1       23.576 -32.395   8.325  0.00  0.00    +0.005 A 
ATOM      4  C   LIG    1       22.412 -32.851   8.943  0.00  0.00    +0.000 A 
ATOM      5  C   LIG    1       21.801 -32.073   9.918  0.00  0.00    +0.000 A 
ATOM      6  C   LIG    1       22.363 -30.847  10.269  0.00  0.00    +0.000 A 
ATOM      7  C   LIG    1       23.536 -30.391   9.650  0.00  0.00    +0.005 A 
ENDBRANCH   1   2
BRANCH   1   8
ATOM      8  C   LIG    1       25.984 -31.717   6.846  0.00  0.00    -0.028 A 
ATOM      9  C   LIG    1       27.199 -32.436   6.927  0.00  0.00    +0.005 A 
ATOM     10  C   LIG    1       27.592 -33.343   5.930  0.00  0.00    +0.000 A 
ATOM     11  C   LIG    1       26.799 -33.554   4.815  0.00  0.00    +0.000 A 
ATOM     12  C   LIG    1       25.609 -32.851   4.689  0.00  0.00    +0.000 A 
ATOM     13  C   LIG    1       25.217 -31.943   5.684  0.00  0.00    +0.005 A 
ENDBRANCH   1   8
BRANCH   1  17
ATOM     14  N   LIG    1       27.155 -29.410   9.414  0.00  0.00    -0.328 N 
ATOM     15  H   LIG    1       26.831 -28.561   8.969  0.00  0.00    +0.145 HD
ATOM     16  H   LIG    1       27.859 -29.357  10.135  0.00  0.00    +0.145 HD
ATOM     17  C   LIG    1       26.665 -30.650   9.085  0.00  0.00    +0.226 C 
ATOM     18  O   LIG    1       27.126 -31.619   9.682  0.00  0.00    -0.275 OA
ENDBRANCH   1  17
BRANCH   1  19
ATOM     19  C   LIG    1       25.299 -29.256   7.388  0.00  0.00    +0.028 C 
ATOM     20  C   LIG    1       26.172 -28.878   6.178  0.00  0.00    +0.089 C 
ATOM     21  N   LIG    1       25.411 -27.906   5.379  0.00  0.00    -0.302 NA
ATOM     22  C   LIG    1       24.028 -28.400   5.487  0.00  0.00    +0.085 C 
ATOM     23  C   LIG    1       23.871 -28.910   6.918  0.00  0.00    +0.022 C 
BRANCH  21  24
ATOM     24  C   LIG    1       25.517 -26.507   5.829  0.00  0.00    +0.089 C 
BRANCH  24  25
ATOM     25  C   LIG    1       24.174 -25.756   5.838  0.00  0.00    +0.050 C 
BRANCH  25  26
ATOM     26  C   LIG    1       24.298 -24.385   6.465  0.00  0.00    -0.046 A 
ATOM     27  C   LIG    1       25.556 -23.886   6.842  0.00  0.00    +0.011 A 
ATOM     28  C   LIG    1       25.623 -22.631   7.424  0.00  0.00    -0.002 A 
ATOM     29  C   LIG    1       26.795 -21.909   7.963  0.00  0.00    +0.080 C 
ATOM     30  C   LIG    1       26.146 -20.561   8.289  0.00  0.00    +0.234 C 
ATOM     31  O   LIG    1       24.706 -20.682   8.254  0.00  0.00    -0.491 OA
ATOM     32  C   LIG    1       24.480 -21.882   7.635  0.00  0.00    +0.124 A 
ATOM     33  C   LIG    1       23.232 -22.337   7.269  0.00  0.00    +0.046 A 
ATOM     34  C   LIG    1       23.143 -23.598   6.673  0.00  0.00    +0.007 A 
ENDBRANCH  25  26
ENDBRANCH  24  25
ENDBRANCH  21  24
ENDBRANCH   1  19
TORSDOF 7
ENDMDL
MODEL 8
REMARK VINA RESULT:      -8.7      2.758     10.118
REMARK  Name = *****
REMARK                            x       y       z     vdW  Elec       q    Type
REMARK                         _______ _______ _______ _____ _____    ______ ____
ROOT
ATOM      1  C   LIG    1       25.151 -30.383   8.304  0.00  0.00    +0.100 C 
ENDROOT
BRANCH   1   2
ATOM      2  C   LIG    1       23.854 -31.015   8.927  0.00  0.00    -0.028 A 
ATOM      3  C   LIG    1       23.551 -32.383   8.711  0.00  0.00    +0.005 A 
ATOM      4  C   LIG    1       22.447 -33.002   9.296  0.00  0.00    +0.000 A 
ATOM      5  C   LIG    1       21.606 -32.269  10.124  0.00  0.00    +0.000 A 
ATOM      6  C   LIG    1       21.878 -30.924  10.361  0.00  0.00    +0.000 A 
ATOM      7  C   LIG    1       22.991 -30.303   9.775  0.00  0.00    +0.005 A 
ENDBRANCH   1   2
BRANCH   1   8
ATOM      8  C   LIG    1       25.919 -31.388   7.353  0.00  0.00    -0.028 A 
ATOM      9  C   LIG    1       25.539 -31.583   6.005  0.00  0.00    +0.005 A 
ATOM     10  C   LIG    1       26.239 -32.455   5.156  0.00  0.00    +0.000 A 
ATOM     11  C   LIG    1       27.330 -33.170   5.622  0.00  0.00    +0.000 A 
ATOM     12  C   LIG    1       27.720 -33.021   6.945  0.00  0.00    +0.000 A 
ATOM     13  C   LIG    1       27.019 -32.152   7.794  0.00  0.00    +0.005 A 
ENDBRANCH   1   8
BRANCH   1  17
ATOM     14  N   LIG    1       26.027 -30.595  10.672  0.00  0.00    -0.328 N 
ATOM     15  H   LIG    1       25.339 -31.317  10.839  0.00  0.00    +0.145 HD
ATOM     16  H   LIG    1       26.670 -30.340  11.408  0.00  0.00    +0.145 HD
ATOM     17  C   LIG    1       26.137 -29.942   9.469  0.00  0.00    +0.226 C 
ATOM     18  O   LIG    1       27.003 -29.077   9.370  0.00  0.00    -0.275 OA
ENDBRANCH   1  17
BRANCH   1  19
ATOM     19  C   LIG    1       24.696 -29.086   7.499  0.00  0.00    +0.028 C 
ATOM     20  C   LIG    1       25.822 -28.131   7.065  0.00  0.00    +0.089 C 
ATOM     21  N   LIG    1       25.372 -27.458   5.837  0.00  0.00    -0.302 NA
ATOM     22  C   LIG    1       24.646 -28.522   5.124  0.00  0.00    +0.085 C 
ATOM     23  C   LIG    1       23.906 -29.320   6.196  0.00  0.00    +0.022 C 
BRANCH  21  24
ATOM     24  C   LIG    1       24.520 -26.275   6.048  0.00  0.00    +0.089 C 
BRANCH  24  25
ATOM     25  C   LIG    1       25.294 -25.029   6.513  0.00  0.00    +0.050 C 
BRANCH  25  26
ATOM     26  C   LIG    1       24.525 -23.754   6.249  0.00  0.00    -0.046 A 
ATOM     27  C   LIG    1       25.060 -22.761   5.412  0.00  0.00    +0.011 A 
ATOM     28  C   LIG    1       24.328 -21.604   5.206  0.00  0.00    -0.002 A 
ATOM     29  C   LIG    1       24.685 -20.394   4.435  0.00  0.00    +0.080 C 
ATOM     30  C   LIG    1       23.364 -19.625   4.526  0.00  0.00    +0.234 C 
ATOM     31  O   LIG    1       22.517 -20.213   5.541  0.00  0.00    -0.491 OA
ATOM     32  C   LIG    1       23.098 -21.422   5.811  0.00  0.00    +0.124 A 
ATOM     33  C   LIG    1       22.540 -22.379   6.630  0.00  0.00    +0.046 A 
ATOM     34  C   LIG    1       23.259 -23.558   6.845  0.00  0.00    +0.007 A 
ENDBRANCH  25  26
ENDBRANCH  24  25
ENDBRANCH  21  24
ENDBRANCH   1  19
TORSDOF 7
ENDMDL
MODEL 9
REMARK VINA RESULT:      -8.4      5.371      9.010
REMARK  Name = *****
REMARK                            x       y       z     vdW  Elec       q    Type
REMARK                         _______ _______ _______ _____ _____    ______ ____
ROOT
ATOM      1  C   LIG    1       23.102 -28.617  13.409  0.00  0.00    +0.100 C 
ENDROOT
BRANCH   1   2
ATOM      2  C   LIG    1       24.315 -27.645  13.174  0.00  0.00    -0.028 A 
ATOM      3  C   LIG    1       24.297 -26.336  13.719  0.00  0.00    +0.005 A 
ATOM      4  C   LIG    1       25.376 -25.462  13.591  0.00  0.00    +0.000 A 
ATOM      5  C   LIG    1       26.516 -25.872  12.911  0.00  0.00    +0.000 A 
ATOM      6  C   LIG    1       26.569 -27.154  12.369  0.00  0.00    +0.000 A 
ATOM      7  C   LIG    1       25.484 -28.034  12.501  0.00  0.00    +0.005 A 
ENDBRANCH   1   2
BRANCH   1   8
ATOM      8  C   LIG    1       21.782 -27.851  13.823  0.00  0.00    -0.028 A 
ATOM      9  C   LIG    1       21.041 -27.081  12.897  0.00  0.00    +0.005 A 
ATOM     10  C   LIG    1       19.854 -26.424  13.262  0.00  0.00    +0.000 A 
ATOM     11  C   LIG    1       19.373 -26.501  14.557  0.00  0.00    +0.000 A 
ATOM     12  C   LIG    1       20.084 -27.230  15.500  0.00  0.00    +0.000 A 
ATOM     13  C   LIG    1       21.271 -27.884  15.137  0.00  0.00    +0.005 A 
ENDBRANCH   1   8
BRANCH   1  17
ATOM     14  N   LIG    1       24.538 -29.346  15.365  0.00  0.00    -0.328 N 
ATOM     15  H   LIG    1       25.100 -28.515  15.235  0.00  0.00    +0.145 HD
ATOM     16  H   LIG    1       24.758 -29.982  16.118  0.00  0.00    +0.145 HD
ATOM     17  C   LIG    1       23.467 -29.649  14.561  0.00  0.00    +0.226 C 
ATOM     18  O   LIG    1       22.852 -30.684  14.801  0.00  0.00    -0.275 OA
ENDBRANCH   1  17
BRANCH   1  19
ATOM     19  C   LIG    1       22.882 -29.422  12.052  0.00  0.00    +0.028 C 
ATOM     20  C   LIG    1       23.769 -30.665  11.853  0.00  0.00    +0.089 C 
ATOM     21  N   LIG    1       23.016 -31.606  11.012  0.00  0.00    -0.302 NA
ATOM     22  C   LIG    1       21.633 -31.443  11.489  0.00  0.00    +0.085 C 
ATOM     23  C   LIG    1       21.460 -29.955  11.783  0.00  0.00    +0.022 C 
BRANCH  21  24
ATOM     24  C   LIG    1       23.115 -31.366   9.562  0.00  0.00    +0.089 C 
BRANCH  24  25
ATOM     25  C   LIG    1       24.557 -31.402   9.025  0.00  0.00    +0.050 C 
BRANCH  25  26
ATOM     26  C   LIG    1       24.982 -30.065   8.459  0.00  0.00    -0.046 A 
ATOM     27  C   LIG    1       24.378 -29.560   7.296  0.00  0.00    +0.011 A 
ATOM     28  C   LIG    1       24.806 -28.338   6.804  0.00  0.00    -0.002 A 
ATOM     29  C   LIG    1       24.388 -27.622   5.581  0.00  0.00    +0.080 C 
ATOM     30  C   LIG    1       25.151 -26.308   5.771  0.00  0.00    +0.234 C 
ATOM     31  O   LIG    1       26.145 -26.459   6.811  0.00  0.00    -0.491 OA
ATOM     32  C   LIG    1       25.808 -27.627   7.438  0.00  0.00    +0.124 A 
ATOM     33  C   LIG    1       26.415 -28.089   8.586  0.00  0.00    +0.046 A 
ATOM     34  C   LIG    1       25.993 -29.316   9.103  0.00  0.00    +0.007 A 
ENDBRANCH  25  26
ENDBRANCH  24  25
ENDBRANCH  21  24
ENDBRANCH   1  19
TORSDOF 7
ENDMDL
