MODEL 1
REMARK VINA RESULT:      -7.0      0.000      0.000
REMARK  Name = *****
REMARK                            x       y       z     vdW  Elec       q    Type
REMARK                         _______ _______ _______ _____ _____    ______ ____
ROOT
ATOM      1  C   LIG    1       25.546 -20.103   5.660  0.00  0.00    +0.102 C 
ATOM      2  C   LIG    1       26.852 -20.229   6.433  0.00  0.00    +0.006 A 
ATOM      3  C   LIG    1       27.022 -21.186   7.415  0.00  0.00    +0.149 A 
ATOM      4  S   LIG    1       28.566 -21.199   8.103  0.00  0.00    -0.048 S 
ATOM      5  C   LIG    1       29.090 -19.924   7.087  0.00  0.00    +0.144 A 
ATOM      6  S   LIG    1       25.798 -22.304   8.048  0.00  0.00    +0.068 S 
ATOM      7  O   LIG    1       26.385 -23.620   8.027  0.00  0.00    -0.152 OA
ATOM      8  O   LIG    1       25.358 -21.650   9.264  0.00  0.00    -0.152 OA
ATOM      9  N   LIG    1       24.539 -22.178   6.902  0.00  0.00    -0.174 NA
ATOM     10  C   LIG    1       28.053 -19.449   6.295  0.00  0.00    +0.043 A 
ATOM     11  C   LIG    1       24.329 -20.759   6.429  0.00  0.00    +0.133 C 
ENDROOT
BRANCH   5  12
ATOM     12  S   LIG    1       30.812 -19.487   7.197  0.00  0.00    +0.062 S 
ATOM     13  O   LIG    1       31.194 -19.176   5.830  0.00  0.00    -0.153 OA
ATOM     14  O   LIG    1       31.407 -20.553   7.956  0.00  0.00    -0.153 OA
BRANCH  12  15
ATOM     15  N   LIG    1       30.970 -18.077   8.091  0.00  0.00    -0.203 NA
ATOM     16  H   LIG    1       31.413 -18.236   8.995  0.00  0.00    +0.144 HD
ATOM     17  H   LIG    1       31.397 -17.326   7.543  0.00  0.00    +0.144 HD
ENDBRANCH  12  15
ENDBRANCH   5  12
BRANCH   1  18
ATOM     18  N   LIG    1       25.812 -20.678   4.327  0.00  0.00    -0.308 NA
ATOM     19  H   LIG    1       26.737 -20.374   4.018  0.00  0.00    +0.122 HD
BRANCH  18  21
ATOM     20  C   LIG    1       24.456 -18.803   3.502  0.00  0.00    +0.020 C 
ATOM     21  C   LIG    1       24.837 -20.263   3.316  0.00  0.00    +0.078 C 
ENDBRANCH  18  21
ENDBRANCH   1  18
BRANCH   9  22
ATOM     22  C   LIG    1       24.428 -23.264   5.892  0.00  0.00    +0.112 C 
BRANCH  22  23
ATOM     23  C   LIG    1       23.646 -24.450   6.460  0.00  0.00    +0.045 C 
BRANCH  23  24
ATOM     24  C   LIG    1       24.186 -25.800   6.009  0.00  0.00    +0.161 C 
BRANCH  24  25
ATOM     25  O   LIG    1       25.470 -25.564   5.424  0.00  0.00    -0.383 OA
ATOM     26  C   LIG    1       26.417 -26.558   5.788  0.00  0.00    +0.193 C 
ENDBRANCH  24  25
ENDBRANCH  23  24
ENDBRANCH  22  23
ENDBRANCH   9  22
TORSDOF 8
ENDMDL
MODEL 2
REMARK VINA RESULT:      -6.3      3.705      6.711
REMARK  Name = *****
REMARK                            x       y       z     vdW  Elec       q    Type
REMARK                         _______ _______ _______ _____ _____    ______ ____
ROOT
ATOM      1  C   LIG    1       26.388 -21.797   7.293  0.00  0.00    +0.102 C 
ATOM      2  C   LIG    1       25.790 -23.089   6.750  0.00  0.00    +0.006 A 
ATOM      3  C   LIG    1       24.832 -23.080   5.754  0.00  0.00    +0.149 A 
ATOM      4  S   LIG    1       24.350 -24.619   5.250  0.00  0.00    -0.048 S 
ATOM      5  C   LIG    1       25.433 -25.376   6.338  0.00  0.00    +0.144 A 
ATOM      6  S   LIG    1       24.038 -21.662   5.041  0.00  0.00    +0.068 S 
ATOM      7  O   LIG    1       24.126 -21.811   3.610  0.00  0.00    -0.152 OA
ATOM      8  O   LIG    1       22.780 -21.599   5.756  0.00  0.00    -0.152 OA
ATOM      9  N   LIG    1       25.012 -20.368   5.581  0.00  0.00    -0.174 NA
ATOM     10  C   LIG    1       26.087 -24.443   7.133  0.00  0.00    +0.043 A 
ATOM     11  C   LIG    1       25.463 -20.545   7.012  0.00  0.00    +0.133 C 
ENDROOT
BRANCH   5  12
ATOM     12  S   LIG    1       25.550 -27.148   6.227  0.00  0.00    +0.062 S 
ATOM     13  O   LIG    1       26.445 -27.383   5.107  0.00  0.00    -0.153 OA
ATOM     14  O   LIG    1       24.187 -27.602   6.253  0.00  0.00    -0.153 OA
BRANCH  12  15
ATOM     15  N   LIG    1       26.309 -27.741   7.602  0.00  0.00    -0.203 NA
ATOM     16  H   LIG    1       25.692 -27.751   8.414  0.00  0.00    +0.144 HD
ATOM     17  H   LIG    1       26.778 -28.632   7.422  0.00  0.00    +0.144 HD
ENDBRANCH  12  15
ENDBRANCH   5  12
BRANCH   1  18
ATOM     18  N   LIG    1       27.739 -21.705   6.709  0.00  0.00    -0.308 NA
ATOM     19  H   LIG    1       28.171 -22.631   6.734  0.00  0.00    +0.122 HD
BRANCH  18  21
ATOM     20  C   LIG    1       29.232 -19.768   6.474  0.00  0.00    +0.020 C 
ATOM     21  C   LIG    1       28.615 -20.777   7.428  0.00  0.00    +0.078 C 
ENDBRANCH  18  21
ENDBRANCH   1  18
BRANCH   9  22
ATOM     22  C   LIG    1       25.992 -19.805   4.614  0.00  0.00    +0.112 C 
BRANCH  22  23
ATOM     23  C   LIG    1       25.358 -18.676   3.800  0.00  0.00    +0.045 C 
BRANCH  23  24
ATOM     24  C   LIG    1       26.364 -17.638   3.325  0.00  0.00    +0.161 C 
BRANCH  24  25
ATOM     25  O   LIG    1       25.655 -16.406   3.171  0.00  0.00    -0.383 OA
ATOM     26  C   LIG    1       26.480 -15.276   3.417  0.00  0.00    +0.193 C 
ENDBRANCH  24  25
ENDBRANCH  23  24
ENDBRANCH  22  23
ENDBRANCH   9  22
TORSDOF 8
ENDMDL
MODEL 3
REMARK VINA RESULT:      -6.2      3.757      6.421
REMARK  Name = *****
REMARK                            x       y       z     vdW  Elec       q    Type
REMARK                         _______ _______ _______ _____ _____    ______ ____
ROOT
ATOM      1  C   LIG    1       26.338 -21.939   7.463  0.00  0.00    +0.102 C 
ATOM      2  C   LIG    1       25.754 -23.219   6.879  0.00  0.00    +0.006 A 
ATOM      3  C   LIG    1       24.831 -23.189   5.850  0.00  0.00    +0.149 A 
ATOM      4  S   LIG    1       24.360 -24.718   5.305  0.00  0.00    -0.048 S 
ATOM      5  C   LIG    1       25.402 -25.497   6.417  0.00  0.00    +0.144 A 
ATOM      6  S   LIG    1       24.068 -21.756   5.134  0.00  0.00    +0.068 S 
ATOM      7  O   LIG    1       24.204 -21.882   3.705  0.00  0.00    -0.152 OA
ATOM      8  O   LIG    1       22.786 -21.699   5.807  0.00  0.00    -0.152 OA
ATOM      9  N   LIG    1       25.028 -20.476   5.729  0.00  0.00    -0.174 NA
ATOM     10  C   LIG    1       26.032 -24.581   7.248  0.00  0.00    +0.043 A 
ATOM     11  C   LIG    1       25.428 -20.678   7.171  0.00  0.00    +0.133 C 
ENDROOT
BRANCH   5  12
ATOM     12  S   LIG    1       25.516 -27.268   6.280  0.00  0.00    +0.062 S 
ATOM     13  O   LIG    1       26.376 -27.489   5.130  0.00  0.00    -0.153 OA
ATOM     14  O   LIG    1       24.154 -27.723   6.342  0.00  0.00    -0.153 OA
BRANCH  12  15
ATOM     15  N   LIG    1       26.316 -27.878   7.623  0.00  0.00    -0.203 NA
ATOM     16  H   LIG    1       25.732 -28.508   8.172  0.00  0.00    +0.144 HD
ATOM     17  H   LIG    1       27.231 -28.262   7.378  0.00  0.00    +0.144 HD
ENDBRANCH  12  15
ENDBRANCH   5  12
BRANCH   1  18
ATOM     18  N   LIG    1       27.709 -21.844   6.927  0.00  0.00    -0.308 NA
ATOM     19  H   LIG    1       28.165 -22.753   7.030  0.00  0.00    +0.122 HD
BRANCH  18  21
ATOM     20  C   LIG    1       29.282 -19.982   6.619  0.00  0.00    +0.020 C 
ATOM     21  C   LIG    1       28.529 -20.846   7.618  0.00  0.00    +0.078 C 
ENDBRANCH  18  21
ENDBRANCH   1  18
BRANCH   9  22
ATOM     22  C   LIG    1       26.042 -19.902   4.806  0.00  0.00    +0.112 C 
BRANCH  22  23
ATOM     23  C   LIG    1       25.375 -19.357   3.542  0.00  0.00    +0.045 C 
BRANCH  23  24
ATOM     24  C   LIG    1       24.391 -18.229   3.819  0.00  0.00    +0.161 C 
BRANCH  24  25
ATOM     25  O   LIG    1       23.082 -18.737   3.545  0.00  0.00    -0.383 OA
ATOM     26  C   LIG    1       22.152 -18.403   4.565  0.00  0.00    +0.193 C 
ENDBRANCH  24  25
ENDBRANCH  23  24
ENDBRANCH  22  23
ENDBRANCH   9  22
TORSDOF 8
ENDMDL
MODEL 4
REMARK VINA RESULT:      -5.7      6.050      9.390
REMARK  Name = *****
REMARK                            x       y       z     vdW  Elec       q    Type
REMARK                         _______ _______ _______ _____ _____    ______ ____
ROOT
ATOM      1  C   LIG    1       26.161 -29.757   8.917  0.00  0.00    +0.102 C 
ATOM      2  C   LIG    1       25.718 -28.845   7.780  0.00  0.00    +0.006 A 
ATOM      3  C   LIG    1       25.038 -29.337   6.682  0.00  0.00    +0.149 A 
ATOM      4  S   LIG    1       24.580 -28.150   5.569  0.00  0.00    -0.048 S 
ATOM      5  C   LIG    1       25.258 -26.907   6.531  0.00  0.00    +0.144 A 
ATOM      6  S   LIG    1       24.684 -31.035   6.310  0.00  0.00    +0.068 S 
ATOM      7  O   LIG    1       23.280 -31.109   5.993  0.00  0.00    -0.152 OA
ATOM      8  O   LIG    1       25.730 -31.388   5.371  0.00  0.00    -0.152 OA
ATOM      9  N   LIG    1       25.019 -31.826   7.785  0.00  0.00    -0.174 NA
ATOM     10  C   LIG    1       25.900 -27.424   7.649  0.00  0.00    +0.043 A 
ATOM     11  C   LIG    1       26.246 -31.272   8.470  0.00  0.00    +0.133 C 
ENDROOT
BRANCH   5  12
ATOM     12  S   LIG    1       24.990 -25.241   5.968  0.00  0.00    +0.062 S 
ATOM     13  O   LIG    1       25.077 -25.329   4.520  0.00  0.00    -0.153 OA
ATOM     14  O   LIG    1       25.884 -24.443   6.762  0.00  0.00    -0.153 OA
BRANCH  12  15
ATOM     15  N   LIG    1       23.422 -24.773   6.344  0.00  0.00    -0.203 NA
ATOM     16  H   LIG    1       23.368 -24.264   7.225  0.00  0.00    +0.144 HD
ATOM     17  H   LIG    1       22.968 -24.302   5.558  0.00  0.00    +0.144 HD
ENDBRANCH  12  15
ENDBRANCH   5  12
BRANCH   1  18
ATOM     18  N   LIG    1       25.226 -29.496  10.028  0.00  0.00    -0.308 NA
ATOM     19  H   LIG    1       24.674 -28.666   9.803  0.00  0.00    +0.122 HD
BRANCH  18  21
ATOM     20  C   LIG    1       26.848 -28.072  11.201  0.00  0.00    +0.020 C 
ATOM     21  C   LIG    1       25.902 -29.257  11.305  0.00  0.00    +0.078 C 
ENDBRANCH  18  21
ENDBRANCH   1  18
BRANCH   9  22
ATOM     22  C   LIG    1       23.858 -32.189   8.640  0.00  0.00    +0.112 C 
BRANCH  22  23
ATOM     23  C   LIG    1       24.296 -33.111   9.780  0.00  0.00    +0.045 C 
BRANCH  23  24
ATOM     24  C   LIG    1       23.790 -32.664  11.144  0.00  0.00    +0.161 C 
BRANCH  24  25
ATOM     25  O   LIG    1       23.110 -31.421  10.953  0.00  0.00    -0.383 OA
ATOM     26  C   LIG    1       22.476 -30.967  12.140  0.00  0.00    +0.193 C 
ENDBRANCH  24  25
ENDBRANCH  23  24
ENDBRANCH  22  23
ENDBRANCH   9  22
TORSDOF 8
ENDMDL
MODEL 5
REMARK VINA RESULT:      -5.4      3.695      6.070
REMARK  Name = *****
REMARK                            x       y       z     vdW  Elec       q    Type
REMARK                         _______ _______ _______ _____ _____    ______ ____
ROOT
ATOM      1  C   LIG    1       26.221 -21.713   7.246  0.00  0.00    +0.102 C 
ATOM      2  C   LIG    1       25.603 -23.072   6.946  0.00  0.00    +0.006 A 
ATOM      3  C   LIG    1       24.249 -23.214   6.707  0.00  0.00    +0.149 A 
ATOM      4  S   LIG    1       23.780 -24.794   6.330  0.00  0.00    -0.048 S 
ATOM      5  C   LIG    1       25.390 -25.360   6.445  0.00  0.00    +0.144 A 
ATOM      6  S   LIG    1       22.999 -21.961   6.833  0.00  0.00    +0.068 S 
ATOM      7  O   LIG    1       22.229 -22.016   5.616  0.00  0.00    -0.152 OA
ATOM      8  O   LIG    1       22.429 -22.199   8.143  0.00  0.00    -0.152 OA
ATOM      9  N   LIG    1       23.911 -20.521   6.914  0.00  0.00    -0.174 NA
ATOM     10  C   LIG    1       26.254 -24.352   6.854  0.00  0.00    +0.043 A 
ATOM     11  C   LIG    1       25.150 -20.670   7.765  0.00  0.00    +0.133 C 
ENDROOT
BRANCH   5  12
ATOM     12  S   LIG    1       25.662 -27.060   5.996  0.00  0.00    +0.062 S 
ATOM     13  O   LIG    1       26.749 -27.012   5.032  0.00  0.00    -0.153 OA
ATOM     14  O   LIG    1       24.353 -27.562   5.678  0.00  0.00    -0.153 OA
BRANCH  12  15
ATOM     15  N   LIG    1       26.220 -27.906   7.333  0.00  0.00    -0.203 NA
ATOM     16  H   LIG    1       27.002 -27.439   7.791  0.00  0.00    +0.144 HD
ATOM     17  H   LIG    1       25.458 -28.163   7.965  0.00  0.00    +0.144 HD
ENDBRANCH  12  15
ENDBRANCH   5  12
BRANCH   1  18
ATOM     18  N   LIG    1       26.922 -21.310   6.012  0.00  0.00    -0.308 NA
ATOM     19  H   LIG    1       27.544 -22.069   5.725  0.00  0.00    +0.122 HD
BRANCH  18  21
ATOM     20  C   LIG    1       29.126 -20.447   6.670  0.00  0.00    +0.020 C 
ATOM     21  C   LIG    1       27.730 -20.100   6.177  0.00  0.00    +0.078 C 
ENDBRANCH  18  21
ENDBRANCH   1  18
BRANCH   9  22
ATOM     22  C   LIG    1       24.024 -19.717   5.668  0.00  0.00    +0.112 C 
BRANCH  22  23
ATOM     23  C   LIG    1       24.246 -20.626   4.458  0.00  0.00    +0.045 C 
BRANCH  23  24
ATOM     24  C   LIG    1       24.968 -19.936   3.310  0.00  0.00    +0.161 C 
BRANCH  24  25
ATOM     25  O   LIG    1       24.711 -18.535   3.434  0.00  0.00    -0.383 OA
ATOM     26  C   LIG    1       25.890 -17.756   3.289  0.00  0.00    +0.193 C 
ENDBRANCH  24  25
ENDBRANCH  23  24
ENDBRANCH  22  23
ENDBRANCH   9  22
TORSDOF 8
ENDMDL
MODEL 6
REMARK VINA RESULT:      -5.0      1.326      1.987
REMARK  Name = *****
REMARK                            x       y       z     vdW  Elec       q    Type
REMARK                         _______ _______ _______ _____ _____    ______ ____
ROOT
ATOM      1  C   LIG    1       25.872 -19.953   5.804  0.00  0.00    +0.102 C 
ATOM      2  C   LIG    1       27.175 -20.088   6.583  0.00  0.00    +0.006 A 
ATOM      3  C   LIG    1       27.310 -21.000   7.612  0.00  0.00    +0.149 A 
ATOM      4  S   LIG    1       28.853 -21.035   8.301  0.00  0.00    -0.048 S 
ATOM      5  C   LIG    1       29.423 -19.834   7.223  0.00  0.00    +0.144 A 
ATOM      6  S   LIG    1       26.047 -22.038   8.301  0.00  0.00    +0.068 S 
ATOM      7  O   LIG    1       26.584 -23.375   8.347  0.00  0.00    -0.152 OA
ATOM      8  O   LIG    1       25.633 -21.308   9.481  0.00  0.00    -0.152 OA
ATOM      9  N   LIG    1       24.792 -21.924   7.149  0.00  0.00    -0.174 NA
ATOM     10  C   LIG    1       28.404 -19.361   6.407  0.00  0.00    +0.043 A 
ATOM     11  C   LIG    1       24.634 -20.524   6.605  0.00  0.00    +0.133 C 
ENDROOT
BRANCH   5  12
ATOM     12  S   LIG    1       31.160 -19.457   7.311  0.00  0.00    +0.062 S 
ATOM     13  O   LIG    1       31.553 -19.233   5.929  0.00  0.00    -0.153 OA
ATOM     14  O   LIG    1       31.715 -20.502   8.126  0.00  0.00    -0.153 OA
BRANCH  12  15
ATOM     15  N   LIG    1       31.372 -18.007   8.128  0.00  0.00    -0.203 NA
ATOM     16  H   LIG    1       32.232 -17.990   8.675  0.00  0.00    +0.144 HD
ATOM     17  H   LIG    1       31.253 -17.201   7.510  0.00  0.00    +0.144 HD
ENDBRANCH  12  15
ENDBRANCH   5  12
BRANCH   1  18
ATOM     18  N   LIG    1       26.115 -20.604   4.503  0.00  0.00    -0.308 NA
ATOM     19  H   LIG    1       27.045 -20.338   4.171  0.00  0.00    +0.122 HD
BRANCH  18  21
ATOM     20  C   LIG    1       24.883 -18.724   3.512  0.00  0.00    +0.020 C 
ATOM     21  C   LIG    1       25.142 -20.221   3.477  0.00  0.00    +0.078 C 
ENDBRANCH  18  21
ENDBRANCH   1  18
BRANCH   9  22
ATOM     22  C   LIG    1       24.639 -23.055   6.196  0.00  0.00    +0.112 C 
BRANCH  22  23
ATOM     23  C   LIG    1       23.327 -23.800   6.449  0.00  0.00    +0.045 C 
BRANCH  23  24
ATOM     24  C   LIG    1       22.146 -22.874   6.699  0.00  0.00    +0.161 C 
BRANCH  24  25
ATOM     25  O   LIG    1       21.611 -22.520   5.422  0.00  0.00    -0.383 OA
ATOM     26  C   LIG    1       21.907 -21.176   5.069  0.00  0.00    +0.193 C 
ENDBRANCH  24  25
ENDBRANCH  23  24
ENDBRANCH  22  23
ENDBRANCH   9  22
TORSDOF 8
ENDMDL
MODEL 7
REMARK VINA RESULT:      -4.8      3.359      6.971
REMARK  Name = *****
REMARK                            x       y       z     vdW  Elec       q    Type
REMARK                         _______ _______ _______ _____ _____    ______ ____
ROOT
ATOM      1  C   LIG    1       28.853 -18.711   4.976  0.00  0.00    +0.102 C 
ATOM      2  C   LIG    1       27.621 -19.527   5.347  0.00  0.00    +0.006 A 
ATOM      3  C   LIG    1       27.497 -20.127   6.586  0.00  0.00    +0.149 A 
ATOM      4  S   LIG    1       26.027 -20.928   6.817  0.00  0.00    -0.048 S 
ATOM      5  C   LIG    1       25.474 -20.481   5.260  0.00  0.00    +0.144 A 
ATOM      6  S   LIG    1       28.717 -20.198   7.872  0.00  0.00    +0.068 S 
ATOM      7  O   LIG    1       28.065 -19.783   9.088  0.00  0.00    -0.152 OA
ATOM      8  O   LIG    1       29.303 -21.510   7.693  0.00  0.00    -0.152 OA
ATOM      9  N   LIG    1       29.866 -19.039   7.370  0.00  0.00    -0.174 NA
ATOM     10  C   LIG    1       26.453 -19.798   4.551  0.00  0.00    +0.043 A 
ATOM     11  C   LIG    1       30.102 -19.070   5.878  0.00  0.00    +0.133 C 
ENDROOT
BRANCH   5  12
ATOM     12  S   LIG    1       23.795 -20.919   4.865  0.00  0.00    +0.062 S 
ATOM     13  O   LIG    1       23.806 -21.142   3.429  0.00  0.00    -0.153 OA
ATOM     14  O   LIG    1       22.999 -19.901   5.495  0.00  0.00    -0.153 OA
BRANCH  12  15
ATOM     15  N   LIG    1       23.417 -22.383   5.593  0.00  0.00    -0.203 NA
ATOM     16  H   LIG    1       23.618 -22.385   6.592  0.00  0.00    +0.144 HD
ATOM     17  H   LIG    1       22.472 -22.692   5.355  0.00  0.00    +0.144 HD
ENDBRANCH  12  15
ENDBRANCH   5  12
BRANCH   1  18
ATOM     18  N   LIG    1       28.433 -17.298   5.043  0.00  0.00    -0.308 NA
ATOM     19  H   LIG    1       27.919 -17.150   5.914  0.00  0.00    +0.122 HD
BRANCH  18  21
ATOM     20  C   LIG    1       27.358 -15.397   3.919  0.00  0.00    +0.020 C 
ATOM     21  C   LIG    1       27.564 -16.903   3.932  0.00  0.00    +0.078 C 
ENDBRANCH  18  21
ENDBRANCH   1  18
BRANCH   9  22
ATOM     22  C   LIG    1       29.825 -17.709   8.034  0.00  0.00    +0.112 C 
BRANCH  22  23
ATOM     23  C   LIG    1       30.892 -17.619   9.127  0.00  0.00    +0.045 C 
BRANCH  23  24
ATOM     24  C   LIG    1       30.318 -17.684  10.535  0.00  0.00    +0.161 C 
BRANCH  24  25
ATOM     25  O   LIG    1       30.439 -16.375  11.098  0.00  0.00    -0.383 OA
ATOM     26  C   LIG    1       31.580 -16.254  11.935  0.00  0.00    +0.193 C 
ENDBRANCH  24  25
ENDBRANCH  23  24
ENDBRANCH  22  23
ENDBRANCH   9  22
TORSDOF 8
ENDMDL
MODEL 8
REMARK VINA RESULT:      -4.7      6.960      9.944
REMARK  Name = *****
REMARK                            x       y       z     vdW  Elec       q    Type
REMARK                         _______ _______ _______ _____ _____    ______ ____
ROOT
ATOM      1  C   LIG    1       26.174 -29.663  10.864  0.00  0.00    +0.102 C 
ATOM      2  C   LIG    1       25.830 -29.246   9.440  0.00  0.00    +0.006 A 
ATOM      3  C   LIG    1       24.896 -29.934   8.690  0.00  0.00    +0.149 A 
ATOM      4  S   LIG    1       24.615 -29.268   7.162  0.00  0.00    -0.048 S 
ATOM      5  C   LIG    1       25.726 -27.998   7.449  0.00  0.00    +0.144 A 
ATOM      6  S   LIG    1       24.058 -31.434   9.132  0.00  0.00    +0.068 S 
ATOM      7  O   LIG    1       22.654 -31.214   8.893  0.00  0.00    -0.152 OA
ATOM      8  O   LIG    1       24.829 -32.452   8.449  0.00  0.00    -0.152 OA
ATOM      9  N   LIG    1       24.379 -31.570  10.804  0.00  0.00    -0.174 NA
ATOM     10  C   LIG    1       26.361 -28.148   8.676  0.00  0.00    +0.043 A 
ATOM     11  C   LIG    1       25.793 -31.171  11.154  0.00  0.00    +0.133 C 
ENDROOT
BRANCH   5  12
ATOM     12  S   LIG    1       25.829 -26.743   6.192  0.00  0.00    +0.062 S 
ATOM     13  O   LIG    1       25.945 -25.497   6.932  0.00  0.00    -0.153 OA
ATOM     14  O   LIG    1       24.736 -27.031   5.304  0.00  0.00    -0.153 OA
BRANCH  12  15
ATOM     15  N   LIG    1       27.253 -26.941   5.326  0.00  0.00    -0.203 NA
ATOM     16  H   LIG    1       27.089 -27.046   4.325  0.00  0.00    +0.144 HD
ATOM     17  H   LIG    1       27.944 -26.226   5.563  0.00  0.00    +0.144 HD
ENDBRANCH  12  15
ENDBRANCH   5  12
BRANCH   1  18
ATOM     18  N   LIG    1       25.509 -28.681  11.741  0.00  0.00    -0.308 NA
ATOM     19  H   LIG    1       25.198 -27.891  11.172  0.00  0.00    +0.122 HD
BRANCH  18  21
ATOM     20  C   LIG    1       26.730 -26.706  12.541  0.00  0.00    +0.020 C 
ATOM     21  C   LIG    1       26.385 -28.164  12.795  0.00  0.00    +0.078 C 
ENDBRANCH  18  21
ENDBRANCH   1  18
BRANCH   9  22
ATOM     22  C   LIG    1       23.296 -31.162  11.738  0.00  0.00    +0.112 C 
BRANCH  22  23
ATOM     23  C   LIG    1       22.418 -32.361  12.102  0.00  0.00    +0.045 C 
BRANCH  23  24
ATOM     24  C   LIG    1       20.965 -31.987  12.359  0.00  0.00    +0.161 C 
BRANCH  24  25
ATOM     25  O   LIG    1       20.669 -30.860  11.530  0.00  0.00    -0.383 OA
ATOM     26  C   LIG    1       19.628 -31.133  10.603  0.00  0.00    +0.193 C 
ENDBRANCH  24  25
ENDBRANCH  23  24
ENDBRANCH  22  23
ENDBRANCH   9  22
TORSDOF 8
ENDMDL
MODEL 9
REMARK VINA RESULT:      -4.7      3.028      6.642
REMARK  Name = *****
REMARK                            x       y       z     vdW  Elec       q    Type
REMARK                         _______ _______ _______ _____ _____    ______ ____
ROOT
ATOM      1  C   LIG    1       26.331 -22.065   7.731  0.00  0.00    +0.102 C 
ATOM      2  C   LIG    1       25.756 -23.298   7.044  0.00  0.00    +0.006 A 
ATOM      3  C   LIG    1       24.961 -23.195   5.919  0.00  0.00    +0.149 A 
ATOM      4  S   LIG    1       24.483 -24.683   5.276  0.00  0.00    -0.048 S 
ATOM      5  C   LIG    1       25.349 -25.543   6.475  0.00  0.00    +0.144 A 
ATOM      6  S   LIG    1       24.357 -21.707   5.164  0.00  0.00    +0.068 S 
ATOM      7  O   LIG    1       24.652 -21.804   3.757  0.00  0.00    -0.152 OA
ATOM      8  O   LIG    1       23.011 -21.599   5.687  0.00  0.00    -0.152 OA
ATOM      9  N   LIG    1       25.303 -20.494   5.904  0.00  0.00    -0.174 NA
ATOM     10  C   LIG    1       25.923 -24.682   7.402  0.00  0.00    +0.043 A 
ATOM     11  C   LIG    1       25.524 -20.752   7.376  0.00  0.00    +0.133 C 
ENDROOT
BRANCH   5  12
ATOM     12  S   LIG    1       25.392 -27.313   6.299  0.00  0.00    +0.062 S 
ATOM     13  O   LIG    1       24.093 -27.653   5.741  0.00  0.00    -0.153 OA
ATOM     14  O   LIG    1       25.849 -27.792   7.574  0.00  0.00    -0.153 OA
BRANCH  12  15
ATOM     15  N   LIG    1       26.547 -27.730   5.156  0.00  0.00    -0.203 NA
ATOM     16  H   LIG    1       27.458 -27.920   5.574  0.00  0.00    +0.144 HD
ATOM     17  H   LIG    1       26.213 -28.464   4.528  0.00  0.00    +0.144 HD
ENDBRANCH  12  15
ENDBRANCH   5  12
BRANCH   1  18
ATOM     18  N   LIG    1       27.758 -22.029   7.359  0.00  0.00    -0.308 NA
ATOM     19  H   LIG    1       28.105 -22.988   7.295  0.00  0.00    +0.122 HD
BRANCH  18  21
ATOM     20  C   LIG    1       30.032 -21.777   8.253  0.00  0.00    +0.020 C 
ATOM     21  C   LIG    1       28.588 -21.311   8.330  0.00  0.00    +0.078 C 
ENDBRANCH  18  21
ENDBRANCH   1  18
BRANCH   9  22
ATOM     22  C   LIG    1       26.445 -19.950   5.122  0.00  0.00    +0.112 C 
BRANCH  22  23
ATOM     23  C   LIG    1       27.493 -19.337   6.052  0.00  0.00    +0.045 C 
BRANCH  23  24
ATOM     24  C   LIG    1       28.855 -19.165   5.395  0.00  0.00    +0.161 C 
BRANCH  24  25
ATOM     25  O   LIG    1       29.624 -18.306   6.240  0.00  0.00    -0.383 OA
ATOM     26  C   LIG    1       30.821 -18.924   6.689  0.00  0.00    +0.193 C 
ENDBRANCH  24  25
ENDBRANCH  23  24
ENDBRANCH  22  23
ENDBRANCH   9  22
TORSDOF 8
ENDMDL
