MODEL 1
REMARK VINA RESULT:      27.1      0.000      0.000
REMARK  Name = *****
REMARK                            x       y       z     vdW  Elec       q    Type
REMARK                         _______ _______ _______ _____ _____    ______ ____
ROOT
ATOM      1  C   LIG    1       28.314 -11.921   4.338  0.00  0.00    +0.073 C 
ATOM      2  C   LIG    1       27.680 -13.308   4.419  0.00  0.00    +0.166 C 
ATOM      3  O   LIG    1       26.263 -13.177   4.573  0.00  0.00    -0.332 OA
ATOM      4  C   LIG    1       25.679 -13.404   3.288  0.00  0.00    +0.164 C 
ATOM      5  C   LIG    1       26.743 -14.219   2.532  0.00  0.00    +0.162 C 
ATOM      6  C   LIG    1       26.327 -15.702   2.625  0.00  0.00    +0.039 C 
ATOM      7  C   LIG    1       25.208 -15.705   3.669  0.00  0.00    +0.006 C 
ATOM      8  C   LIG    1       24.275 -16.925   3.756  0.00  0.00    +0.019 C 
ATOM      9  C   LIG    1       23.197 -16.760   4.907  0.00  0.00    +0.077 C 
ATOM     10  C   LIG    1       22.519 -15.332   4.772  0.00  0.00    +0.103 C 
ATOM     11 CL   LIG    1       21.457 -14.849   6.143  0.00  0.00    -0.120 Cl
ATOM     12  C   LIG    1       23.510 -14.153   4.573  0.00  0.00    +0.031 C 
ATOM     13 CL   LIG    1       24.107 -16.776   6.516  0.00  0.00    -0.115 Cl
ATOM     14  C   LIG    1       22.194 -18.030   4.883  0.00  0.00    +0.031 C 
ATOM     15  C   LIG    1       22.974 -19.385   4.808  0.00  0.00    -0.021 C 
ATOM     16  C   LIG    1       22.251 -20.533   4.789  0.00  0.00    +0.054 C 
ATOM     17  C   LIG    1       21.220 -20.528   3.679  0.00  0.00    +0.179 C 
ATOM     18  C   LIG    1       20.815 -19.201   3.119  0.00  0.00    +0.047 C 
ATOM     19  O   LIG    1       20.678 -21.560   3.320  0.00  0.00    -0.288 OA
ATOM     20  C   LIG    1       24.179 -19.430   3.880  0.00  0.00    +0.194 C 
ATOM     21  F   LIG    1       23.758 -19.550   2.585  0.00  0.00    -0.241 F 
ATOM     22  C   LIG    1       21.248 -18.057   6.122  0.00  0.00    +0.022 C 
ATOM     23  C   LIG    1       21.243 -18.052   3.673  0.00  0.00    -0.010 C 
ATOM     24  C   LIG    1       25.085 -18.218   3.925  0.00  0.00    +0.047 C 
ATOM     25  C   LIG    1       24.465 -14.379   3.393  0.00  0.00    +0.011 C 
ATOM     26  C   LIG    1       23.664 -14.383   2.064  0.00  0.00    +0.015 C 
ATOM     27  O   LIG    1       27.976 -14.020   3.221  0.00  0.00    -0.343 OA
ATOM     28  C   LIG    1       28.234 -14.080   5.609  0.00  0.00    +0.073 C 
ENDROOT
BRANCH   4  29
ATOM     29  C   LIG    1       25.364 -12.065   2.606  0.00  0.00    +0.193 C 
ATOM     30  O   LIG    1       26.143 -11.525   1.812  0.00  0.00    -0.292 OA
BRANCH  29  31
ATOM     31  C   LIG    1       23.991 -11.447   2.868  0.00  0.00    +0.233 C 
BRANCH  31  32
ATOM     32  O   LIG    1       23.684 -11.454   4.251  0.00  0.00    -0.387 OA
ATOM     33  H   LIG    1       22.713 -11.375   4.321  0.00  0.00    +0.210 HD
ENDBRANCH  31  32
ENDBRANCH  29  31
ENDBRANCH   4  29
TORSDOF 3
ENDMDL
