MODEL 1
REMARK VINA RESULT:      -4.2      0.000      0.000
REMARK  Name = *****
REMARK                            x       y       z     vdW  Elec       q    Type
REMARK                         _______ _______ _______ _____ _____    ______ ____
ROOT
ATOM      1  C   LIG    1       23.791 -21.462   3.378  0.00  0.00    +0.027 C 
ATOM      2  C   LIG    1       24.625 -20.398   4.120  0.00  0.00    +0.086 C 
ATOM      3  N   LIG    1       23.800 -19.334   4.750  0.00  0.00    -0.298 NA
ATOM      4  C   LIG    1       22.886 -18.663   3.835  0.00  0.00    +0.105 C 
ATOM      5  C   LIG    1       23.104 -19.839   5.945  0.00  0.00    +0.112 C 
ATOM      6  C   LIG    1       24.079 -20.507   6.925  0.00  0.00    +0.176 C 
ATOM      7  O   LIG    1       24.812 -21.572   6.309  0.00  0.00    -0.369 OA
ATOM      8  C   LIG    1       25.557 -21.116   5.161  0.00  0.00    +0.165 C 
ENDROOT
BRANCH   8   9
ATOM      9  C   LIG    1       26.829 -20.398   5.601  0.00  0.00    -0.017 A 
ATOM     10  C   LIG    1       27.260 -19.281   4.862  0.00  0.00    +0.006 A 
ATOM     11  C   LIG    1       28.413 -18.580   5.223  0.00  0.00    +0.000 A 
ATOM     12  C   LIG    1       29.161 -18.991   6.320  0.00  0.00    +0.000 A 
ATOM     13  C   LIG    1       28.761 -20.105   7.055  0.00  0.00    +0.000 A 
ATOM     14  C   LIG    1       27.603 -20.803   6.698  0.00  0.00    +0.006 A 
ENDBRANCH   8   9
TORSDOF 1
ENDMDL
MODEL 2
REMARK VINA RESULT:      -3.4      2.663      4.377
REMARK  Name = *****
REMARK                            x       y       z     vdW  Elec       q    Type
REMARK                         _______ _______ _______ _____ _____    ______ ____
ROOT
ATOM      1  C   LIG    1       21.872 -20.745   4.726  0.00  0.00    +0.027 C 
ATOM      2  C   LIG    1       22.900 -19.645   5.057  0.00  0.00    +0.086 C 
ATOM      3  N   LIG    1       24.067 -20.140   5.833  0.00  0.00    -0.298 NA
ATOM      4  C   LIG    1       23.715 -20.840   7.062  0.00  0.00    +0.105 C 
ATOM      5  C   LIG    1       24.968 -20.939   4.988  0.00  0.00    +0.112 C 
ATOM      6  C   LIG    1       25.369 -20.179   3.716  0.00  0.00    +0.176 C 
ATOM      7  O   LIG    1       24.227 -19.772   2.953  0.00  0.00    -0.369 OA
ATOM      8  C   LIG    1       23.337 -18.938   3.723  0.00  0.00    +0.165 C 
ENDROOT
BRANCH   8   9
ATOM      9  C   LIG    1       23.878 -17.515   3.807  0.00  0.00    -0.017 A 
ATOM     10  C   LIG    1       23.058 -16.517   4.364  0.00  0.00    +0.006 A 
ATOM     11  C   LIG    1       23.502 -15.198   4.474  0.00  0.00    +0.000 A 
ATOM     12  C   LIG    1       24.768 -14.851   4.017  0.00  0.00    +0.000 A 
ATOM     13  C   LIG    1       25.589 -15.821   3.446  0.00  0.00    +0.000 A 
ATOM     14  C   LIG    1       25.147 -17.143   3.342  0.00  0.00    +0.006 A 
ENDBRANCH   8   9
TORSDOF 1
ENDMDL
MODEL 3
REMARK VINA RESULT:      -3.3      2.587      4.358
REMARK  Name = *****
REMARK                            x       y       z     vdW  Elec       q    Type
REMARK                         _______ _______ _______ _____ _____    ______ ____
ROOT
ATOM      1  C   LIG    1       21.923 -20.797   4.544  0.00  0.00    +0.027 C 
ATOM      2  C   LIG    1       22.851 -19.645   4.981  0.00  0.00    +0.086 C 
ATOM      3  N   LIG    1       23.953 -20.081   5.877  0.00  0.00    -0.298 NA
ATOM      4  C   LIG    1       23.512 -20.807   7.062  0.00  0.00    +0.105 C 
ATOM      5  C   LIG    1       24.981 -20.826   5.132  0.00  0.00    +0.112 C 
ATOM      6  C   LIG    1       25.472 -20.038   3.909  0.00  0.00    +0.176 C 
ATOM      7  O   LIG    1       24.397 -19.690   3.030  0.00  0.00    -0.369 OA
ATOM      8  C   LIG    1       23.387 -18.909   3.701  0.00  0.00    +0.165 C 
ENDROOT
BRANCH   8   9
ATOM      9  C   LIG    1       23.838 -17.459   3.841  0.00  0.00    -0.017 A 
ATOM     10  C   LIG    1       25.131 -17.114   3.408  0.00  0.00    +0.006 A 
ATOM     11  C   LIG    1       25.597 -15.801   3.504  0.00  0.00    +0.000 A 
ATOM     12  C   LIG    1       24.783 -14.813   4.047  0.00  0.00    +0.000 A 
ATOM     13  C   LIG    1       23.505 -15.138   4.499  0.00  0.00    +0.000 A 
ATOM     14  C   LIG    1       23.037 -16.451   4.396  0.00  0.00    +0.006 A 
ENDBRANCH   8   9
TORSDOF 1
ENDMDL
MODEL 4
REMARK VINA RESULT:      -3.2      1.485      2.461
REMARK  Name = *****
REMARK                            x       y       z     vdW  Elec       q    Type
REMARK                         _______ _______ _______ _____ _____    ______ ____
ROOT
ATOM      1  C   LIG    1       22.668 -18.696   4.473  0.00  0.00    +0.027 C 
ATOM      2  C   LIG    1       23.595 -19.780   5.059  0.00  0.00    +0.086 C 
ATOM      3  N   LIG    1       23.140 -21.166   4.774  0.00  0.00    -0.298 NA
ATOM      4  C   LIG    1       21.770 -21.443   5.187  0.00  0.00    +0.105 C 
ATOM      5  C   LIG    1       23.368 -21.520   3.364  0.00  0.00    +0.112 C 
ATOM      6  C   LIG    1       24.823 -21.265   2.947  0.00  0.00    +0.176 C 
ATOM      7  O   LIG    1       25.214 -19.906   3.170  0.00  0.00    -0.369 OA
ATOM      8  C   LIG    1       25.060 -19.524   4.553  0.00  0.00    +0.165 C 
ENDROOT
BRANCH   8   9
ATOM      9  C   LIG    1       26.215 -20.069   5.388  0.00  0.00    -0.017 A 
ATOM     10  C   LIG    1       27.496 -19.518   5.203  0.00  0.00    +0.006 A 
ATOM     11  C   LIG    1       28.589 -19.971   5.944  0.00  0.00    +0.000 A 
ATOM     12  C   LIG    1       28.424 -20.992   6.873  0.00  0.00    +0.000 A 
ATOM     13  C   LIG    1       27.166 -21.563   7.059  0.00  0.00    +0.000 A 
ATOM     14  C   LIG    1       26.071 -21.105   6.322  0.00  0.00    +0.006 A 
ENDBRANCH   8   9
TORSDOF 1
ENDMDL
MODEL 5
REMARK VINA RESULT:      -3.1      2.365      3.899
REMARK  Name = *****
REMARK                            x       y       z     vdW  Elec       q    Type
REMARK                         _______ _______ _______ _____ _____    ______ ____
ROOT
ATOM      1  C   LIG    1       23.784 -21.572   3.652  0.00  0.00    +0.027 C 
ATOM      2  C   LIG    1       23.903 -20.185   4.316  0.00  0.00    +0.086 C 
ATOM      3  N   LIG    1       24.120 -20.249   5.785  0.00  0.00    -0.298 NA
ATOM      4  C   LIG    1       23.123 -21.031   6.504  0.00  0.00    +0.105 C 
ATOM      5  C   LIG    1       25.490 -20.685   6.101  0.00  0.00    +0.112 C 
ATOM      6  C   LIG    1       26.536 -19.830   5.373  0.00  0.00    +0.176 C 
ATOM      7  O   LIG    1       26.344 -19.841   3.954  0.00  0.00    -0.369 OA
ATOM      8  C   LIG    1       25.031 -19.368   3.588  0.00  0.00    +0.165 C 
ENDROOT
BRANCH   8   9
ATOM      9  C   LIG    1       24.974 -17.845   3.657  0.00  0.00    -0.017 A 
ATOM     10  C   LIG    1       26.122 -17.114   3.301  0.00  0.00    +0.006 A 
ATOM     11  C   LIG    1       26.127 -15.718   3.338  0.00  0.00    +0.000 A 
ATOM     12  C   LIG    1       24.989 -15.030   3.742  0.00  0.00    +0.000 A 
ATOM     13  C   LIG    1       23.847 -15.736   4.114  0.00  0.00    +0.000 A 
ATOM     14  C   LIG    1       23.840 -17.133   4.071  0.00  0.00    +0.006 A 
ENDBRANCH   8   9
TORSDOF 1
ENDMDL
MODEL 6
REMARK VINA RESULT:      -3.0      4.975      6.719
REMARK  Name = *****
REMARK                            x       y       z     vdW  Elec       q    Type
REMARK                         _______ _______ _______ _____ _____    ______ ____
ROOT
ATOM      1  C   LIG    1       26.982 -12.970   4.900  0.00  0.00    +0.027 C 
ATOM      2  C   LIG    1       25.727 -13.833   4.656  0.00  0.00    +0.086 C 
ATOM      3  N   LIG    1       24.550 -13.050   4.199  0.00  0.00    -0.298 NA
ATOM      4  C   LIG    1       24.195 -11.938   5.071  0.00  0.00    +0.105 C 
ATOM      5  C   LIG    1       24.709 -12.619   2.800  0.00  0.00    +0.112 C 
ATOM      6  C   LIG    1       25.041 -13.802   1.880  0.00  0.00    +0.176 C 
ATOM      7  O   LIG    1       26.218 -14.497   2.306  0.00  0.00    -0.369 OA
ATOM      8  C   LIG    1       26.091 -14.990   3.657  0.00  0.00    +0.165 C 
ENDROOT
BRANCH   8   9
ATOM      9  C   LIG    1       25.243 -16.257   3.684  0.00  0.00    -0.017 A 
ATOM     10  C   LIG    1       25.839 -17.472   3.298  0.00  0.00    +0.006 A 
ATOM     11  C   LIG    1       25.115 -18.666   3.311  0.00  0.00    +0.000 A 
ATOM     12  C   LIG    1       23.780 -18.664   3.697  0.00  0.00    +0.000 A 
ATOM     13  C   LIG    1       23.166 -17.469   4.067  0.00  0.00    +0.000 A 
ATOM     14  C   LIG    1       23.893 -16.275   4.061  0.00  0.00    +0.006 A 
ENDBRANCH   8   9
TORSDOF 1
ENDMDL
MODEL 7
REMARK VINA RESULT:      -2.5      4.302      5.851
REMARK  Name = *****
REMARK                            x       y       z     vdW  Elec       q    Type
REMARK                         _______ _______ _______ _____ _____    ______ ____
ROOT
ATOM      1  C   LIG    1       28.218 -13.484   3.312  0.00  0.00    +0.027 C 
ATOM      2  C   LIG    1       27.564 -14.616   4.130  0.00  0.00    +0.086 C 
ATOM      3  N   LIG    1       26.646 -14.125   5.191  0.00  0.00    -0.298 NA
ATOM      4  C   LIG    1       27.250 -13.167   6.109  0.00  0.00    +0.105 C 
ATOM      5  C   LIG    1       25.393 -13.612   4.615  0.00  0.00    +0.112 C 
ATOM      6  C   LIG    1       24.740 -14.642   3.682  0.00  0.00    +0.176 C 
ATOM      7  O   LIG    1       25.623 -15.047   2.630  0.00  0.00    -0.369 OA
ATOM      8  C   LIG    1       26.848 -15.609   3.145  0.00  0.00    +0.165 C 
ENDROOT
BRANCH   8   9
ATOM      9  C   LIG    1       26.624 -17.044   3.608  0.00  0.00    -0.017 A 
ATOM     10  C   LIG    1       27.620 -17.662   4.386  0.00  0.00    +0.006 A 
ATOM     11  C   LIG    1       27.466 -18.972   4.845  0.00  0.00    +0.000 A 
ATOM     12  C   LIG    1       26.321 -19.691   4.523  0.00  0.00    +0.000 A 
ATOM     13  C   LIG    1       25.331 -19.104   3.739  0.00  0.00    +0.000 A 
ATOM     14  C   LIG    1       25.481 -17.790   3.285  0.00  0.00    +0.006 A 
ENDBRANCH   8   9
TORSDOF 1
ENDMDL
MODEL 8
REMARK VINA RESULT:      -2.1      5.088      6.956
REMARK  Name = *****
REMARK                            x       y       z     vdW  Elec       q    Type
REMARK                         _______ _______ _______ _____ _____    ______ ____
ROOT
ATOM      1  C   LIG    1       24.358 -11.928   4.758  0.00  0.00    +0.027 C 
ATOM      2  C   LIG    1       24.142 -13.184   3.889  0.00  0.00    +0.086 C 
ATOM      3  N   LIG    1       24.552 -13.000   2.472  0.00  0.00    -0.298 NA
ATOM      4  C   LIG    1       23.931 -11.858   1.812  0.00  0.00    +0.105 C 
ATOM      5  C   LIG    1       26.017 -12.976   2.340  0.00  0.00    +0.112 C 
ATOM      6  C   LIG    1       26.662 -14.203   3.000  0.00  0.00    +0.176 C 
ATOM      7  O   LIG    1       26.305 -14.318   4.382  0.00  0.00    -0.369 OA
ATOM      8  C   LIG    1       24.875 -14.400   4.561  0.00  0.00    +0.165 C 
ENDROOT
BRANCH   8   9
ATOM      9  C   LIG    1       24.378 -15.806   4.241  0.00  0.00    -0.017 A 
ATOM     10  C   LIG    1       23.030 -16.116   4.501  0.00  0.00    +0.006 A 
ATOM     11  C   LIG    1       22.516 -17.384   4.221  0.00  0.00    +0.000 A 
ATOM     12  C   LIG    1       23.343 -18.367   3.689  0.00  0.00    +0.000 A 
ATOM     13  C   LIG    1       24.685 -18.085   3.440  0.00  0.00    +0.000 A 
ATOM     14  C   LIG    1       25.197 -16.814   3.713  0.00  0.00    +0.006 A 
ENDBRANCH   8   9
TORSDOF 1
ENDMDL
MODEL 9
REMARK VINA RESULT:      -2.1      4.787      6.462
REMARK  Name = *****
REMARK                            x       y       z     vdW  Elec       q    Type
REMARK                         _______ _______ _______ _____ _____    ______ ____
ROOT
ATOM      1  C   LIG    1       26.098 -12.716   2.181  0.00  0.00    +0.027 C 
ATOM      2  C   LIG    1       26.388 -14.075   2.851  0.00  0.00    +0.086 C 
ATOM      3  N   LIG    1       27.378 -13.991   3.956  0.00  0.00    -0.298 NA
ATOM      4  C   LIG    1       28.643 -13.371   3.581  0.00  0.00    +0.105 C 
ATOM      5  C   LIG    1       26.793 -13.357   5.148  0.00  0.00    +0.112 C 
ATOM      6  C   LIG    1       25.482 -14.041   5.563  0.00  0.00    +0.176 C 
ATOM      7  O   LIG    1       24.522 -14.049   4.501  0.00  0.00    -0.369 OA
ATOM      8  C   LIG    1       25.030 -14.709   3.323  0.00  0.00    +0.165 C 
ENDROOT
BRANCH   8   9
ATOM      9  C   LIG    1       24.964 -16.224   3.491  0.00  0.00    -0.017 A 
ATOM     10  C   LIG    1       23.754 -16.799   3.921  0.00  0.00    +0.006 A 
ATOM     11  C   LIG    1       23.632 -18.181   4.085  0.00  0.00    +0.000 A 
ATOM     12  C   LIG    1       24.719 -19.009   3.834  0.00  0.00    +0.000 A 
ATOM     13  C   LIG    1       25.931 -18.457   3.424  0.00  0.00    +0.000 A 
ATOM     14  C   LIG    1       26.052 -17.075   3.253  0.00  0.00    +0.006 A 
ENDBRANCH   8   9
TORSDOF 1
ENDMDL
