MODEL 1
REMARK VINA RESULT:       3.1      0.000      0.000
REMARK  Name = *****
REMARK                            x       y       z     vdW  Elec       q    Type
REMARK                         _______ _______ _______ _____ _____    ______ ____
ROOT
ATOM      1  C   LIG    1       25.123 -14.575   3.433  0.00  0.00    +0.120 C 
ATOM      2  C   LIG    1       25.154 -16.088   3.446  0.00  0.00    -0.006 A 
ATOM      3  C   LIG    1       24.017 -16.575   4.075  0.00  0.00    -0.014 A 
ATOM      4  C   LIG    1       23.786 -17.934   4.220  0.00  0.00    +0.025 A 
ATOM      5  C   LIG    1       24.732 -18.839   3.710  0.00  0.00    +0.052 A 
ATOM      6  C   LIG    1       25.879 -18.343   3.052  0.00  0.00    +0.019 A 
ATOM      7  C   LIG    1       23.164 -15.444   4.507  0.00  0.00    +0.197 C 
ATOM      8  C   LIG    1       26.092 -16.968   2.916  0.00  0.00    +0.008 A 
ATOM      9  O   LIG    1       23.899 -14.250   4.169  0.00  0.00    -0.359 OA
ENDROOT
BRANCH   1  10
ATOM     10  C   LIG    1       26.313 -13.970   4.195  0.00  0.00    -0.011 A 
ATOM     11  C   LIG    1       26.267 -13.823   5.599  0.00  0.00    +0.009 A 
ATOM     12  C   LIG    1       27.324 -13.245   6.307  0.00  0.00    +0.039 A 
ATOM     13  C   LIG    1       28.445 -12.805   5.621  0.00  0.00    +0.123 A 
ATOM     14  F   LIG    1       29.452 -12.232   6.295  0.00  0.00    -0.205 F 
ATOM     15  C   LIG    1       28.541 -12.962   4.246  0.00  0.00    +0.039 A 
ATOM     16  C   LIG    1       27.490 -13.564   3.542  0.00  0.00    +0.009 A 
ENDBRANCH   1  10
BRANCH   5  17
ATOM     17  C   LIG    1       24.539 -20.265   3.867  0.00  0.00    +0.099 C 
ATOM     18  N   LIG    1       24.381 -21.394   4.002  0.00  0.00    -0.191 NA
ENDBRANCH   5  17
BRANCH   1  19
ATOM     19  C   LIG    1       24.900 -14.062   1.980  0.00  0.00    +0.046 C 
BRANCH  19  20
ATOM     20  C   LIG    1       24.436 -12.598   1.852  0.00  0.00    +0.019 C 
BRANCH  20  21
ATOM     21  C   LIG    1       24.718 -11.765   3.128  0.00  0.00    +0.084 C 
BRANCH  21  23
ATOM     22  C   LIG    1       24.322 -11.447   5.509  0.00  0.00    +0.104 C 
ATOM     23  N   LIG    1       23.790 -11.993   4.255  0.00  0.00    -0.308 NA
ATOM     24  C   LIG    1       22.459 -11.448   4.005  0.00  0.00    +0.104 C 
ENDBRANCH  21  23
ENDBRANCH  20  21
ENDBRANCH  19  20
ENDBRANCH   1  19
TORSDOF 6
ENDMDL
MODEL 2
REMARK VINA RESULT:       5.9      2.784      6.196
REMARK  Name = *****
REMARK                            x       y       z     vdW  Elec       q    Type
REMARK                         _______ _______ _______ _____ _____    ______ ____
ROOT
ATOM      1  C   LIG    1       26.030 -17.552   3.277  0.00  0.00    +0.120 C 
ATOM      2  C   LIG    1       25.351 -16.322   3.839  0.00  0.00    -0.006 A 
ATOM      3  C   LIG    1       25.754 -15.199   3.131  0.00  0.00    -0.014 A 
ATOM      4  C   LIG    1       25.278 -13.933   3.433  0.00  0.00    +0.025 A 
ATOM      5  C   LIG    1       24.358 -13.790   4.486  0.00  0.00    +0.052 A 
ATOM      6  C   LIG    1       23.933 -14.936   5.193  0.00  0.00    +0.019 A 
ATOM      7  C   LIG    1       26.702 -15.597   2.065  0.00  0.00    +0.197 C 
ATOM      8  C   LIG    1       24.425 -16.204   4.870  0.00  0.00    +0.008 A 
ATOM      9  O   LIG    1       26.903 -17.016   2.231  0.00  0.00    -0.359 OA
ENDROOT
BRANCH   1  10
ATOM     10  C   LIG    1       26.914 -18.249   4.325  0.00  0.00    -0.011 A 
ATOM     11  C   LIG    1       28.164 -17.702   4.688  0.00  0.00    +0.009 A 
ATOM     12  C   LIG    1       28.997 -18.337   5.613  0.00  0.00    +0.039 A 
ATOM     13  C   LIG    1       28.592 -19.531   6.190  0.00  0.00    +0.123 A 
ATOM     14  F   LIG    1       29.397 -20.152   7.062  0.00  0.00    -0.205 F 
ATOM     15  C   LIG    1       27.356 -20.082   5.883  0.00  0.00    +0.039 A 
ATOM     16  C   LIG    1       26.513 -19.431   4.974  0.00  0.00    +0.009 A 
ENDBRANCH   1  10
BRANCH   5  17
ATOM     17  C   LIG    1       23.859 -12.480   4.849  0.00  0.00    +0.099 C 
ATOM     18  N   LIG    1       23.455 -11.447   5.144  0.00  0.00    -0.191 NA
ENDBRANCH   5  17
BRANCH   1  19
ATOM     19  C   LIG    1       24.986 -18.448   2.549  0.00  0.00    +0.046 C 
BRANCH  19  20
ATOM     20  C   LIG    1       24.249 -19.471   3.435  0.00  0.00    +0.019 C 
BRANCH  20  21
ATOM     21  C   LIG    1       22.996 -18.877   4.125  0.00  0.00    +0.084 C 
BRANCH  21  23
ATOM     22  C   LIG    1       21.911 -20.998   4.625  0.00  0.00    +0.104 C 
ATOM     23  N   LIG    1       22.386 -19.722   5.173  0.00  0.00    -0.308 NA
ATOM     24  C   LIG    1       23.292 -19.971   6.291  0.00  0.00    +0.104 C 
ENDBRANCH  21  23
ENDBRANCH  20  21
ENDBRANCH  19  20
ENDBRANCH   1  19
TORSDOF 6
ENDMDL
MODEL 3
REMARK VINA RESULT:       6.0      3.340      5.915
REMARK  Name = *****
REMARK                            x       y       z     vdW  Elec       q    Type
REMARK                         _______ _______ _______ _____ _____    ______ ____
ROOT
ATOM      1  C   LIG    1       23.929 -18.588   4.158  0.00  0.00    +0.120 C 
ATOM      2  C   LIG    1       25.257 -19.136   4.631  0.00  0.00    -0.006 A 
ATOM      3  C   LIG    1       25.069 -19.895   5.777  0.00  0.00    -0.014 A 
ATOM      4  C   LIG    1       26.125 -20.524   6.421  0.00  0.00    +0.025 A 
ATOM      5  C   LIG    1       27.418 -20.386   5.890  0.00  0.00    +0.052 A 
ATOM      6  C   LIG    1       27.606 -19.629   4.712  0.00  0.00    +0.019 A 
ATOM      7  C   LIG    1       23.632 -19.913   6.133  0.00  0.00    +0.197 C 
ATOM      8  C   LIG    1       26.527 -19.005   4.079  0.00  0.00    +0.008 A 
ATOM      9  O   LIG    1       22.983 -19.051   5.176  0.00  0.00    -0.359 OA
ENDROOT
BRANCH   1  10
ATOM     10  C   LIG    1       23.910 -17.050   4.155  0.00  0.00    -0.011 A 
ATOM     11  C   LIG    1       25.010 -16.320   3.654  0.00  0.00    +0.009 A 
ATOM     12  C   LIG    1       25.028 -14.923   3.673  0.00  0.00    +0.039 A 
ATOM     13  C   LIG    1       23.944 -14.234   4.194  0.00  0.00    +0.123 A 
ATOM     14  F   LIG    1       23.966 -12.894   4.232  0.00  0.00    -0.205 F 
ATOM     15  C   LIG    1       22.831 -14.916   4.665  0.00  0.00    +0.039 A 
ATOM     16  C   LIG    1       22.806 -16.316   4.622  0.00  0.00    +0.009 A 
ENDBRANCH   1  10
BRANCH   5  17
ATOM     17  C   LIG    1       28.550 -21.004   6.549  0.00  0.00    +0.099 C 
ATOM     18  N   LIG    1       29.451 -21.497   7.060  0.00  0.00    -0.191 NA
ENDBRANCH   5  17
BRANCH   1  19
ATOM     19  C   LIG    1       23.509 -19.286   2.832  0.00  0.00    +0.046 C 
BRANCH  19  20
ATOM     20  C   LIG    1       23.438 -20.825   2.881  0.00  0.00    +0.019 C 
BRANCH  20  21
ATOM     21  C   LIG    1       22.019 -21.352   3.209  0.00  0.00    +0.084 C 
BRANCH  21  23
ATOM     22  C   LIG    1       20.234 -19.804   3.798  0.00  0.00    +0.104 C 
ATOM     23  N   LIG    1       21.319 -20.652   4.306  0.00  0.00    -0.308 NA
ATOM     24  C   LIG    1       20.796 -21.571   5.314  0.00  0.00    +0.104 C 
ENDBRANCH  21  23
ENDBRANCH  20  21
ENDBRANCH  19  20
ENDBRANCH   1  19
TORSDOF 6
ENDMDL
