MODEL 1
REMARK VINA RESULT:      -4.2      0.000      0.000
REMARK  Name = *****
REMARK                            x       y       z     vdW  Elec       q    Type
REMARK                         _______ _______ _______ _____ _____    ______ ____
ROOT
ATOM      1  C   LIG    1       24.723 -19.490   4.119  0.00  0.00    +0.263 A 
ATOM      2  C   LIG    1       24.701 -20.404   5.162  0.00  0.00    +0.239 A 
ATOM      3  C   LIG    1       23.459 -20.473   5.769  0.00  0.00    +0.178 A 
ATOM      4 CL   LIG    1       23.138 -21.571   7.062  0.00  0.00    -0.058 Cl
ATOM      5  N   LIG    1       22.376 -19.730   5.447  0.00  0.00    -0.217 NA
ATOM      6  C   LIG    1       22.536 -18.871   4.435  0.00  0.00    +0.132 A 
ATOM      7  C   LIG    1       21.379 -17.999   4.068  0.00  0.00    +0.088 C 
ATOM      8  N   LIG    1       23.682 -18.706   3.754  0.00  0.00    -0.195 NA
ENDROOT
BRANCH   2   9
ATOM      9  N   LIG    1       25.771 -21.262   5.520  0.00  0.00    -0.068 NA
ATOM     10  C   LIG    1       26.864 -20.779   5.972  0.00  0.00    +0.370 C 
ATOM     11  N   LIG    1       27.267 -19.478   6.182  0.00  0.00    -0.235 N 
ATOM     12  H   LIG    1       26.942 -18.818   5.483  0.00  0.00    +0.244 HD
ATOM     13  C   LIG    1       28.676 -19.399   6.551  0.00  0.00    +0.219 C 
ATOM     14  C   LIG    1       28.994 -20.840   6.971  0.00  0.00    +0.219 C 
ATOM     15  N   LIG    1       27.912 -21.572   6.351  0.00  0.00    -0.235 N 
ATOM     16  H   LIG    1       27.701 -22.528   6.603  0.00  0.00    +0.244 HD
ENDBRANCH   2   9
BRANCH   1  18
ATOM     17  C   LIG    1       26.263 -17.937   3.286  0.00  0.00    +0.279 C 
ATOM     18  O   LIG    1       25.924 -19.311   3.450  0.00  0.00    -0.477 OA
ENDBRANCH   1  18
TORSDOF 2
ENDMDL
MODEL 2
REMARK VINA RESULT:      -2.5      4.916      6.154
REMARK  Name = *****
REMARK                            x       y       z     vdW  Elec       q    Type
REMARK                         _______ _______ _______ _____ _____    ______ ____
ROOT
ATOM      1  C   LIG    1       25.251 -16.213   3.483  0.00  0.00    +0.263 A 
ATOM      2  C   LIG    1       25.389 -14.858   3.217  0.00  0.00    +0.239 A 
ATOM      3  C   LIG    1       24.286 -14.131   3.630  0.00  0.00    +0.178 A 
ATOM      4 CL   LIG    1       24.217 -12.413   3.467  0.00  0.00    -0.058 Cl
ATOM      5  N   LIG    1       23.167 -14.637   4.192  0.00  0.00    -0.217 NA
ATOM      6  C   LIG    1       23.152 -15.962   4.376  0.00  0.00    +0.132 A 
ATOM      7  C   LIG    1       21.920 -16.574   4.960  0.00  0.00    +0.088 C 
ATOM      8  N   LIG    1       24.155 -16.787   4.031  0.00  0.00    -0.195 NA
ENDROOT
BRANCH   2   9
ATOM      9  N   LIG    1       26.551 -14.243   2.688  0.00  0.00    -0.068 NA
ATOM     10  C   LIG    1       27.364 -13.627   3.458  0.00  0.00    +0.370 C 
ATOM     11  N   LIG    1       27.334 -13.392   4.816  0.00  0.00    -0.235 N 
ATOM     12  H   LIG    1       26.409 -13.212   5.191  0.00  0.00    +0.244 HD
ATOM     13  C   LIG    1       28.397 -12.486   5.235  0.00  0.00    +0.219 C 
ATOM     14  C   LIG    1       29.361 -12.526   4.042  0.00  0.00    +0.219 C 
ATOM     15  N   LIG    1       28.509 -13.040   2.993  0.00  0.00    -0.235 N 
ATOM     16  H   LIG    1       28.886 -13.389   2.121  0.00  0.00    +0.244 HD
ENDBRANCH   2   9
BRANCH   1  18
ATOM     17  C   LIG    1       26.007 -18.424   3.352  0.00  0.00    +0.279 C 
ATOM     18  O   LIG    1       26.282 -17.051   3.089  0.00  0.00    -0.477 OA
ENDBRANCH   1  18
TORSDOF 2
ENDMDL
MODEL 3
REMARK VINA RESULT:      -2.3      5.175      6.359
REMARK  Name = *****
REMARK                            x       y       z     vdW  Elec       q    Type
REMARK                         _______ _______ _______ _____ _____    ______ ____
ROOT
ATOM      1  C   LIG    1       24.204 -14.072   3.622  0.00  0.00    +0.263 A 
ATOM      2  C   LIG    1       25.403 -14.716   3.352  0.00  0.00    +0.239 A 
ATOM      3  C   LIG    1       25.327 -16.078   3.587  0.00  0.00    +0.178 A 
ATOM      4 CL   LIG    1       26.663 -17.128   3.281  0.00  0.00    -0.058 Cl
ATOM      5  N   LIG    1       24.251 -16.743   4.062  0.00  0.00    -0.217 NA
ATOM      6  C   LIG    1       23.163 -16.001   4.300  0.00  0.00    +0.132 A 
ATOM      7  C   LIG    1       21.959 -16.686   4.863  0.00  0.00    +0.088 C 
ATOM      8  N   LIG    1       23.094 -14.674   4.110  0.00  0.00    -0.195 NA
ENDROOT
BRANCH   2   9
ATOM      9  N   LIG    1       26.553 -14.103   2.796  0.00  0.00    -0.068 NA
ATOM     10  C   LIG    1       27.391 -13.498   3.549  0.00  0.00    +0.370 C 
ATOM     11  N   LIG    1       27.400 -13.277   4.908  0.00  0.00    -0.235 N 
ATOM     12  H   LIG    1       26.487 -13.095   5.312  0.00  0.00    +0.244 HD
ATOM     13  C   LIG    1       28.480 -12.380   5.305  0.00  0.00    +0.219 C 
ATOM     14  C   LIG    1       29.410 -12.414   4.085  0.00  0.00    +0.219 C 
ATOM     15  N   LIG    1       28.525 -12.913   3.056  0.00  0.00    -0.235 N 
ATOM     16  H   LIG    1       28.876 -13.255   2.171  0.00  0.00    +0.244 HD
ENDBRANCH   2   9
BRANCH   1  18
ATOM     17  C   LIG    1       23.948 -11.997   4.673  0.00  0.00    +0.279 C 
ATOM     18  O   LIG    1       24.163 -12.697   3.451  0.00  0.00    -0.477 OA
ENDBRANCH   1  18
TORSDOF 2
ENDMDL
MODEL 4
REMARK VINA RESULT:      -2.1      1.120      4.849
REMARK  Name = *****
REMARK                            x       y       z     vdW  Elec       q    Type
REMARK                         _______ _______ _______ _____ _____    ______ ____
ROOT
ATOM      1  C   LIG    1       25.643 -19.704   4.503  0.00  0.00    +0.263 A 
ATOM      2  C   LIG    1       24.465 -20.266   4.974  0.00  0.00    +0.239 A 
ATOM      3  C   LIG    1       24.625 -20.846   6.220  0.00  0.00    +0.178 A 
ATOM      4 CL   LIG    1       23.303 -21.571   7.061  0.00  0.00    -0.058 Cl
ATOM      5  N   LIG    1       25.779 -20.919   6.919  0.00  0.00    -0.217 NA
ATOM      6  C   LIG    1       26.848 -20.356   6.345  0.00  0.00    +0.132 A 
ATOM      7  C   LIG    1       28.156 -20.445   7.062  0.00  0.00    +0.088 C 
ATOM      8  N   LIG    1       26.834 -19.753   5.145  0.00  0.00    -0.195 NA
ENDROOT
BRANCH   2   9
ATOM      9  N   LIG    1       23.204 -20.178   4.332  0.00  0.00    -0.068 NA
ATOM     10  C   LIG    1       22.563 -19.073   4.315  0.00  0.00    +0.370 C 
ATOM     11  N   LIG    1       22.854 -17.842   4.860  0.00  0.00    -0.235 N 
ATOM     12  H   LIG    1       23.314 -17.879   5.764  0.00  0.00    +0.244 HD
ATOM     13  C   LIG    1       21.736 -16.913   4.734  0.00  0.00    +0.219 C 
ATOM     14  C   LIG    1       20.868 -17.577   3.657  0.00  0.00    +0.219 C 
ATOM     15  N   LIG    1       21.355 -18.939   3.687  0.00  0.00    -0.235 N 
ATOM     16  H   LIG    1       21.141 -19.598   2.951  0.00  0.00    +0.244 HD
ENDBRANCH   2   9
BRANCH   1  18
ATOM     17  C   LIG    1       26.074 -17.766   3.264  0.00  0.00    +0.279 C 
ATOM     18  O   LIG    1       25.616 -19.116   3.249  0.00  0.00    -0.477 OA
ENDBRANCH   1  18
TORSDOF 2
ENDMDL
MODEL 5
REMARK VINA RESULT:      -1.9      3.067      5.283
REMARK  Name = *****
REMARK                            x       y       z     vdW  Elec       q    Type
REMARK                         _______ _______ _______ _____ _____    ______ ____
ROOT
ATOM      1  C   LIG    1       25.184 -18.960   4.023  0.00  0.00    +0.263 A 
ATOM      2  C   LIG    1       26.353 -18.215   3.970  0.00  0.00    +0.239 A 
ATOM      3  C   LIG    1       27.334 -18.722   4.804  0.00  0.00    +0.178 A 
ATOM      4 CL   LIG    1       28.907 -18.017   4.890  0.00  0.00    -0.058 Cl
ATOM      5  N   LIG    1       27.205 -19.789   5.623  0.00  0.00    -0.217 NA
ATOM      6  C   LIG    1       26.020 -20.409   5.595  0.00  0.00    +0.132 A 
ATOM      7  C   LIG    1       25.817 -21.571   6.513  0.00  0.00    +0.088 C 
ATOM      8  N   LIG    1       24.984 -20.030   4.830  0.00  0.00    -0.195 NA
ENDROOT
BRANCH   2   9
ATOM      9  N   LIG    1       26.587 -17.125   3.095  0.00  0.00    -0.068 NA
ATOM     10  C   LIG    1       25.993 -16.008   3.280  0.00  0.00    +0.370 C 
ATOM     11  N   LIG    1       25.071 -15.612   4.223  0.00  0.00    -0.235 N 
ATOM     12  H   LIG    1       24.399 -16.327   4.482  0.00  0.00    +0.244 HD
ATOM     13  C   LIG    1       24.535 -14.286   3.936  0.00  0.00    +0.219 C 
ATOM     14  C   LIG    1       25.555 -13.721   2.939  0.00  0.00    +0.219 C 
ATOM     15  N   LIG    1       26.208 -14.924   2.473  0.00  0.00    -0.235 N 
ATOM     16  H   LIG    1       27.079 -14.895   1.960  0.00  0.00    +0.244 HD
ENDBRANCH   2   9
BRANCH   1  18
ATOM     17  C   LIG    1       22.877 -18.577   3.953  0.00  0.00    +0.279 C 
ATOM     18  O   LIG    1       24.116 -18.533   3.251  0.00  0.00    -0.477 OA
ENDBRANCH   1  18
TORSDOF 2
ENDMDL
MODEL 6
REMARK VINA RESULT:      -1.7      4.576      7.101
REMARK  Name = *****
REMARK                            x       y       z     vdW  Elec       q    Type
REMARK                         _______ _______ _______ _____ _____    ______ ____
ROOT
ATOM      1  C   LIG    1       26.397 -17.041   3.481  0.00  0.00    +0.263 A 
ATOM      2  C   LIG    1       26.625 -15.680   3.338  0.00  0.00    +0.239 A 
ATOM      3  C   LIG    1       27.805 -15.282   3.941  0.00  0.00    +0.178 A 
ATOM      4 CL   LIG    1       28.357 -13.648   3.868  0.00  0.00    -0.058 Cl
ATOM      5  N   LIG    1       28.650 -16.078   4.634  0.00  0.00    -0.217 NA
ATOM      6  C   LIG    1       28.305 -17.368   4.715  0.00  0.00    +0.132 A 
ATOM      7  C   LIG    1       29.188 -18.280   5.504  0.00  0.00    +0.088 C 
ATOM      8  N   LIG    1       27.194 -17.891   4.172  0.00  0.00    -0.195 NA
ENDROOT
BRANCH   2   9
ATOM      9  N   LIG    1       25.823 -14.793   2.578  0.00  0.00    -0.068 NA
ATOM     10  C   LIG    1       25.170 -13.856   3.153  0.00  0.00    +0.370 C 
ATOM     11  N   LIG    1       25.052 -13.511   4.482  0.00  0.00    -0.235 N 
ATOM     12  H   LIG    1       25.026 -14.298   5.121  0.00  0.00    +0.244 HD
ATOM     13  C   LIG    1       24.051 -12.469   4.686  0.00  0.00    +0.219 C 
ATOM     14  C   LIG    1       23.868 -11.899   3.273  0.00  0.00    +0.219 C 
ATOM     15  N   LIG    1       24.402 -12.965   2.455  0.00  0.00    -0.235 N 
ATOM     16  H   LIG    1       24.627 -12.827   1.478  0.00  0.00    +0.244 HD
ENDBRANCH   2   9
BRANCH   1  18
ATOM     17  C   LIG    1       24.885 -18.827   3.485  0.00  0.00    +0.279 C 
ATOM     18  O   LIG    1       25.229 -17.555   2.942  0.00  0.00    -0.477 OA
ENDBRANCH   1  18
TORSDOF 2
ENDMDL
MODEL 7
REMARK VINA RESULT:      -1.7      2.859      4.891
REMARK  Name = *****
REMARK                            x       y       z     vdW  Elec       q    Type
REMARK                         _______ _______ _______ _____ _____    ______ ____
ROOT
ATOM      1  C   LIG    1       27.320 -18.704   4.662  0.00  0.00    +0.263 A 
ATOM      2  C   LIG    1       26.230 -18.344   3.883  0.00  0.00    +0.239 A 
ATOM      3  C   LIG    1       25.119 -19.124   4.149  0.00  0.00    +0.178 A 
ATOM      4 CL   LIG    1       23.609 -18.854   3.357  0.00  0.00    -0.058 Cl
ATOM      5  N   LIG    1       25.061 -20.152   5.024  0.00  0.00    -0.217 NA
ATOM      6  C   LIG    1       26.187 -20.409   5.699  0.00  0.00    +0.132 A 
ATOM      7  C   LIG    1       26.185 -21.562   6.651  0.00  0.00    +0.088 C 
ATOM      8  N   LIG    1       27.335 -19.729   5.547  0.00  0.00    -0.195 NA
ENDROOT
BRANCH   2   9
ATOM      9  N   LIG    1       26.192 -17.244   2.990  0.00  0.00    -0.068 NA
ATOM     10  C   LIG    1       26.573 -16.086   3.375  0.00  0.00    +0.370 C 
ATOM     11  N   LIG    1       27.034 -15.636   4.592  0.00  0.00    -0.235 N 
ATOM     12  H   LIG    1       26.581 -16.057   5.396  0.00  0.00    +0.244 HD
ATOM     13  C   LIG    1       27.186 -14.185   4.613  0.00  0.00    +0.219 C 
ATOM     14  C   LIG    1       27.180 -13.826   3.122  0.00  0.00    +0.219 C 
ATOM     15  N   LIG    1       26.574 -15.003   2.539  0.00  0.00    -0.235 N 
ATOM     16  H   LIG    1       26.611 -15.185   1.545  0.00  0.00    +0.244 HD
ENDBRANCH   2   9
BRANCH   1  18
ATOM     17  C   LIG    1       29.475 -18.284   5.473  0.00  0.00    +0.279 C 
ATOM     18  O   LIG    1       28.504 -18.011   4.467  0.00  0.00    -0.477 OA
ENDBRANCH   1  18
TORSDOF 2
ENDMDL
MODEL 8
REMARK VINA RESULT:      -1.6      2.617      4.663
REMARK  Name = *****
REMARK                            x       y       z     vdW  Elec       q    Type
REMARK                         _______ _______ _______ _____ _____    ______ ____
ROOT
ATOM      1  C   LIG    1       23.861 -18.961   4.140  0.00  0.00    +0.263 A 
ATOM      2  C   LIG    1       25.230 -18.731   4.119  0.00  0.00    +0.239 A 
ATOM      3  C   LIG    1       25.912 -19.567   4.985  0.00  0.00    +0.178 A 
ATOM      4 CL   LIG    1       27.634 -19.529   5.116  0.00  0.00    -0.058 Cl
ATOM      5  N   LIG    1       25.356 -20.485   5.806  0.00  0.00    -0.217 NA
ATOM      6  C   LIG    1       24.024 -20.594   5.745  0.00  0.00    +0.132 A 
ATOM      7  C   LIG    1       23.360 -21.569   6.662  0.00  0.00    +0.088 C 
ATOM      8  N   LIG    1       23.239 -19.854   4.946  0.00  0.00    -0.195 NA
ENDROOT
BRANCH   2   9
ATOM      9  N   LIG    1       25.893 -17.834   3.245  0.00  0.00    -0.068 NA
ATOM     10  C   LIG    1       25.677 -16.576   3.324  0.00  0.00    +0.370 C 
ATOM     11  N   LIG    1       24.840 -15.845   4.138  0.00  0.00    -0.235 N 
ATOM     12  H   LIG    1       23.951 -16.290   4.336  0.00  0.00    +0.244 HD
ATOM     13  C   LIG    1       24.796 -14.440   3.749  0.00  0.00    +0.219 C 
ATOM     14  C   LIG    1       26.042 -14.297   2.865  0.00  0.00    +0.219 C 
ATOM     15  N   LIG    1       26.314 -15.674   2.517  0.00  0.00    -0.235 N 
ATOM     16  H   LIG    1       27.196 -15.958   2.111  0.00  0.00    +0.244 HD
ENDBRANCH   2   9
BRANCH   1  18
ATOM     17  C   LIG    1       21.773 -17.934   3.889  0.00  0.00    +0.279 C 
ATOM     18  O   LIG    1       23.065 -18.165   3.333  0.00  0.00    -0.477 OA
ENDBRANCH   1  18
TORSDOF 2
ENDMDL
MODEL 9
REMARK VINA RESULT:      -1.5      2.692      4.436
REMARK  Name = *****
REMARK                            x       y       z     vdW  Elec       q    Type
REMARK                         _______ _______ _______ _____ _____    ______ ____
ROOT
ATOM      1  C   LIG    1       25.336 -18.043   3.371  0.00  0.00    +0.263 A 
ATOM      2  C   LIG    1       24.064 -17.819   3.878  0.00  0.00    +0.239 A 
ATOM      3  C   LIG    1       23.825 -16.476   4.110  0.00  0.00    +0.178 A 
ATOM      4 CL   LIG    1       22.300 -15.912   4.690  0.00  0.00    -0.058 Cl
ATOM      5  N   LIG    1       24.705 -15.468   3.920  0.00  0.00    -0.217 NA
ATOM      6  C   LIG    1       25.905 -15.821   3.445  0.00  0.00    +0.132 A 
ATOM      7  C   LIG    1       26.926 -14.746   3.256  0.00  0.00    +0.088 C 
ATOM      8  N   LIG    1       26.270 -17.084   3.169  0.00  0.00    -0.195 NA
ENDROOT
BRANCH   2   9
ATOM      9  N   LIG    1       23.066 -18.810   4.046  0.00  0.00    -0.068 NA
ATOM     10  C   LIG    1       23.216 -19.739   4.911  0.00  0.00    +0.370 C 
ATOM     11  N   LIG    1       24.251 -20.020   5.776  0.00  0.00    -0.235 N 
ATOM     12  H   LIG    1       25.176 -19.843   5.398  0.00  0.00    +0.244 HD
ATOM     13  C   LIG    1       24.058 -21.295   6.459  0.00  0.00    +0.219 C 
ATOM     14  C   LIG    1       22.564 -21.569   6.240  0.00  0.00    +0.219 C 
ATOM     15  N   LIG    1       22.267 -20.702   5.122  0.00  0.00    -0.235 N 
ATOM     16  H   LIG    1       21.317 -20.481   4.855  0.00  0.00    +0.244 HD
ENDBRANCH   2   9
BRANCH   1  18
ATOM     17  C   LIG    1       26.639 -19.854   4.077  0.00  0.00    +0.279 C 
ATOM     18  O   LIG    1       25.705 -19.356   3.124  0.00  0.00    -0.477 OA
ENDBRANCH   1  18
TORSDOF 2
ENDMDL
