MODEL 1
REMARK VINA RESULT:       2.2      0.000      0.000
REMARK  Name = *****
REMARK                            x       y       z     vdW  Elec       q    Type
REMARK                         _______ _______ _______ _____ _____    ______ ____
ROOT
ATOM      1  C   LIG    1       26.729 -17.067   3.686  0.00  0.00    +0.025 A 
ATOM      2  C   LIG    1       27.554 -15.991   3.894  0.00  0.00    +0.029 A 
ATOM      3  C   LIG    1       27.179 -14.733   3.399  0.00  0.00    +0.057 A 
ATOM      4  I   LIG    1       28.896 -13.324   3.866  0.00  0.00    -0.040 I 
ATOM      5  C   LIG    1       25.863 -14.498   2.862  0.00  0.00    +0.147 A 
ATOM      6  C   LIG    1       24.949 -15.538   3.059  0.00  0.00    +0.057 A 
ATOM      7  I   LIG    1       23.345 -15.249   4.756  0.00  0.00    -0.040 I 
ATOM      8  C   LIG    1       25.400 -16.843   3.311  0.00  0.00    +0.029 A 
ENDROOT
BRANCH   1   9
ATOM      9  C   LIG    1       27.053 -18.496   3.983  0.00  0.00    +0.197 C 
ATOM     10  O   LIG    1       28.140 -18.880   3.704  0.00  0.00    -0.286 OA
BRANCH   9  12
ATOM     11  C   LIG    1       26.332 -20.475   5.362  0.00  0.00    +0.117 A 
ATOM     12  C   LIG    1       26.048 -19.376   4.555  0.00  0.00    +0.071 A 
ATOM     13  C   LIG    1       24.604 -19.308   4.465  0.00  0.00    +0.031 A 
ATOM     14  C   LIG    1       24.140 -20.291   5.324  0.00  0.00    +0.136 A 
ATOM     15  C   LIG    1       22.798 -20.564   5.576  0.00  0.00    +0.047 A 
ATOM     16  C   LIG    1       21.862 -19.861   4.819  0.00  0.00    +0.004 A 
ATOM     17  C   LIG    1       22.273 -18.881   3.917  0.00  0.00    +0.001 A 
ATOM     18  C   LIG    1       23.629 -18.539   3.786  0.00  0.00    +0.012 A 
ATOM     19  O   LIG    1       25.166 -20.968   5.877  0.00  0.00    -0.459 OA
BRANCH  11  20
ATOM     20  C   LIG    1       27.516 -21.270   5.825  0.00  0.00    +0.075 C 
BRANCH  20  21
ATOM     21  C   LIG    1       28.262 -20.772   7.061  0.00  0.00    +0.007 C 
BRANCH  21  23
ATOM     22  C   LIG    1       29.089 -18.447   6.362  0.00  0.00    +0.004 C 
ATOM     23  C   LIG    1       29.462 -19.863   6.785  0.00  0.00    -0.003 C 
ENDBRANCH  21  23
ENDBRANCH  20  21
ENDBRANCH  11  20
ENDBRANCH   9  12
ENDBRANCH   1   9
BRANCH   5  24
ATOM     24  O   LIG    1       25.544 -13.376   2.107  0.00  0.00    -0.489 OA
BRANCH  24  25
ATOM     25  C   LIG    1       24.216 -12.774   2.163  0.00  0.00    +0.244 C 
BRANCH  25  26
ATOM     26  C   LIG    1       24.096 -11.464   3.060  0.00  0.00    +0.125 C 
BRANCH  26  27
ATOM     27  N   LIG    1       24.055 -11.485   4.550  0.00  0.00    -0.300 NA
BRANCH  27  28
ATOM     28  C   LIG    1       24.869 -12.564   5.155  0.00  0.00    +0.081 C 
ATOM     29  C   LIG    1       26.362 -12.297   5.387  0.00  0.00    +0.020 C 
ENDBRANCH  27  28
BRANCH  27  30
ATOM     30  C   LIG    1       22.730 -11.663   5.122  0.00  0.00    +0.081 C 
ATOM     31  C   LIG    1       22.727 -11.455   6.571  0.00  0.00    +0.020 C 
ENDBRANCH  27  30
ENDBRANCH  26  27
ENDBRANCH  25  26
ENDBRANCH  24  25
ENDBRANCH   5  24
TORSDOF 11
ENDMDL
MODEL 2
REMARK VINA RESULT:       3.7      2.829      6.752
REMARK  Name = *****
REMARK                            x       y       z     vdW  Elec       q    Type
REMARK                         _______ _______ _______ _____ _____    ______ ____
ROOT
ATOM      1  C   LIG    1       26.630 -17.789   3.968  0.00  0.00    +0.025 A 
ATOM      2  C   LIG    1       27.692 -18.352   4.628  0.00  0.00    +0.029 A 
ATOM      3  C   LIG    1       27.456 -19.369   5.564  0.00  0.00    +0.057 A 
ATOM      4  I   LIG    1       29.471 -19.881   6.476  0.00  0.00    -0.040 I 
ATOM      5  C   LIG    1       26.159 -19.980   5.701  0.00  0.00    +0.147 A 
ATOM      6  C   LIG    1       25.234 -19.632   4.712  0.00  0.00    +0.057 A 
ATOM      7  I   LIG    1       24.825 -21.215   3.020  0.00  0.00    -0.040 I 
ATOM      8  C   LIG    1       25.400 -18.454   3.966  0.00  0.00    +0.029 A 
ENDROOT
BRANCH   1   9
ATOM      9  C   LIG    1       26.681 -16.585   3.082  0.00  0.00    +0.197 C 
ATOM     10  O   LIG    1       27.187 -16.711   2.016  0.00  0.00    -0.286 OA
BRANCH   9  12
ATOM     11  C   LIG    1       26.866 -14.107   3.490  0.00  0.00    +0.117 A 
ATOM     12  C   LIG    1       26.162 -15.309   3.542  0.00  0.00    +0.071 A 
ATOM     13  C   LIG    1       24.862 -14.986   4.093  0.00  0.00    +0.031 A 
ATOM     14  C   LIG    1       24.847 -13.606   4.208  0.00  0.00    +0.136 A 
ATOM     15  C   LIG    1       23.771 -12.852   4.670  0.00  0.00    +0.047 A 
ATOM     16  C   LIG    1       22.672 -13.561   5.153  0.00  0.00    +0.004 A 
ATOM     17  C   LIG    1       22.643 -14.953   5.090  0.00  0.00    +0.001 A 
ATOM     18  C   LIG    1       23.691 -15.674   4.494  0.00  0.00    +0.012 A 
ATOM     19  O   LIG    1       26.029 -13.081   3.826  0.00  0.00    -0.459 OA
BRANCH  11  20
ATOM     20  C   LIG    1       28.247 -13.612   3.185  0.00  0.00    +0.075 C 
BRANCH  20  21
ATOM     21  C   LIG    1       28.719 -12.348   3.901  0.00  0.00    +0.007 C 
BRANCH  21  23
ATOM     22  C   LIG    1       27.633 -13.016   6.126  0.00  0.00    +0.004 C 
ATOM     23  C   LIG    1       28.867 -12.467   5.420  0.00  0.00    -0.003 C 
ENDBRANCH  21  23
ENDBRANCH  20  21
ENDBRANCH  11  20
ENDBRANCH   9  12
ENDBRANCH   1   9
BRANCH   5  24
ATOM     24  O   LIG    1       25.804 -20.768   6.789  0.00  0.00    -0.489 OA
BRANCH  24  25
ATOM     25  C   LIG    1       24.586 -21.572   6.781  0.00  0.00    +0.244 C 
BRANCH  25  26
ATOM     26  C   LIG    1       23.227 -20.755   6.630  0.00  0.00    +0.125 C 
BRANCH  26  27
ATOM     27  N   LIG    1       22.611 -20.416   5.316  0.00  0.00    -0.300 NA
BRANCH  27  28
ATOM     28  C   LIG    1       21.975 -19.079   5.282  0.00  0.00    +0.081 C 
ATOM     29  C   LIG    1       21.839 -18.380   3.922  0.00  0.00    +0.020 C 
ENDBRANCH  27  28
BRANCH  27  30
ATOM     30  C   LIG    1       21.566 -21.327   4.878  0.00  0.00    +0.081 C 
ATOM     31  C   LIG    1       20.470 -20.623   4.212  0.00  0.00    +0.020 C 
ENDBRANCH  27  30
ENDBRANCH  26  27
ENDBRANCH  25  26
ENDBRANCH  24  25
ENDBRANCH   5  24
TORSDOF 11
ENDMDL
MODEL 3
REMARK VINA RESULT:       4.3      2.867      7.929
REMARK  Name = *****
REMARK                            x       y       z     vdW  Elec       q    Type
REMARK                         _______ _______ _______ _____ _____    ______ ____
ROOT
ATOM      1  C   LIG    1       24.454 -15.744   3.580  0.00  0.00    +0.025 A 
ATOM      2  C   LIG    1       23.557 -16.623   4.129  0.00  0.00    +0.029 A 
ATOM      3  C   LIG    1       23.726 -17.999   3.915  0.00  0.00    +0.057 A 
ATOM      4  I   LIG    1       21.950 -19.024   4.889  0.00  0.00    -0.040 I 
ATOM      5  C   LIG    1       24.925 -18.524   3.313  0.00  0.00    +0.147 A 
ATOM      6  C   LIG    1       25.962 -17.599   3.153  0.00  0.00    +0.057 A 
ATOM      7  I   LIG    1       27.743 -17.708   4.688  0.00  0.00    -0.040 I 
ATOM      8  C   LIG    1       25.689 -16.223   3.131  0.00  0.00    +0.029 A 
ENDROOT
BRANCH   1   9
ATOM      9  C   LIG    1       24.325 -14.254   3.557  0.00  0.00    +0.197 C 
ATOM     10  O   LIG    1       23.419 -13.792   2.946  0.00  0.00    -0.286 OA
BRANCH   9  12
ATOM     11  C   LIG    1       25.019 -12.576   5.302  0.00  0.00    +0.117 A 
ATOM     12  C   LIG    1       25.306 -13.419   4.230  0.00  0.00    +0.071 A 
ATOM     13  C   LIG    1       26.730 -13.296   3.996  0.00  0.00    +0.031 A 
ATOM     14  C   LIG    1       27.199 -12.490   5.020  0.00  0.00    +0.136 A 
ATOM     15  C   LIG    1       28.531 -12.129   5.207  0.00  0.00    +0.047 A 
ATOM     16  C   LIG    1       29.432 -12.525   4.220  0.00  0.00    +0.004 A 
ATOM     17  C   LIG    1       29.010 -13.312   3.150  0.00  0.00    +0.001 A 
ATOM     18  C   LIG    1       27.685 -13.770   3.065  0.00  0.00    +0.012 A 
ATOM     19  O   LIG    1       26.187 -12.083   5.811  0.00  0.00    -0.459 OA
BRANCH  11  20
ATOM     20  C   LIG    1       23.830 -12.053   6.049  0.00  0.00    +0.075 C 
BRANCH  20  21
ATOM     21  C   LIG    1       22.550 -12.886   6.014  0.00  0.00    +0.007 C 
BRANCH  21  23
ATOM     22  C   LIG    1       21.420 -15.158   6.387  0.00  0.00    +0.004 C 
ATOM     23  C   LIG    1       22.678 -14.314   6.550  0.00  0.00    -0.003 C 
ENDBRANCH  21  23
ENDBRANCH  20  21
ENDBRANCH  11  20
ENDBRANCH   9  12
ENDBRANCH   1   9
BRANCH   5  24
ATOM     24  O   LIG    1       25.020 -19.820   2.819  0.00  0.00    -0.489 OA
BRANCH  24  25
ATOM     25  C   LIG    1       25.537 -20.910   3.640  0.00  0.00    +0.244 C 
BRANCH  25  26
ATOM     26  C   LIG    1       26.170 -20.477   5.035  0.00  0.00    +0.125 C 
BRANCH  26  27
ATOM     27  N   LIG    1       26.386 -21.417   6.171  0.00  0.00    -0.300 NA
BRANCH  27  28
ATOM     28  C   LIG    1       25.211 -21.556   7.062  0.00  0.00    +0.081 C 
ATOM     29  C   LIG    1       23.817 -21.571   6.420  0.00  0.00    +0.020 C 
ENDBRANCH  27  28
BRANCH  27  30
ATOM     30  C   LIG    1       27.478 -21.059   7.061  0.00  0.00    +0.081 C 
ATOM     31  C   LIG    1       28.782 -21.212   6.416  0.00  0.00    +0.020 C 
ENDBRANCH  27  30
ENDBRANCH  26  27
ENDBRANCH  25  26
ENDBRANCH  24  25
ENDBRANCH   5  24
TORSDOF 11
ENDMDL
