MODEL 1
REMARK VINA RESULT:      -4.0      0.000      0.000
REMARK  Name = *****
REMARK                            x       y       z     vdW  Elec       q    Type
REMARK                         _______ _______ _______ _____ _____    ______ ____
ROOT
ATOM      1  CA  MET A  1       26.316 -13.314   4.245  0.00  0.00    +0.161 C 
ENDROOT
BRANCH   1   2
ATOM      2  N   MET A  1       27.084 -13.440   5.529  0.00  0.00    -0.318 NA
ATOM      3  H1  MET A  1       26.849 -14.351   5.940  0.00  0.00    +0.119 HD
ATOM      4  H2  MET A  1       28.083 -13.524   5.312  0.00  0.00    +0.119 HD
ENDBRANCH   1   2
BRANCH   1   5
ATOM      5  C   MET A  1       27.260 -13.698   3.085  0.00  0.00    +0.322 C 
ATOM      6  O   MET A  1       26.915 -14.192   2.030  0.00  0.00    -0.249 OA
BRANCH   5   7
ATOM      7  OXT MET A  1       28.551 -13.382   3.368  0.00  0.00    -0.479 OA
ATOM      8  HXT MET A  1       28.794 -12.655   2.745  0.00  0.00    +0.295 HD
ENDBRANCH   5   7
ENDBRANCH   1   5
BRANCH   1   9
ATOM      9  CB  MET A  1       25.044 -14.177   4.304  0.00  0.00    +0.040 C 
BRANCH   9  10
ATOM     10  CG  MET A  1       23.864 -13.589   3.520  0.00  0.00    +0.071 C 
BRANCH  10  12
ATOM     11  CE  MET A  1       24.392 -11.480   1.812  0.00  0.00    +0.084 C 
ATOM     12  SD  MET A  1       23.922 -11.764   3.542  0.00  0.00    -0.164 S 
ENDBRANCH  10  12
ENDBRANCH   9  10
ENDBRANCH   1   9
TORSDOF 6
ENDMDL
MODEL 2
REMARK VINA RESULT:      -4.0      1.637      1.890
REMARK  Name = *****
REMARK                            x       y       z     vdW  Elec       q    Type
REMARK                         _______ _______ _______ _____ _____    ______ ____
ROOT
ATOM      1  CA  MET A  1       27.207 -14.280   3.570  0.00  0.00    +0.161 C 
ENDROOT
BRANCH   1   2
ATOM      2  N   MET A  1       26.990 -14.115   2.093  0.00  0.00    -0.318 NA
ATOM      3  H1  MET A  1       26.063 -13.694   1.964  0.00  0.00    +0.119 HD
ATOM      4  H2  MET A  1       27.632 -13.397   1.741  0.00  0.00    +0.119 HD
ENDBRANCH   1   2
BRANCH   1   5
ATOM      5  C   MET A  1       28.304 -13.283   4.005  0.00  0.00    +0.322 C 
ATOM      6  O   MET A  1       28.259 -12.574   4.990  0.00  0.00    -0.249 OA
BRANCH   5   7
ATOM      7  OXT MET A  1       29.367 -13.311   3.159  0.00  0.00    -0.479 OA
ATOM      8  HXT MET A  1       30.158 -13.104   3.714  0.00  0.00    +0.295 HD
ENDBRANCH   5   7
ENDBRANCH   1   5
BRANCH   1   9
ATOM      9  CB  MET A  1       25.880 -14.091   4.322  0.00  0.00    +0.040 C 
BRANCH   9  10
ATOM     10  CG  MET A  1       24.669 -13.904   3.398  0.00  0.00    +0.071 C 
BRANCH  10  12
ATOM     11  CE  MET A  1       24.413 -11.603   1.886  0.00  0.00    +0.084 C 
ATOM     12  SD  MET A  1       24.002 -12.211   3.546  0.00  0.00    -0.164 S 
ENDBRANCH  10  12
ENDBRANCH   9  10
ENDBRANCH   1   9
TORSDOF 6
ENDMDL
MODEL 3
REMARK VINA RESULT:      -4.0      1.703      2.324
REMARK  Name = *****
REMARK                            x       y       z     vdW  Elec       q    Type
REMARK                         _______ _______ _______ _____ _____    ______ ____
ROOT
ATOM      1  CA  MET A  1       27.210 -13.090   4.582  0.00  0.00    +0.161 C 
ENDROOT
BRANCH   1   2
ATOM      2  N   MET A  1       26.958 -13.460   6.016  0.00  0.00    -0.318 NA
ATOM      3  H1  MET A  1       26.929 -14.484   6.068  0.00  0.00    +0.119 HD
ATOM      4  H2  MET A  1       27.785 -13.214   6.572  0.00  0.00    +0.119 HD
ENDBRANCH   1   2
BRANCH   1   5
ATOM      5  C   MET A  1       28.700 -12.708   4.443  0.00  0.00    +0.322 C 
ATOM      6  O   MET A  1       29.448 -13.097   3.569  0.00  0.00    -0.249 OA
BRANCH   5   7
ATOM      7  OXT MET A  1       29.083 -11.836   5.413  0.00  0.00    -0.479 OA
ATOM      8  HXT MET A  1       29.494 -12.387   6.123  0.00  0.00    +0.295 HD
ENDBRANCH   5   7
ENDBRANCH   1   5
BRANCH   1   9
ATOM      9  CB  MET A  1       26.790 -14.245   3.658  0.00  0.00    +0.040 C 
BRANCH   9  10
ATOM     10  CG  MET A  1       25.952 -13.796   2.453  0.00  0.00    +0.071 C 
BRANCH  10  12
ATOM     11  CE  MET A  1       23.837 -14.445   4.112  0.00  0.00    +0.084 C 
ATOM     12  SD  MET A  1       24.354 -13.104   3.003  0.00  0.00    -0.164 S 
ENDBRANCH  10  12
ENDBRANCH   9  10
ENDBRANCH   1   9
TORSDOF 6
ENDMDL
MODEL 4
REMARK VINA RESULT:      -3.9      1.766      2.471
REMARK  Name = *****
REMARK                            x       y       z     vdW  Elec       q    Type
REMARK                         _______ _______ _______ _____ _____    ______ ____
ROOT
ATOM      1  CA  MET A  1       27.274 -14.002   3.846  0.00  0.00    +0.161 C 
ENDROOT
BRANCH   1   2
ATOM      2  N   MET A  1       27.733 -15.422   4.011  0.00  0.00    -0.318 NA
ATOM      3  H1  MET A  1       27.339 -15.773   4.890  0.00  0.00    +0.119 HD
ATOM      4  H2  MET A  1       27.281 -16.003   3.296  0.00  0.00    +0.119 HD
ENDBRANCH   1   2
BRANCH   1   5
ATOM      5  C   MET A  1       28.487 -13.076   4.087  0.00  0.00    +0.322 C 
ATOM      6  O   MET A  1       28.598 -12.285   5.001  0.00  0.00    -0.249 OA
BRANCH   5   7
ATOM      7  OXT MET A  1       29.457 -13.275   3.156  0.00  0.00    -0.479 OA
ATOM      8  HXT MET A  1       30.051 -12.488   3.214  0.00  0.00    +0.295 HD
ENDBRANCH   5   7
ENDBRANCH   1   5
BRANCH   1   9
ATOM      9  CB  MET A  1       26.630 -13.813   2.462  0.00  0.00    +0.040 C 
BRANCH   9  10
ATOM     10  CG  MET A  1       25.295 -13.058   2.502  0.00  0.00    +0.071 C 
BRANCH  10  12
ATOM     11  CE  MET A  1       23.716 -14.607   4.162  0.00  0.00    +0.084 C 
ATOM     12  SD  MET A  1       24.620 -13.033   4.198  0.00  0.00    -0.164 S 
ENDBRANCH  10  12
ENDBRANCH   9  10
ENDBRANCH   1   9
TORSDOF 6
ENDMDL
MODEL 5
REMARK VINA RESULT:      -3.6      7.755      8.137
REMARK  Name = *****
REMARK                            x       y       z     vdW  Elec       q    Type
REMARK                         _______ _______ _______ _____ _____    ______ ____
ROOT
ATOM      1  CA  MET A  1       27.334 -20.613   5.979  0.00  0.00    +0.161 C 
ENDROOT
BRANCH   1   2
ATOM      2  N   MET A  1       26.955 -19.840   4.749  0.00  0.00    -0.318 NA
ATOM      3  H1  MET A  1       27.716 -19.180   4.554  0.00  0.00    +0.119 HD
ATOM      4  H2  MET A  1       26.972 -20.473   3.941  0.00  0.00    +0.119 HD
ENDBRANCH   1   2
BRANCH   1   5
ATOM      5  C   MET A  1       28.730 -20.132   6.434  0.00  0.00    +0.322 C 
ATOM      6  O   MET A  1       29.126 -18.984   6.396  0.00  0.00    -0.249 OA
BRANCH   5   7
ATOM      7  OXT MET A  1       29.475 -21.157   6.925  0.00  0.00    -0.479 OA
ATOM      8  HXT MET A  1       30.284 -20.741   7.311  0.00  0.00    +0.295 HD
ENDBRANCH   5   7
ENDBRANCH   1   5
BRANCH   1   9
ATOM      9  CB  MET A  1       26.253 -20.448   7.060  0.00  0.00    +0.040 C 
BRANCH   9  10
ATOM     10  CG  MET A  1       25.205 -21.569   7.059  0.00  0.00    +0.071 C 
BRANCH  10  12
ATOM     11  CE  MET A  1       23.440 -20.946   5.024  0.00  0.00    +0.084 C 
ATOM     12  SD  MET A  1       23.528 -20.883   6.836  0.00  0.00    -0.164 S 
ENDBRANCH  10  12
ENDBRANCH   9  10
ENDBRANCH   1   9
TORSDOF 6
ENDMDL
MODEL 6
REMARK VINA RESULT:      -3.5      3.091      3.883
REMARK  Name = *****
REMARK                            x       y       z     vdW  Elec       q    Type
REMARK                         _______ _______ _______ _____ _____    ______ ____
ROOT
ATOM      1  CA  MET A  1       24.196 -14.160   3.475  0.00  0.00    +0.161 C 
ENDROOT
BRANCH   1   2
ATOM      2  N   MET A  1       23.264 -14.892   4.397  0.00  0.00    -0.318 NA
ATOM      3  H1  MET A  1       22.389 -15.051   3.886  0.00  0.00    +0.119 HD
ATOM      4  H2  MET A  1       23.627 -15.840   4.552  0.00  0.00    +0.119 HD
ENDBRANCH   1   2
BRANCH   1   5
ATOM      5  C   MET A  1       24.029 -12.646   3.732  0.00  0.00    +0.322 C 
ATOM      6  O   MET A  1       24.141 -12.098   4.810  0.00  0.00    -0.249 OA
BRANCH   5   7
ATOM      7  OXT MET A  1       23.769 -11.971   2.581  0.00  0.00    -0.479 OA
ATOM      8  HXT MET A  1       23.575 -11.041   2.852  0.00  0.00    +0.295 HD
ENDBRANCH   5   7
ENDBRANCH   1   5
BRANCH   1   9
ATOM      9  CB  MET A  1       25.637 -14.655   3.680  0.00  0.00    +0.040 C 
BRANCH   9  10
ATOM     10  CG  MET A  1       26.655 -13.995   2.739  0.00  0.00    +0.071 C 
BRANCH  10  12
ATOM     11  CE  MET A  1       27.374 -13.375   5.336  0.00  0.00    +0.084 C 
ATOM     12  SD  MET A  1       28.106 -13.400   3.675  0.00  0.00    -0.164 S 
ENDBRANCH  10  12
ENDBRANCH   9  10
ENDBRANCH   1   9
TORSDOF 6
ENDMDL
MODEL 7
REMARK VINA RESULT:      -3.5      7.976      8.503
REMARK  Name = *****
REMARK                            x       y       z     vdW  Elec       q    Type
REMARK                         _______ _______ _______ _____ _____    ______ ____
ROOT
ATOM      1  CA  MET A  1       25.136 -20.191   5.066  0.00  0.00    +0.161 C 
ENDROOT
BRANCH   1   2
ATOM      2  N   MET A  1       25.944 -20.068   3.807  0.00  0.00    -0.318 NA
ATOM      3  H1  MET A  1       26.628 -20.833   3.804  0.00  0.00    +0.119 HD
ATOM      4  H2  MET A  1       25.342 -20.281   3.003  0.00  0.00    +0.119 HD
ENDBRANCH   1   2
BRANCH   1   5
ATOM      5  C   MET A  1       23.710 -20.639   4.677  0.00  0.00    +0.322 C 
ATOM      6  O   MET A  1       22.681 -20.208   5.155  0.00  0.00    -0.249 OA
BRANCH   5   7
ATOM      7  OXT MET A  1       23.734 -21.572   3.688  0.00  0.00    -0.479 OA
ATOM      8  HXT MET A  1       22.960 -22.162   3.856  0.00  0.00    +0.295 HD
ENDBRANCH   5   7
ENDBRANCH   1   5
BRANCH   1   9
ATOM      9  CB  MET A  1       25.829 -21.153   6.046  0.00  0.00    +0.040 C 
BRANCH   9  10
ATOM     10  CG  MET A  1       26.738 -20.447   7.062  0.00  0.00    +0.071 C 
BRANCH  10  12
ATOM     11  CE  MET A  1       29.043 -19.332   6.019  0.00  0.00    +0.084 C 
ATOM     12  SD  MET A  1       28.487 -20.886   6.775  0.00  0.00    -0.164 S 
ENDBRANCH  10  12
ENDBRANCH   9  10
ENDBRANCH   1   9
TORSDOF 6
ENDMDL
MODEL 8
REMARK VINA RESULT:      -3.5      7.106      8.009
REMARK  Name = *****
REMARK                            x       y       z     vdW  Elec       q    Type
REMARK                         _______ _______ _______ _____ _____    ______ ____
ROOT
ATOM      1  CA  MET A  1       25.082 -20.515   4.405  0.00  0.00    +0.161 C 
ENDROOT
BRANCH   1   2
ATOM      2  N   MET A  1       24.175 -21.571   3.843  0.00  0.00    -0.318 NA
ATOM      3  H1  MET A  1       23.941 -21.296   2.883  0.00  0.00    +0.119 HD
ATOM      4  H2  MET A  1       24.711 -22.438   3.721  0.00  0.00    +0.119 HD
ENDBRANCH   1   2
BRANCH   1   5
ATOM      5  C   MET A  1       24.668 -19.157   3.796  0.00  0.00    +0.322 C 
ATOM      6  O   MET A  1       23.533 -18.730   3.733  0.00  0.00    -0.249 OA
BRANCH   5   7
ATOM      7  OXT MET A  1       25.748 -18.458   3.358  0.00  0.00    -0.479 OA
ATOM      8  HXT MET A  1       25.410 -17.853   2.653  0.00  0.00    +0.295 HD
ENDBRANCH   5   7
ENDBRANCH   1   5
BRANCH   1   9
ATOM      9  CB  MET A  1       25.026 -20.534   5.942  0.00  0.00    +0.040 C 
BRANCH   9  10
ATOM     10  CG  MET A  1       26.322 -21.028   6.599  0.00  0.00    +0.071 C 
BRANCH  10  12
ATOM     11  CE  MET A  1       29.051 -20.835   6.995  0.00  0.00    +0.084 C 
ATOM     12  SD  MET A  1       27.768 -20.157   5.904  0.00  0.00    -0.164 S 
ENDBRANCH  10  12
ENDBRANCH   9  10
ENDBRANCH   1   9
TORSDOF 6
ENDMDL
MODEL 9
REMARK VINA RESULT:      -3.4      7.171      7.686
REMARK  Name = *****
REMARK                            x       y       z     vdW  Elec       q    Type
REMARK                         _______ _______ _______ _____ _____    ______ ____
ROOT
ATOM      1  CA  MET A  1       25.994 -20.606   6.454  0.00  0.00    +0.161 C 
ENDROOT
BRANCH   1   2
ATOM      2  N   MET A  1       27.182 -21.293   7.062  0.00  0.00    -0.318 NA
ATOM      3  H1  MET A  1       27.975 -21.156   6.425  0.00  0.00    +0.119 HD
ATOM      4  H2  MET A  1       27.463 -20.785   7.908  0.00  0.00    +0.119 HD
ENDBRANCH   1   2
BRANCH   1   5
ATOM      5  C   MET A  1       26.407 -20.079   5.062  0.00  0.00    +0.322 C 
ATOM      6  O   MET A  1       25.645 -19.673   4.208  0.00  0.00    -0.249 OA
BRANCH   5   7
ATOM      7  OXT MET A  1       27.758 -20.090   4.907  0.00  0.00    -0.479 OA
ATOM      8  HXT MET A  1       27.919 -20.382   3.976  0.00  0.00    +0.295 HD
ENDBRANCH   5   7
ENDBRANCH   1   5
BRANCH   1   9
ATOM      9  CB  MET A  1       24.795 -21.568   6.408  0.00  0.00    +0.040 C 
BRANCH   9  10
ATOM     10  CG  MET A  1       23.444 -20.880   6.646  0.00  0.00    +0.071 C 
BRANCH  10  12
ATOM     11  CE  MET A  1       22.357 -19.034   4.898  0.00  0.00    +0.084 C 
ATOM     12  SD  MET A  1       22.464 -20.834   5.105  0.00  0.00    -0.164 S 
ENDBRANCH  10  12
ENDBRANCH   9  10
ENDBRANCH   1   9
TORSDOF 6
ENDMDL
