MODEL 1
REMARK VINA RESULT:      -5.6      0.000      0.000
REMARK  Name = *****
REMARK                            x       y       z     vdW  Elec       q    Type
REMARK                         _______ _______ _______ _____ _____    ______ ____
ROOT
ATOM      1  C   LIG    1       23.191 -20.204   4.509  0.00  0.00    +0.062 A 
ATOM      2  C   LIG    1       23.031 -18.810   4.545  0.00  0.00    +0.063 A 
ATOM      3  C   LIG    1       24.099 -18.068   4.059  0.00  0.00    +0.157 A 
ATOM      4  C   LIG    1       25.273 -18.603   3.558  0.00  0.00    +0.110 A 
ATOM      5  N   LIG    1       26.115 -17.594   3.167  0.00  0.00    -0.209 NA
ATOM      6  C   LIG    1       25.441 -16.493   3.447  0.00  0.00    +0.229 A 
ATOM      7  C   LIG    1       25.428 -19.995   3.534  0.00  0.00    +0.032 A 
ATOM      8  O   LIG    1       24.198 -16.710   3.990  0.00  0.00    -0.435 OA
ATOM      9  C   LIG    1       24.379 -20.789   4.027  0.00  0.00    +0.017 A 
ENDROOT
BRANCH   6  10
ATOM     10  C   LIG    1       25.838 -15.100   3.263  0.00  0.00    +0.040 A 
ATOM     11  C   LIG    1       27.161 -14.715   3.529  0.00  0.00    +0.033 A 
ATOM     12  C   LIG    1       27.561 -13.389   3.358  0.00  0.00    +0.043 A 
ATOM     13 CL   LIG    1       29.189 -12.940   3.688  0.00  0.00    -0.084 Cl
ATOM     14  C   LIG    1       26.656 -12.425   2.923  0.00  0.00    +0.040 A 
ATOM     15  C   LIG    1       25.343 -12.799   2.661  0.00  0.00    +0.043 A 
ATOM     16 CL   LIG    1       24.213 -11.618   2.123  0.00  0.00    -0.084 Cl
ATOM     17  C   LIG    1       24.930 -14.123   2.827  0.00  0.00    +0.033 A 
ENDBRANCH   6  10
BRANCH   1  19
ATOM     18  O   LIG    1       21.047 -21.223   4.436  0.00  0.00    -0.245 OA
ATOM     19  C   LIG    1       22.082 -21.027   5.052  0.00  0.00    +0.337 C 
BRANCH  19  20
ATOM     20  O   LIG    1       22.338 -21.571   6.258  0.00  0.00    -0.477 OA
ATOM     21  H   LIG    1       21.911 -21.135   7.018  0.00  0.00    +0.295 HD
ENDBRANCH  19  20
ENDBRANCH   1  19
TORSDOF 3
ENDMDL
MODEL 2
REMARK VINA RESULT:      -5.6      0.075      2.015
REMARK  Name = *****
REMARK                            x       y       z     vdW  Elec       q    Type
REMARK                         _______ _______ _______ _____ _____    ______ ____
ROOT
ATOM      1  C   LIG    1       23.168 -20.204   4.455  0.00  0.00    +0.062 A 
ATOM      2  C   LIG    1       23.051 -18.808   4.546  0.00  0.00    +0.063 A 
ATOM      3  C   LIG    1       24.117 -18.079   4.036  0.00  0.00    +0.157 A 
ATOM      4  C   LIG    1       25.251 -18.628   3.462  0.00  0.00    +0.110 A 
ATOM      5  N   LIG    1       26.103 -17.630   3.068  0.00  0.00    -0.209 NA
ATOM      6  C   LIG    1       25.475 -16.521   3.416  0.00  0.00    +0.229 A 
ATOM      7  C   LIG    1       25.364 -20.023   3.385  0.00  0.00    +0.032 A 
ATOM      8  O   LIG    1       24.252 -16.723   4.008  0.00  0.00    -0.435 OA
ATOM      9  C   LIG    1       24.315 -20.805   3.899  0.00  0.00    +0.017 A 
ENDROOT
BRANCH   6  10
ATOM     10  C   LIG    1       25.904 -15.134   3.261  0.00  0.00    +0.040 A 
ATOM     11  C   LIG    1       24.984 -14.169   2.826  0.00  0.00    +0.033 A 
ATOM     12  C   LIG    1       25.373 -12.837   2.671  0.00  0.00    +0.043 A 
ATOM     13 CL   LIG    1       24.227 -11.670   2.138  0.00  0.00    -0.084 Cl
ATOM     14  C   LIG    1       26.680 -12.444   2.944  0.00  0.00    +0.040 A 
ATOM     15  C   LIG    1       27.598 -13.397   3.373  0.00  0.00    +0.043 A 
ATOM     16 CL   LIG    1       29.217 -12.925   3.714  0.00  0.00    -0.084 Cl
ATOM     17  C   LIG    1       27.221 -14.731   3.532  0.00  0.00    +0.033 A 
ENDBRANCH   6  10
BRANCH   1  19
ATOM     18  O   LIG    1       21.009 -21.192   4.429  0.00  0.00    -0.245 OA
ATOM     19  C   LIG    1       22.062 -21.015   5.020  0.00  0.00    +0.337 C 
BRANCH  19  20
ATOM     20  O   LIG    1       22.340 -21.570   6.217  0.00  0.00    -0.477 OA
ATOM     21  H   LIG    1       21.768 -22.313   6.481  0.00  0.00    +0.295 HD
ENDBRANCH  19  20
ENDBRANCH   1  19
TORSDOF 3
ENDMDL
