MODEL 1
REMARK VINA RESULT:       0.7      0.000      0.000
REMARK  Name = *****
REMARK                            x       y       z     vdW  Elec       q    Type
REMARK                         _______ _______ _______ _____ _____    ______ ____
ROOT
ATOM      1  C   LIG    1       28.618 -12.581   4.572  0.00  0.00    +0.150 C 
ATOM      2  N   LIG    1       27.626 -13.402   3.923  0.00  0.00    -0.333 N 
ATOM      3  C   LIG    1       27.502 -14.770   3.999  0.00  0.00    +0.072 A 
ATOM      4  C   LIG    1       28.257 -15.780   4.610  0.00  0.00    +0.043 A 
ATOM      5  C   LIG    1       27.834 -17.124   4.439  0.00  0.00    +0.065 A 
ATOM      6  C   LIG    1       26.638 -17.444   3.748  0.00  0.00    +0.082 A 
ATOM      7  C   LIG    1       25.870 -16.373   3.231  0.00  0.00    +0.172 A 
ATOM      8  F   LIG    1       24.661 -16.608   2.695  0.00  0.00    -0.201 F 
ATOM      9  C   LIG    1       26.329 -15.044   3.300  0.00  0.00    +0.126 A 
ATOM     10  N   LIG    1       25.794 -13.887   2.776  0.00  0.00    -0.233 NA
ATOM     11  C   LIG    1       26.605 -12.925   3.148  0.00  0.00    +0.200 A 
ENDROOT
BRANCH   5  12
ATOM     12  C   LIG    1       28.739 -18.172   5.032  0.00  0.00    +0.269 C 
ATOM     13  N   LIG    1       28.801 -18.173   6.408  0.00  0.00    -0.190 N 
ATOM     14  H   LIG    1       28.130 -17.654   6.971  0.00  0.00    +0.183 HD
ATOM     15  O   LIG    1       29.334 -18.942   4.302  0.00  0.00    -0.268 OA
BRANCH  13  16
ATOM     16  O   LIG    1       29.475 -19.233   7.053  0.00  0.00    -0.277 OA
BRANCH  16  17
ATOM     17  C   LIG    1       29.025 -20.457   6.468  0.00  0.00    +0.217 C 
BRANCH  17  18
ATOM     18  C   LIG    1       27.688 -20.889   7.061  0.00  0.00    +0.186 C 
BRANCH  18  19
ATOM     19  O   LIG    1       26.606 -20.250   6.383  0.00  0.00    -0.393 OA
ATOM     20  H   LIG    1       25.777 -20.576   6.775  0.00  0.00    +0.209 HD
ENDBRANCH  18  19
ENDBRANCH  17  18
ENDBRANCH  16  17
ENDBRANCH  13  16
ENDBRANCH   5  12
BRANCH   6  21
ATOM     21  N   LIG    1       26.219 -18.803   3.612  0.00  0.00    -0.309 N 
ATOM     22  H   LIG    1       27.005 -19.454   3.687  0.00  0.00    +0.152 HD
BRANCH  21  23
ATOM     23  C   LIG    1       24.999 -19.415   3.994  0.00  0.00    +0.067 A 
ATOM     24  C   LIG    1       24.950 -20.795   4.261  0.00  0.00    +0.145 A 
ATOM     25  F   LIG    1       26.080 -21.517   4.186  0.00  0.00    -0.203 F 
ATOM     26  C   LIG    1       23.768 -21.439   4.624  0.00  0.00    +0.055 A 
ATOM     27  C   LIG    1       22.606 -20.688   4.756  0.00  0.00    +0.021 A 
ATOM     28 BR   LIG    1       21.002 -21.519   5.315  0.00  0.00    -0.050 Br
ATOM     29  C   LIG    1       22.617 -19.321   4.488  0.00  0.00    +0.017 A 
ATOM     30  C   LIG    1       23.801 -18.697   4.076  0.00  0.00    +0.027 A 
ENDBRANCH  21  23
ENDBRANCH   6  21
TORSDOF 7
ENDMDL
MODEL 2
REMARK VINA RESULT:       1.4      4.259      7.515
REMARK  Name = *****
REMARK                            x       y       z     vdW  Elec       q    Type
REMARK                         _______ _______ _______ _____ _____    ______ ____
ROOT
ATOM      1  C   LIG    1       22.113 -20.828   5.991  0.00  0.00    +0.150 C 
ATOM      2  N   LIG    1       23.237 -20.575   5.125  0.00  0.00    -0.333 N 
ATOM      3  C   LIG    1       23.657 -19.356   4.645  0.00  0.00    +0.072 A 
ATOM      4  C   LIG    1       23.161 -18.050   4.745  0.00  0.00    +0.043 A 
ATOM      5  C   LIG    1       23.859 -17.017   4.069  0.00  0.00    +0.065 A 
ATOM      6  C   LIG    1       25.073 -17.269   3.380  0.00  0.00    +0.082 A 
ATOM      7  C   LIG    1       25.573 -18.593   3.391  0.00  0.00    +0.172 A 
ATOM      8  F   LIG    1       26.786 -18.860   2.879  0.00  0.00    -0.201 F 
ATOM      9  C   LIG    1       24.839 -19.647   3.967  0.00  0.00    +0.126 A 
ATOM     10  N   LIG    1       25.093 -21.001   3.993  0.00  0.00    -0.233 NA
ATOM     11  C   LIG    1       24.104 -21.531   4.674  0.00  0.00    +0.200 A 
ENDROOT
BRANCH   5  12
ATOM     12  C   LIG    1       23.224 -15.653   4.129  0.00  0.00    +0.269 C 
ATOM     13  N   LIG    1       23.754 -14.807   5.077  0.00  0.00    -0.190 N 
ATOM     14  H   LIG    1       24.635 -15.015   5.542  0.00  0.00    +0.183 HD
ATOM     15  O   LIG    1       22.322 -15.371   3.361  0.00  0.00    -0.268 OA
BRANCH  13  16
ATOM     16  O   LIG    1       23.348 -13.454   5.079  0.00  0.00    -0.277 OA
BRANCH  16  17
ATOM     17  C   LIG    1       24.377 -12.688   4.451  0.00  0.00    +0.217 C 
BRANCH  17  18
ATOM     18  C   LIG    1       23.790 -11.520   3.665  0.00  0.00    +0.186 C 
BRANCH  18  19
ATOM     19  O   LIG    1       23.543 -11.898   2.312  0.00  0.00    -0.393 OA
ATOM     20  H   LIG    1       22.659 -12.305   2.273  0.00  0.00    +0.209 HD
ENDBRANCH  18  19
ENDBRANCH  17  18
ENDBRANCH  16  17
ENDBRANCH  13  16
ENDBRANCH   5  12
BRANCH   6  21
ATOM     21  N   LIG    1       25.772 -16.207   2.729  0.00  0.00    -0.309 N 
ATOM     22  H   LIG    1       25.282 -15.886   1.890  0.00  0.00    +0.152 HD
BRANCH  21  23
ATOM     23  C   LIG    1       26.580 -15.183   3.283  0.00  0.00    +0.067 A 
ATOM     24  C   LIG    1       26.499 -13.869   2.789  0.00  0.00    +0.145 A 
ATOM     25  F   LIG    1       25.621 -13.589   1.812  0.00  0.00    -0.203 F 
ATOM     26  C   LIG    1       27.286 -12.836   3.295  0.00  0.00    +0.055 A 
ATOM     27  C   LIG    1       28.159 -13.107   4.343  0.00  0.00    +0.021 A 
ATOM     28 BR   LIG    1       29.190 -11.714   5.098  0.00  0.00    -0.050 Br
ATOM     29  C   LIG    1       28.273 -14.400   4.848  0.00  0.00    +0.017 A 
ATOM     30  C   LIG    1       27.511 -15.437   4.296  0.00  0.00    +0.027 A 
ENDBRANCH  21  23
ENDBRANCH   6  21
TORSDOF 7
ENDMDL
MODEL 3
REMARK VINA RESULT:       1.8      4.278      7.622
REMARK  Name = *****
REMARK                            x       y       z     vdW  Elec       q    Type
REMARK                         _______ _______ _______ _____ _____    ______ ____
ROOT
ATOM      1  C   LIG    1       22.319 -20.630   5.542  0.00  0.00    +0.150 C 
ATOM      2  N   LIG    1       23.466 -20.232   4.764  0.00  0.00    -0.333 N 
ATOM      3  C   LIG    1       23.825 -18.951   4.411  0.00  0.00    +0.072 A 
ATOM      4  C   LIG    1       23.235 -17.694   4.591  0.00  0.00    +0.043 A 
ATOM      5  C   LIG    1       23.895 -16.563   4.043  0.00  0.00    +0.065 A 
ATOM      6  C   LIG    1       25.157 -16.677   3.405  0.00  0.00    +0.082 A 
ATOM      7  C   LIG    1       25.744 -17.962   3.333  0.00  0.00    +0.172 A 
ATOM      8  F   LIG    1       26.997 -18.106   2.870  0.00  0.00    -0.201 F 
ATOM      9  C   LIG    1       25.056 -19.107   3.778  0.00  0.00    +0.126 A 
ATOM     10  N   LIG    1       25.400 -20.439   3.706  0.00  0.00    -0.233 NA
ATOM     11  C   LIG    1       24.418 -21.088   4.285  0.00  0.00    +0.200 A 
ENDROOT
BRANCH   5  12
ATOM     12  C   LIG    1       23.165 -15.253   4.180  0.00  0.00    +0.269 C 
ATOM     13  N   LIG    1       23.630 -14.243   3.368  0.00  0.00    -0.190 N 
ATOM     14  H   LIG    1       24.266 -14.431   2.596  0.00  0.00    +0.183 HD
ATOM     15  O   LIG    1       22.232 -15.158   4.955  0.00  0.00    -0.268 OA
BRANCH  13  16
ATOM     16  O   LIG    1       22.892 -13.040   3.296  0.00  0.00    -0.277 OA
BRANCH  16  17
ATOM     17  C   LIG    1       23.823 -11.957   3.260  0.00  0.00    +0.217 C 
BRANCH  17  18
ATOM     18  C   LIG    1       24.446 -11.815   1.875  0.00  0.00    +0.186 C 
BRANCH  18  19
ATOM     19  O   LIG    1       25.856 -11.617   1.974  0.00  0.00    -0.393 OA
ATOM     20  H   LIG    1       26.008 -10.694   2.244  0.00  0.00    +0.209 HD
ENDBRANCH  18  19
ENDBRANCH  17  18
ENDBRANCH  16  17
ENDBRANCH  13  16
ENDBRANCH   5  12
BRANCH   6  21
ATOM     21  N   LIG    1       25.813 -15.520   2.884  0.00  0.00    -0.309 N 
ATOM     22  H   LIG    1       25.263 -15.068   2.149  0.00  0.00    +0.152 HD
BRANCH  21  23
ATOM     23  C   LIG    1       26.669 -14.598   3.535  0.00  0.00    +0.067 A 
ATOM     24  C   LIG    1       26.316 -14.062   4.787  0.00  0.00    +0.145 A 
ATOM     25  F   LIG    1       25.177 -14.466   5.374  0.00  0.00    -0.203 F 
ATOM     26  C   LIG    1       27.121 -13.140   5.454  0.00  0.00    +0.055 A 
ATOM     27  C   LIG    1       28.327 -12.759   4.877  0.00  0.00    +0.021 A 
ATOM     28 BR   LIG    1       29.475 -11.564   5.787  0.00  0.00    -0.050 Br
ATOM     29  C   LIG    1       28.701 -13.261   3.632  0.00  0.00    +0.017 A 
ATOM     30  C   LIG    1       27.859 -14.148   2.952  0.00  0.00    +0.027 A 
ENDBRANCH  21  23
ENDBRANCH   6  21
TORSDOF 7
ENDMDL
MODEL 4
REMARK VINA RESULT:       1.9      3.034      4.618
REMARK  Name = *****
REMARK                            x       y       z     vdW  Elec       q    Type
REMARK                         _______ _______ _______ _____ _____    ______ ____
ROOT
ATOM      1  C   LIG    1       22.866 -12.133   3.936  0.00  0.00    +0.150 C 
ATOM      2  N   LIG    1       24.045 -12.955   3.819  0.00  0.00    -0.333 N 
ATOM      3  C   LIG    1       24.103 -14.330   3.827  0.00  0.00    +0.072 A 
ATOM      4  C   LIG    1       23.149 -15.340   4.006  0.00  0.00    +0.043 A 
ATOM      5  C   LIG    1       23.593 -16.687   3.985  0.00  0.00    +0.065 A 
ATOM      6  C   LIG    1       24.943 -17.021   3.706  0.00  0.00    +0.082 A 
ATOM      7  C   LIG    1       25.841 -15.959   3.443  0.00  0.00    +0.172 A 
ATOM      8  F   LIG    1       27.094 -16.221   3.033  0.00  0.00    -0.201 F 
ATOM      9  C   LIG    1       25.441 -14.615   3.564  0.00  0.00    +0.126 A 
ATOM     10  N   LIG    1       26.173 -13.453   3.454  0.00  0.00    -0.233 NA
ATOM     11  C   LIG    1       25.313 -12.478   3.635  0.00  0.00    +0.200 A 
ENDROOT
BRANCH   5  12
ATOM     12  C   LIG    1       22.542 -17.724   4.284  0.00  0.00    +0.269 C 
ATOM     13  N   LIG    1       22.873 -19.009   3.914  0.00  0.00    -0.190 N 
ATOM     14  H   LIG    1       23.827 -19.260   3.662  0.00  0.00    +0.183 HD
ATOM     15  O   LIG    1       21.503 -17.395   4.826  0.00  0.00    -0.268 OA
BRANCH  13  16
ATOM     16  O   LIG    1       22.031 -20.067   4.322  0.00  0.00    -0.277 OA
BRANCH  16  17
ATOM     17  C   LIG    1       22.863 -21.136   4.778  0.00  0.00    +0.217 C 
BRANCH  17  18
ATOM     18  C   LIG    1       23.253 -20.940   6.240  0.00  0.00    +0.186 C 
BRANCH  18  19
ATOM     19  O   LIG    1       23.165 -19.564   6.605  0.00  0.00    -0.393 OA
ATOM     20  H   LIG    1       23.488 -19.477   7.519  0.00  0.00    +0.209 HD
ENDBRANCH  18  19
ENDBRANCH  17  18
ENDBRANCH  16  17
ENDBRANCH  13  16
ENDBRANCH   5  12
BRANCH   6  21
ATOM     21  N   LIG    1       25.360 -18.386   3.665  0.00  0.00    -0.309 N 
ATOM     22  H   LIG    1       25.320 -18.768   2.716  0.00  0.00    +0.152 HD
BRANCH  21  23
ATOM     23  C   LIG    1       26.321 -19.061   4.458  0.00  0.00    +0.067 A 
ATOM     24  C   LIG    1       26.059 -20.355   4.943  0.00  0.00    +0.145 A 
ATOM     25  F   LIG    1       24.904 -20.957   4.613  0.00  0.00    -0.203 F 
ATOM     26  C   LIG    1       26.970 -21.048   5.739  0.00  0.00    +0.055 A 
ATOM     27  C   LIG    1       28.190 -20.452   6.040  0.00  0.00    +0.021 A 
ATOM     28 BR   LIG    1       29.475 -21.393   7.059  0.00  0.00    -0.050 Br
ATOM     29  C   LIG    1       28.476 -19.167   5.585  0.00  0.00    +0.017 A 
ATOM     30  C   LIG    1       27.531 -18.464   4.828  0.00  0.00    +0.027 A 
ENDBRANCH  21  23
ENDBRANCH   6  21
TORSDOF 7
ENDMDL
MODEL 5
REMARK VINA RESULT:       2.0      3.304      6.166
REMARK  Name = *****
REMARK                            x       y       z     vdW  Elec       q    Type
REMARK                         _______ _______ _______ _____ _____    ______ ____
ROOT
ATOM      1  C   LIG    1       29.474 -20.817   6.794  0.00  0.00    +0.150 C 
ATOM      2  N   LIG    1       28.069 -20.696   6.492  0.00  0.00    -0.333 N 
ATOM      3  C   LIG    1       27.469 -19.747   5.696  0.00  0.00    +0.072 A 
ATOM      4  C   LIG    1       27.938 -18.617   5.013  0.00  0.00    +0.043 A 
ATOM      5  C   LIG    1       26.995 -17.830   4.302  0.00  0.00    +0.065 A 
ATOM      6  C   LIG    1       25.632 -18.210   4.205  0.00  0.00    +0.082 A 
ATOM      7  C   LIG    1       25.238 -19.411   4.842  0.00  0.00    +0.172 A 
ATOM      8  F   LIG    1       23.996 -19.892   4.664  0.00  0.00    -0.201 F 
ATOM      9  C   LIG    1       26.136 -20.146   5.638  0.00  0.00    +0.126 A 
ATOM     10  N   LIG    1       25.930 -21.266   6.414  0.00  0.00    -0.233 NA
ATOM     11  C   LIG    1       27.101 -21.557   6.929  0.00  0.00    +0.200 A 
ENDROOT
BRANCH   5  12
ATOM     12  C   LIG    1       27.539 -16.575   3.672  0.00  0.00    +0.269 C 
ATOM     13  N   LIG    1       27.972 -15.619   4.564  0.00  0.00    -0.190 N 
ATOM     14  H   LIG    1       28.110 -15.835   5.549  0.00  0.00    +0.183 HD
ATOM     15  O   LIG    1       27.581 -16.474   2.460  0.00  0.00    -0.268 OA
BRANCH  13  16
ATOM     16  O   LIG    1       28.664 -14.493   4.065  0.00  0.00    -0.277 OA
BRANCH  16  17
ATOM     17  C   LIG    1       27.964 -13.324   4.495  0.00  0.00    +0.217 C 
BRANCH  17  18
ATOM     18  C   LIG    1       28.901 -12.123   4.577  0.00  0.00    +0.186 C 
BRANCH  18  19
ATOM     19  O   LIG    1       29.163 -11.781   5.937  0.00  0.00    -0.393 OA
ATOM     20  H   LIG    1       29.242 -10.812   5.990  0.00  0.00    +0.209 HD
ENDBRANCH  18  19
ENDBRANCH  17  18
ENDBRANCH  16  17
ENDBRANCH  13  16
ENDBRANCH   5  12
BRANCH   6  21
ATOM     21  N   LIG    1       24.708 -17.414   3.462  0.00  0.00    -0.309 N 
ATOM     22  H   LIG    1       23.879 -17.949   3.188  0.00  0.00    +0.152 HD
BRANCH  21  23
ATOM     23  C   LIG    1       24.424 -16.030   3.561  0.00  0.00    +0.067 A 
ATOM     24  C   LIG    1       23.324 -15.582   4.315  0.00  0.00    +0.145 A 
ATOM     25  F   LIG    1       22.570 -16.480   4.970  0.00  0.00    -0.203 F 
ATOM     26  C   LIG    1       23.001 -14.230   4.426  0.00  0.00    +0.055 A 
ATOM     27  C   LIG    1       23.809 -13.292   3.794  0.00  0.00    +0.021 A 
ATOM     28 BR   LIG    1       23.439 -11.447   3.982  0.00  0.00    -0.050 Br
ATOM     29  C   LIG    1       24.900 -13.702   3.030  0.00  0.00    +0.017 A 
ATOM     30  C   LIG    1       25.182 -15.065   2.888  0.00  0.00    +0.027 A 
ENDBRANCH  21  23
ENDBRANCH   6  21
TORSDOF 7
ENDMDL
MODEL 6
REMARK VINA RESULT:       3.0      3.054      5.925
REMARK  Name = *****
REMARK                            x       y       z     vdW  Elec       q    Type
REMARK                         _______ _______ _______ _____ _____    ______ ____
ROOT
ATOM      1  C   LIG    1       21.256 -21.571   5.054  0.00  0.00    +0.150 C 
ATOM      2  N   LIG    1       21.797 -20.294   4.661  0.00  0.00    -0.333 N 
ATOM      3  C   LIG    1       23.124 -19.929   4.626  0.00  0.00    +0.072 A 
ATOM      4  C   LIG    1       24.315 -20.569   4.990  0.00  0.00    +0.043 A 
ATOM      5  C   LIG    1       25.530 -19.850   4.843  0.00  0.00    +0.065 A 
ATOM      6  C   LIG    1       25.561 -18.555   4.264  0.00  0.00    +0.082 A 
ATOM      7  C   LIG    1       24.334 -17.999   3.832  0.00  0.00    +0.172 A 
ATOM      8  F   LIG    1       24.322 -16.842   3.149  0.00  0.00    -0.201 F 
ATOM      9  C   LIG    1       23.110 -18.654   4.067  0.00  0.00    +0.126 A 
ATOM     10  N   LIG    1       21.818 -18.243   3.823  0.00  0.00    -0.233 NA
ATOM     11  C   LIG    1       21.054 -19.238   4.210  0.00  0.00    +0.200 A 
ENDROOT
BRANCH   5  12
ATOM     12  C   LIG    1       26.766 -20.549   5.345  0.00  0.00    +0.269 C 
ATOM     13  N   LIG    1       27.955 -19.989   4.935  0.00  0.00    -0.190 N 
ATOM     14  H   LIG    1       27.990 -19.064   4.513  0.00  0.00    +0.183 HD
ATOM     15  O   LIG    1       26.660 -21.523   6.067  0.00  0.00    -0.268 OA
BRANCH  13  16
ATOM     16  O   LIG    1       29.157 -20.465   5.505  0.00  0.00    -0.277 OA
BRANCH  16  17
ATOM     17  C   LIG    1       29.210 -20.007   6.858  0.00  0.00    +0.217 C 
BRANCH  17  18
ATOM     18  C   LIG    1       29.433 -18.499   6.918  0.00  0.00    +0.186 C 
BRANCH  18  19
ATOM     19  O   LIG    1       29.474 -17.943   5.604  0.00  0.00    -0.393 OA
ATOM     20  H   LIG    1       28.648 -18.187   5.152  0.00  0.00    +0.209 HD
ENDBRANCH  18  19
ENDBRANCH  17  18
ENDBRANCH  16  17
ENDBRANCH  13  16
ENDBRANCH   5  12
BRANCH   6  21
ATOM     21  N   LIG    1       26.799 -17.863   4.102  0.00  0.00    -0.309 N 
ATOM     22  H   LIG    1       27.523 -18.464   3.699  0.00  0.00    +0.152 HD
BRANCH  21  23
ATOM     23  C   LIG    1       27.039 -16.496   3.814  0.00  0.00    +0.067 A 
ATOM     24  C   LIG    1       27.891 -15.736   4.635  0.00  0.00    +0.145 A 
ATOM     25  F   LIG    1       28.505 -16.330   5.671  0.00  0.00    -0.203 F 
ATOM     26  C   LIG    1       28.141 -14.385   4.396  0.00  0.00    +0.055 A 
ATOM     27  C   LIG    1       27.551 -13.776   3.294  0.00  0.00    +0.021 A 
ATOM     28 BR   LIG    1       27.925 -11.965   2.902  0.00  0.00    -0.050 Br
ATOM     29  C   LIG    1       26.692 -14.498   2.467  0.00  0.00    +0.017 A 
ATOM     30  C   LIG    1       26.412 -15.840   2.748  0.00  0.00    +0.027 A 
ENDBRANCH  21  23
ENDBRANCH   6  21
TORSDOF 7
ENDMDL
