MODEL 1
REMARK VINA RESULT:      -9.8      0.000      0.000
REMARK  Name = *****
REMARK                            x       y       z     vdW  Elec       q    Type
REMARK                         _______ _______ _______ _____ _____    ______ ____
ROOT
ATOM      1  C   LIG    1       25.141 -24.399   5.107  0.00  0.00    +0.086 C 
ENDROOT
BRANCH   1   5
ATOM      2  C   LIG    1       25.336 -28.564   6.315  0.00  0.00    +0.101 C 
ATOM      3  C   LIG    1       23.973 -27.841   6.211  0.00  0.00    +0.047 C 
ATOM      4  C   LIG    1       24.115 -26.321   6.107  0.00  0.00    +0.086 C 
ATOM      5  N   LIG    1       25.001 -25.878   5.020  0.00  0.00    -0.302 NA
ATOM      6  C   LIG    1       26.305 -26.560   5.049  0.00  0.00    +0.086 C 
ATOM      7  C   LIG    1       26.185 -28.089   5.111  0.00  0.00    +0.047 C 
BRANCH   2   8
ATOM      8  N   LIG    1       25.218 -30.083   6.357  0.00  0.00    -0.289 NA
ATOM      9  C   LIG    1       25.839 -30.756   5.195  0.00  0.00    +0.085 C 
ATOM     10  C   LIG    1       25.761 -32.284   5.285  0.00  0.00    +0.015 C 
ATOM     11  C   LIG    1       24.329 -32.764   5.455  0.00  0.00    +0.002 C 
ATOM     12  C   LIG    1       23.677 -32.041   6.623  0.00  0.00    +0.015 C 
ATOM     13  C   LIG    1       23.807 -30.523   6.479  0.00  0.00    +0.085 C 
ENDBRANCH   2   8
BRANCH   2  17
ATOM     14  N   LIG    1       26.343 -29.082   8.559  0.00  0.00    -0.328 N 
ATOM     15  H   LIG    1       25.824 -29.949   8.548  0.00  0.00    +0.145 HD
ATOM     16  H   LIG    1       26.700 -28.750   9.448  0.00  0.00    +0.145 HD
ATOM     17  C   LIG    1       26.063 -28.106   7.641  0.00  0.00    +0.231 C 
ATOM     18  O   LIG    1       26.363 -26.952   7.904  0.00  0.00    -0.274 OA
ENDBRANCH   2  17
ENDBRANCH   1   5
BRANCH   1  19
ATOM     19  C   LIG    1       25.325 -23.891   6.539  0.00  0.00    +0.035 C 
BRANCH  19  20
ATOM     20  C   LIG    1       26.718 -23.291   6.801  0.00  0.00    +0.112 C 
BRANCH  20  21
ATOM     21  N   LIG    1       26.673 -21.808   6.960  0.00  0.00    -0.299 N 
ATOM     22  C   LIG    1       27.894 -21.107   6.967  0.00  0.00    +0.038 A 
ATOM     23  C   LIG    1       28.207 -20.067   6.070  0.00  0.00    -0.026 A 
ATOM     24  C   LIG    1       29.461 -19.422   6.179  0.00  0.00    +0.007 A 
ATOM     25  C   LIG    1       30.387 -19.782   7.157  0.00  0.00    +0.020 A 
ATOM     26  C   LIG    1       30.067 -20.790   8.050  0.00  0.00    +0.043 A 
ATOM     27 CL   LIG    1       31.175 -21.212   9.297  0.00  0.00    -0.084 Cl
ATOM     28  C   LIG    1       27.280 -19.514   5.006  0.00  0.00    +0.041 C 
ATOM     29  C   LIG    1       26.119 -20.367   4.491  0.00  0.00    +0.041 C 
ATOM     30  C   LIG    1       25.068 -20.609   5.538  0.00  0.00    -0.026 A 
ATOM     31  C   LIG    1       23.743 -20.200   5.318  0.00  0.00    +0.005 A 
ATOM     32  C   LIG    1       22.770 -20.367   6.305  0.00  0.00    +0.000 A 
ATOM     33  C   LIG    1       23.118 -20.926   7.529  0.00  0.00    +0.002 A 
ATOM     34  C   LIG    1       24.422 -21.374   7.737  0.00  0.00    +0.024 A 
ATOM     35  C   LIG    1       28.841 -21.446   7.957  0.00  0.00    +0.043 A 
ATOM     36  C   LIG    1       25.400 -21.255   6.735  0.00  0.00    +0.037 A 
ENDBRANCH  20  21
ENDBRANCH  19  20
ENDBRANCH   1  19
TORSDOF 6
ENDMDL
MODEL 2
REMARK VINA RESULT:      -9.7      2.740      9.514
REMARK  Name = *****
REMARK                            x       y       z     vdW  Elec       q    Type
REMARK                         _______ _______ _______ _____ _____    ______ ____
ROOT
ATOM      1  C   LIG    1       25.907 -26.691   6.779  0.00  0.00    +0.086 C 
ENDROOT
BRANCH   1   5
ATOM      2  C   LIG    1       24.478 -22.663   6.020  0.00  0.00    +0.101 C 
ATOM      3  C   LIG    1       25.765 -22.895   6.844  0.00  0.00    +0.047 C 
ATOM      4  C   LIG    1       25.928 -24.350   7.292  0.00  0.00    +0.086 C 
ATOM      5  N   LIG    1       25.853 -25.324   6.194  0.00  0.00    -0.302 NA
ATOM      6  C   LIG    1       24.661 -25.128   5.353  0.00  0.00    +0.086 C 
ATOM      7  C   LIG    1       24.502 -23.684   4.858  0.00  0.00    +0.047 C 
BRANCH   2   8
ATOM      8  N   LIG    1       24.330 -21.234   5.512  0.00  0.00    -0.289 NA
ATOM      9  C   LIG    1       22.959 -20.905   5.064  0.00  0.00    +0.085 C 
ATOM     10  C   LIG    1       22.816 -19.448   4.612  0.00  0.00    +0.015 C 
ATOM     11  C   LIG    1       23.813 -19.100   3.519  0.00  0.00    +0.002 C 
ATOM     12  C   LIG    1       25.218 -19.476   3.962  0.00  0.00    +0.015 C 
ATOM     13  C   LIG    1       25.284 -20.936   4.416  0.00  0.00    +0.085 C 
ENDBRANCH   2   8
BRANCH   2  17
ATOM     14  N   LIG    1       22.979 -22.118   7.963  0.00  0.00    -0.328 N 
ATOM     15  H   LIG    1       23.727 -21.544   8.328  0.00  0.00    +0.145 HD
ATOM     16  H   LIG    1       22.243 -22.404   8.598  0.00  0.00    +0.145 HD
ATOM     17  C   LIG    1       23.222 -22.978   6.926  0.00  0.00    +0.231 C 
ATOM     18  O   LIG    1       22.481 -23.936   6.774  0.00  0.00    -0.274 OA
ENDBRANCH   2  17
ENDBRANCH   1   5
BRANCH   1  19
ATOM     19  C   LIG    1       25.252 -27.755   5.895  0.00  0.00    +0.035 C 
BRANCH  19  20
ATOM     20  C   LIG    1       24.294 -28.684   6.663  0.00  0.00    +0.112 C 
BRANCH  20  21
ATOM     21  N   LIG    1       24.986 -29.895   7.192  0.00  0.00    -0.299 N 
ATOM     22  C   LIG    1       25.196 -29.981   8.581  0.00  0.00    +0.038 A 
ATOM     23  C   LIG    1       24.730 -31.043   9.382  0.00  0.00    -0.026 A 
ATOM     24  C   LIG    1       25.015 -31.032  10.767  0.00  0.00    +0.007 A 
ATOM     25  C   LIG    1       25.752 -30.007  11.356  0.00  0.00    +0.020 A 
ATOM     26  C   LIG    1       26.227 -28.977  10.563  0.00  0.00    +0.043 A 
ATOM     27 CL   LIG    1       27.185 -27.729  11.261  0.00  0.00    -0.084 Cl
ATOM     28  C   LIG    1       23.983 -32.261   8.878  0.00  0.00    +0.041 C 
ATOM     29  C   LIG    1       23.241 -32.200   7.542  0.00  0.00    +0.041 C 
ATOM     30  C   LIG    1       24.171 -32.061   6.368  0.00  0.00    -0.026 A 
ATOM     31  C   LIG    1       24.173 -33.027   5.348  0.00  0.00    +0.005 A 
ATOM     32  C   LIG    1       25.071 -32.939   4.284  0.00  0.00    +0.000 A 
ATOM     33  C   LIG    1       25.989 -31.897   4.239  0.00  0.00    +0.002 A 
ATOM     34  C   LIG    1       25.963 -30.913   5.225  0.00  0.00    +0.024 A 
ATOM     35  C   LIG    1       25.953 -28.960   9.196  0.00  0.00    +0.043 A 
ATOM     36  C   LIG    1       25.033 -30.962   6.277  0.00  0.00    +0.037 A 
ENDBRANCH  20  21
ENDBRANCH  19  20
ENDBRANCH   1  19
TORSDOF 6
ENDMDL
MODEL 3
REMARK VINA RESULT:      -9.6      3.485      9.561
REMARK  Name = *****
REMARK                            x       y       z     vdW  Elec       q    Type
REMARK                         _______ _______ _______ _____ _____    ______ ____
ROOT
ATOM      1  C   LIG    1       25.815 -27.113   7.167  0.00  0.00    +0.086 C 
ENDROOT
BRANCH   1   5
ATOM      2  C   LIG    1       24.708 -23.084   5.991  0.00  0.00    +0.101 C 
ATOM      3  C   LIG    1       25.926 -23.324   6.912  0.00  0.00    +0.047 C 
ATOM      4  C   LIG    1       25.963 -24.743   7.487  0.00  0.00    +0.086 C 
ATOM      5  N   LIG    1       25.889 -25.801   6.470  0.00  0.00    -0.302 NA
ATOM      6  C   LIG    1       24.764 -25.604   5.541  0.00  0.00    +0.086 C 
ATOM      7  C   LIG    1       24.733 -24.201   4.920  0.00  0.00    +0.047 C 
BRANCH   2   8
ATOM      8  N   LIG    1       24.687 -21.697   5.359  0.00  0.00    -0.289 NA
ATOM      9  C   LIG    1       24.114 -21.678   3.995  0.00  0.00    +0.085 C 
ATOM     10  C   LIG    1       24.047 -20.268   3.400  0.00  0.00    +0.015 C 
ATOM     11  C   LIG    1       25.411 -19.596   3.396  0.00  0.00    +0.002 C 
ATOM     12  C   LIG    1       26.018 -19.653   4.789  0.00  0.00    +0.015 C 
ATOM     13  C   LIG    1       26.037 -21.085   5.329  0.00  0.00    +0.085 C 
ENDBRANCH   2   8
BRANCH   2  17
ATOM     14  N   LIG    1       23.068 -22.216   7.687  0.00  0.00    -0.328 N 
ATOM     15  H   LIG    1       23.791 -21.585   8.004  0.00  0.00    +0.145 HD
ATOM     16  H   LIG    1       22.282 -22.391   8.302  0.00  0.00    +0.145 HD
ATOM     17  C   LIG    1       23.383 -23.242   6.836  0.00  0.00    +0.231 C 
ATOM     18  O   LIG    1       22.646 -24.214   6.795  0.00  0.00    -0.274 OA
ENDBRANCH   2  17
ENDBRANCH   1   5
BRANCH   1  19
ATOM     19  C   LIG    1       25.318 -28.249   6.271  0.00  0.00    +0.035 C 
BRANCH  19  20
ATOM     20  C   LIG    1       24.083 -28.977   6.833  0.00  0.00    +0.112 C 
BRANCH  20  21
ATOM     21  N   LIG    1       24.450 -30.223   7.567  0.00  0.00    -0.299 N 
ATOM     22  C   LIG    1       25.270 -31.159   6.909  0.00  0.00    +0.038 A 
ATOM     23  C   LIG    1       26.505 -31.612   7.413  0.00  0.00    -0.026 A 
ATOM     24  C   LIG    1       27.239 -32.568   6.672  0.00  0.00    +0.007 A 
ATOM     25  C   LIG    1       26.765 -33.081   5.466  0.00  0.00    +0.020 A 
ATOM     26  C   LIG    1       25.540 -32.650   4.985  0.00  0.00    +0.043 A 
ATOM     27 CL   LIG    1       24.914 -33.310   3.525  0.00  0.00    -0.084 Cl
ATOM     28  C   LIG    1       27.115 -31.207   8.740  0.00  0.00    +0.041 C 
ATOM     29  C   LIG    1       26.682 -29.901   9.409  0.00  0.00    +0.041 C 
ATOM     30  C   LIG    1       25.251 -29.934   9.871  0.00  0.00    -0.026 A 
ATOM     31  C   LIG    1       24.940 -29.735  11.226  0.00  0.00    +0.005 A 
ATOM     32  C   LIG    1       23.622 -29.819  11.676  0.00  0.00    +0.000 A 
ATOM     33  C   LIG    1       22.605 -30.124  10.780  0.00  0.00    +0.002 A 
ATOM     34  C   LIG    1       22.902 -30.281   9.427  0.00  0.00    +0.024 A 
ATOM     35  C   LIG    1       24.803 -31.703   5.692  0.00  0.00    +0.043 A 
ATOM     36  C   LIG    1       24.218 -30.151   8.952  0.00  0.00    +0.037 A 
ENDBRANCH  20  21
ENDBRANCH  19  20
ENDBRANCH   1  19
TORSDOF 6
ENDMDL
MODEL 4
REMARK VINA RESULT:      -9.1      1.628      2.268
REMARK  Name = *****
REMARK                            x       y       z     vdW  Elec       q    Type
REMARK                         _______ _______ _______ _____ _____    ______ ____
ROOT
ATOM      1  C   LIG    1       25.413 -25.074   5.288  0.00  0.00    +0.086 C 
ENDROOT
BRANCH   1   5
ATOM      2  C   LIG    1       25.206 -28.995   7.138  0.00  0.00    +0.101 C 
ATOM      3  C   LIG    1       26.314 -27.996   7.541  0.00  0.00    +0.047 C 
ATOM      4  C   LIG    1       26.438 -26.823   6.567  0.00  0.00    +0.086 C 
ATOM      5  N   LIG    1       25.177 -26.104   6.335  0.00  0.00    -0.302 NA
ATOM      6  C   LIG    1       24.075 -27.012   5.979  0.00  0.00    +0.086 C 
ATOM      7  C   LIG    1       23.906 -28.173   6.968  0.00  0.00    +0.047 C 
BRANCH   2   8
ATOM      8  N   LIG    1       25.025 -30.138   8.130  0.00  0.00    -0.289 NA
ATOM      9  C   LIG    1       23.729 -30.103   8.842  0.00  0.00    +0.085 C 
ATOM     10  C   LIG    1       23.542 -31.291   9.791  0.00  0.00    +0.015 C 
ATOM     11  C   LIG    1       24.679 -31.392  10.795  0.00  0.00    +0.002 C 
ATOM     12  C   LIG    1       26.014 -31.385  10.065  0.00  0.00    +0.015 C 
ATOM     13  C   LIG    1       26.126 -30.185   9.123  0.00  0.00    +0.085 C 
ENDBRANCH   2   8
BRANCH   2  17
ATOM     14  N   LIG    1       26.227 -30.835   5.762  0.00  0.00    -0.328 N 
ATOM     15  H   LIG    1       26.738 -31.115   6.587  0.00  0.00    +0.145 HD
ATOM     16  H   LIG    1       26.554 -31.166   4.861  0.00  0.00    +0.145 HD
ATOM     17  C   LIG    1       25.572 -29.633   5.739  0.00  0.00    +0.231 C 
ATOM     18  O   LIG    1       25.330 -29.119   4.659  0.00  0.00    -0.274 OA
ENDBRANCH   2  17
ENDBRANCH   1   5
BRANCH   1  19
ATOM     19  C   LIG    1       25.249 -23.641   5.799  0.00  0.00    +0.035 C 
BRANCH  19  20
ATOM     20  C   LIG    1       26.415 -23.171   6.688  0.00  0.00    +0.112 C 
BRANCH  20  21
ATOM     21  N   LIG    1       26.454 -21.687   6.828  0.00  0.00    -0.299 N 
ATOM     22  C   LIG    1       27.715 -21.061   6.869  0.00  0.00    +0.038 A 
ATOM     23  C   LIG    1       28.121 -20.053   5.972  0.00  0.00    -0.026 A 
ATOM     24  C   LIG    1       29.408 -19.484   6.117  0.00  0.00    +0.007 A 
ATOM     25  C   LIG    1       30.277 -19.885   7.131  0.00  0.00    +0.020 A 
ATOM     26  C   LIG    1       29.866 -20.860   8.024  0.00  0.00    +0.043 A 
ATOM     27 CL   LIG    1       30.902 -21.331   9.314  0.00  0.00    -0.084 Cl
ATOM     28  C   LIG    1       27.267 -19.461   4.869  0.00  0.00    +0.041 C 
ATOM     29  C   LIG    1       26.075 -20.249   4.324  0.00  0.00    +0.041 C 
ATOM     30  C   LIG    1       24.975 -20.413   5.336  0.00  0.00    -0.026 A 
ATOM     31  C   LIG    1       23.686 -19.927   5.065  0.00  0.00    +0.005 A 
ATOM     32  C   LIG    1       22.672 -20.022   6.020  0.00  0.00    +0.000 A 
ATOM     33  C   LIG    1       22.943 -20.584   7.262  0.00  0.00    +0.002 A 
ATOM     34  C   LIG    1       24.209 -21.106   7.520  0.00  0.00    +0.024 A 
ATOM     35  C   LIG    1       28.606 -21.442   7.896  0.00  0.00    +0.043 A 
ATOM     36  C   LIG    1       25.226 -21.061   6.552  0.00  0.00    +0.037 A 
ENDBRANCH  20  21
ENDBRANCH  19  20
ENDBRANCH   1  19
TORSDOF 6
ENDMDL
MODEL 5
REMARK VINA RESULT:      -8.7      3.413      9.650
REMARK  Name = *****
REMARK                            x       y       z     vdW  Elec       q    Type
REMARK                         _______ _______ _______ _____ _____    ______ ____
ROOT
ATOM      1  C   LIG    1       24.728 -27.586   4.996  0.00  0.00    +0.086 C 
ENDROOT
BRANCH   1   5
ATOM      2  C   LIG    1       24.883 -23.490   6.423  0.00  0.00    +0.101 C 
ATOM      3  C   LIG    1       25.460 -24.640   7.279  0.00  0.00    +0.047 C 
ATOM      4  C   LIG    1       25.023 -26.022   6.787  0.00  0.00    +0.086 C 
ATOM      5  N   LIG    1       25.305 -26.266   5.366  0.00  0.00    -0.302 NA
ATOM      6  C   LIG    1       24.806 -25.183   4.504  0.00  0.00    +0.086 C 
ATOM      7  C   LIG    1       25.268 -23.790   4.954  0.00  0.00    +0.047 C 
BRANCH   2   8
ATOM      8  N   LIG    1       25.357 -22.108   6.859  0.00  0.00    -0.289 NA
ATOM      9  C   LIG    1       26.557 -21.639   6.132  0.00  0.00    +0.085 C 
ATOM     10  C   LIG    1       26.984 -20.226   6.543  0.00  0.00    +0.015 C 
ATOM     11  C   LIG    1       27.215 -20.123   8.042  0.00  0.00    +0.002 C 
ATOM     12  C   LIG    1       25.998 -20.645   8.789  0.00  0.00    +0.015 C 
ATOM     13  C   LIG    1       25.617 -22.050   8.318  0.00  0.00    +0.085 C 
ENDBRANCH   2   8
BRANCH   2  17
ATOM     14  N   LIG    1       22.649 -22.367   6.156  0.00  0.00    -0.328 N 
ATOM     15  H   LIG    1       23.139 -21.483   6.145  0.00  0.00    +0.145 HD
ATOM     16  H   LIG    1       21.653 -22.360   6.345  0.00  0.00    +0.145 HD
ATOM     17  C   LIG    1       23.306 -23.507   6.532  0.00  0.00    +0.231 C 
ATOM     18  O   LIG    1       22.651 -24.451   6.945  0.00  0.00    -0.274 OA
ENDBRANCH   2  17
ENDBRANCH   1   5
BRANCH   1  19
ATOM     19  C   LIG    1       24.325 -28.432   6.206  0.00  0.00    +0.035 C 
BRANCH  19  20
ATOM     20  C   LIG    1       25.527 -28.999   6.984  0.00  0.00    +0.112 C 
BRANCH  20  21
ATOM     21  N   LIG    1       25.309 -30.414   7.404  0.00  0.00    -0.299 N 
ATOM     22  C   LIG    1       25.918 -31.429   6.642  0.00  0.00    +0.038 A 
ATOM     23  C   LIG    1       26.804 -32.387   7.175  0.00  0.00    -0.026 A 
ATOM     24  C   LIG    1       27.345 -33.373   6.317  0.00  0.00    +0.007 A 
ATOM     25  C   LIG    1       27.016 -33.427   4.964  0.00  0.00    +0.020 A 
ATOM     26  C   LIG    1       26.128 -32.498   4.448  0.00  0.00    +0.043 A 
ATOM     27 CL   LIG    1       25.668 -32.580   2.793  0.00  0.00    -0.084 Cl
ATOM     28  C   LIG    1       27.198 -32.504   8.634  0.00  0.00    +0.041 C 
ATOM     29  C   LIG    1       27.060 -31.294   9.559  0.00  0.00    +0.041 C 
ATOM     30  C   LIG    1       25.626 -30.902   9.791  0.00  0.00    -0.026 A 
ATOM     31  C   LIG    1       25.100 -30.882  11.092  0.00  0.00    +0.005 A 
ATOM     32  C   LIG    1       23.756 -30.576  11.315  0.00  0.00    +0.000 A 
ATOM     33  C   LIG    1       22.922 -30.308  10.236  0.00  0.00    +0.002 A 
ATOM     34  C   LIG    1       23.448 -30.285   8.946  0.00  0.00    +0.024 A 
ATOM     35  C   LIG    1       25.588 -31.512   5.272  0.00  0.00    +0.043 A 
ATOM     36  C   LIG    1       24.809 -30.544   8.712  0.00  0.00    +0.037 A 
ENDBRANCH  20  21
ENDBRANCH  19  20
ENDBRANCH   1  19
TORSDOF 6
ENDMDL
MODEL 6
REMARK VINA RESULT:      -8.7      3.160      9.162
REMARK  Name = *****
REMARK                            x       y       z     vdW  Elec       q    Type
REMARK                         _______ _______ _______ _____ _____    ______ ____
ROOT
ATOM      1  C   LIG    1       25.637 -27.723   6.290  0.00  0.00    +0.086 C 
ENDROOT
BRANCH   1   5
ATOM      2  C   LIG    1       24.836 -23.468   5.977  0.00  0.00    +0.101 C 
ATOM      3  C   LIG    1       25.968 -23.987   6.894  0.00  0.00    +0.047 C 
ATOM      4  C   LIG    1       25.887 -25.496   7.139  0.00  0.00    +0.086 C 
ATOM      5  N   LIG    1       25.831 -26.298   5.909  0.00  0.00    -0.302 NA
ATOM      6  C   LIG    1       24.791 -25.826   4.981  0.00  0.00    +0.086 C 
ATOM      7  C   LIG    1       24.880 -24.322   4.688  0.00  0.00    +0.047 C 
BRANCH   2   8
ATOM      8  N   LIG    1       24.935 -21.978   5.671  0.00  0.00    -0.289 NA
ATOM      9  C   LIG    1       24.512 -21.629   4.297  0.00  0.00    +0.085 C 
ATOM     10  C   LIG    1       24.564 -20.121   4.027  0.00  0.00    +0.015 C 
ATOM     11  C   LIG    1       25.945 -19.549   4.303  0.00  0.00    +0.002 C 
ATOM     12  C   LIG    1       26.398 -19.944   5.700  0.00  0.00    +0.015 C 
ATOM     13  C   LIG    1       26.304 -21.457   5.907  0.00  0.00    +0.085 C 
ENDBRANCH   2   8
BRANCH   2  17
ATOM     14  N   LIG    1       22.865 -22.639   7.300  0.00  0.00    -0.328 N 
ATOM     15  H   LIG    1       23.433 -21.850   7.577  0.00  0.00    +0.145 HD
ATOM     16  H   LIG    1       22.037 -22.846   7.845  0.00  0.00    +0.145 HD
ATOM     17  C   LIG    1       23.445 -23.716   6.686  0.00  0.00    +0.231 C 
ATOM     18  O   LIG    1       22.877 -24.795   6.737  0.00  0.00    -0.274 OA
ENDBRANCH   2  17
ENDBRANCH   1   5
BRANCH   1  19
ATOM     19  C   LIG    1       25.373 -27.920   7.785  0.00  0.00    +0.035 C 
BRANCH  19  20
ATOM     20  C   LIG    1       26.573 -28.513   8.545  0.00  0.00    +0.112 C 
BRANCH  20  21
ATOM     21  N   LIG    1       26.149 -29.453   9.623  0.00  0.00    -0.299 N 
ATOM     22  C   LIG    1       25.661 -28.902  10.823  0.00  0.00    +0.038 A 
ATOM     23  C   LIG    1       24.389 -29.189  11.359  0.00  0.00    -0.026 A 
ATOM     24  C   LIG    1       24.009 -28.589  12.582  0.00  0.00    +0.007 A 
ATOM     25  C   LIG    1       24.863 -27.733  13.275  0.00  0.00    +0.020 A 
ATOM     26  C   LIG    1       26.121 -27.471  12.757  0.00  0.00    +0.043 A 
ATOM     27 CL   LIG    1       27.210 -26.459  13.623  0.00  0.00    -0.084 Cl
ATOM     28  C   LIG    1       23.382 -30.153  10.764  0.00  0.00    +0.041 C 
ATOM     29  C   LIG    1       23.459 -30.514   9.280  0.00  0.00    +0.041 C 
ATOM     30  C   LIG    1       24.690 -31.307   8.939  0.00  0.00    -0.026 A 
ATOM     31  C   LIG    1       24.573 -32.584   8.367  0.00  0.00    +0.005 A 
ATOM     32  C   LIG    1       25.707 -33.354   8.099  0.00  0.00    +0.000 A 
ATOM     33  C   LIG    1       26.966 -32.862   8.421  0.00  0.00    +0.002 A 
ATOM     34  C   LIG    1       27.091 -31.578   8.949  0.00  0.00    +0.024 A 
ATOM     35  C   LIG    1       26.515 -28.044  11.549  0.00  0.00    +0.043 A 
ATOM     36  C   LIG    1       25.962 -30.774   9.179  0.00  0.00    +0.037 A 
ENDBRANCH  20  21
ENDBRANCH  19  20
ENDBRANCH   1  19
TORSDOF 6
ENDMDL
MODEL 7
REMARK VINA RESULT:      -8.6      1.235      1.698
REMARK  Name = *****
REMARK                            x       y       z     vdW  Elec       q    Type
REMARK                         _______ _______ _______ _____ _____    ______ ____
ROOT
ATOM      1  C   LIG    1       24.806 -25.016   6.507  0.00  0.00    +0.086 C 
ENDROOT
BRANCH   1   5
ATOM      2  C   LIG    1       25.600 -29.267   6.143  0.00  0.00    +0.101 C 
ATOM      3  C   LIG    1       25.741 -28.336   4.917  0.00  0.00    +0.047 C 
ATOM      4  C   LIG    1       25.107 -26.961   5.141  0.00  0.00    +0.086 C 
ATOM      5  N   LIG    1       25.583 -26.274   6.350  0.00  0.00    -0.302 NA
ATOM      6  C   LIG    1       25.503 -27.128   7.546  0.00  0.00    +0.086 C 
ATOM      7  C   LIG    1       26.171 -28.496   7.357  0.00  0.00    +0.047 C 
BRANCH   2   8
ATOM      8  N   LIG    1       26.280 -30.619   5.963  0.00  0.00    -0.289 NA
ATOM      9  C   LIG    1       25.684 -31.441   4.886  0.00  0.00    +0.085 C 
ATOM     10  C   LIG    1       26.417 -32.770   4.680  0.00  0.00    +0.015 C 
ATOM     11  C   LIG    1       26.486 -33.578   5.967  0.00  0.00    +0.002 C 
ATOM     12  C   LIG    1       27.059 -32.720   7.085  0.00  0.00    +0.015 C 
ATOM     13  C   LIG    1       26.292 -31.403   7.222  0.00  0.00    +0.085 C 
ENDBRANCH   2   8
BRANCH   2  17
ATOM     14  N   LIG    1       23.213 -29.341   5.357  0.00  0.00    -0.328 N 
ATOM     15  H   LIG    1       23.488 -28.744   4.590  0.00  0.00    +0.145 HD
ATOM     16  H   LIG    1       22.227 -29.407   5.582  0.00  0.00    +0.145 HD
ATOM     17  C   LIG    1       24.066 -29.539   6.410  0.00  0.00    +0.231 C 
ATOM     18  O   LIG    1       23.600 -29.886   7.483  0.00  0.00    -0.274 OA
ENDBRANCH   2  17
ENDBRANCH   1   5
BRANCH   1  19
ATOM     19  C   LIG    1       25.512 -23.789   5.926  0.00  0.00    +0.035 C 
BRANCH  19  20
ATOM     20  C   LIG    1       26.658 -23.265   6.811  0.00  0.00    +0.112 C 
BRANCH  20  21
ATOM     21  N   LIG    1       26.630 -21.780   6.947  0.00  0.00    -0.299 N 
ATOM     22  C   LIG    1       27.860 -21.095   6.950  0.00  0.00    +0.038 A 
ATOM     23  C   LIG    1       28.191 -20.072   6.039  0.00  0.00    -0.026 A 
ATOM     24  C   LIG    1       29.453 -19.441   6.145  0.00  0.00    +0.007 A 
ATOM     25  C   LIG    1       30.370 -19.798   7.133  0.00  0.00    +0.020 A 
ATOM     26  C   LIG    1       30.032 -20.788   8.039  0.00  0.00    +0.043 A 
ATOM     27 CL   LIG    1       31.128 -21.206   9.298  0.00  0.00    -0.084 Cl
ATOM     28  C   LIG    1       27.276 -19.523   4.962  0.00  0.00    +0.041 C 
ATOM     29  C   LIG    1       26.107 -20.369   4.454  0.00  0.00    +0.041 C 
ATOM     30  C   LIG    1       25.048 -20.582   5.499  0.00  0.00    -0.026 A 
ATOM     31  C   LIG    1       23.729 -20.159   5.267  0.00  0.00    +0.005 A 
ATOM     32  C   LIG    1       22.750 -20.300   6.251  0.00  0.00    +0.000 A 
ATOM     33  C   LIG    1       23.085 -20.845   7.485  0.00  0.00    +0.002 A 
ATOM     34  C   LIG    1       24.381 -21.305   7.706  0.00  0.00    +0.024 A 
ATOM     35  C   LIG    1       28.798 -21.430   7.950  0.00  0.00    +0.043 A 
ATOM     36  C   LIG    1       25.365 -21.214   6.708  0.00  0.00    +0.037 A 
ENDBRANCH  20  21
ENDBRANCH  19  20
ENDBRANCH   1  19
TORSDOF 6
ENDMDL
MODEL 8
REMARK VINA RESULT:      -8.5      3.192      9.894
REMARK  Name = *****
REMARK                            x       y       z     vdW  Elec       q    Type
REMARK                         _______ _______ _______ _____ _____    ______ ____
ROOT
ATOM      1  C   LIG    1       24.697 -28.216   5.382  0.00  0.00    +0.086 C 
ENDROOT
BRANCH   1   5
ATOM      2  C   LIG    1       24.747 -23.898   5.828  0.00  0.00    +0.101 C 
ATOM      3  C   LIG    1       25.017 -24.547   4.450  0.00  0.00    +0.047 C 
ATOM      4  C   LIG    1       25.292 -26.050   4.547  0.00  0.00    +0.086 C 
ATOM      5  N   LIG    1       24.250 -26.802   5.259  0.00  0.00    -0.302 NA
ATOM      6  C   LIG    1       23.927 -26.208   6.566  0.00  0.00    +0.086 C 
ATOM      7  C   LIG    1       23.606 -24.710   6.486  0.00  0.00    +0.047 C 
BRANCH   2   8
ATOM      8  N   LIG    1       24.410 -22.414   5.746  0.00  0.00    -0.289 NA
ATOM      9  C   LIG    1       23.203 -22.040   6.515  0.00  0.00    +0.085 C 
ATOM     10  C   LIG    1       22.914 -20.536   6.469  0.00  0.00    +0.015 C 
ATOM     11  C   LIG    1       22.792 -20.032   5.040  0.00  0.00    +0.002 C 
ATOM     12  C   LIG    1       24.013 -20.453   4.237  0.00  0.00    +0.015 C 
ATOM     13  C   LIG    1       24.254 -21.961   4.342  0.00  0.00    +0.085 C 
ENDBRANCH   2   8
BRANCH   2  17
ATOM     14  N   LIG    1       26.631 -22.884   7.147  0.00  0.00    -0.328 N 
ATOM     15  H   LIG    1       26.469 -22.023   6.643  0.00  0.00    +0.145 HD
ATOM     16  H   LIG    1       27.520 -22.999   7.621  0.00  0.00    +0.145 HD
ATOM     17  C   LIG    1       26.038 -24.044   6.727  0.00  0.00    +0.231 C 
ATOM     18  O   LIG    1       26.543 -25.108   7.047  0.00  0.00    -0.274 OA
ENDBRANCH   2  17
ENDBRANCH   1   5
BRANCH   1  19
ATOM     19  C   LIG    1       24.328 -28.854   6.723  0.00  0.00    +0.035 C 
BRANCH  19  20
ATOM     20  C   LIG    1       25.542 -29.411   7.490  0.00  0.00    +0.112 C 
BRANCH  20  21
ATOM     21  N   LIG    1       25.259 -30.741   8.103  0.00  0.00    -0.299 N 
ATOM     22  C   LIG    1       24.255 -30.814   9.087  0.00  0.00    +0.038 A 
ATOM     23  C   LIG    1       23.130 -31.657   9.000  0.00  0.00    -0.026 A 
ATOM     24  C   LIG    1       22.191 -31.660  10.058  0.00  0.00    +0.007 A 
ATOM     25  C   LIG    1       22.357 -30.859  11.187  0.00  0.00    +0.020 A 
ATOM     26  C   LIG    1       23.476 -30.048  11.279  0.00  0.00    +0.043 A 
ATOM     27 CL   LIG    1       23.727 -29.093  12.688  0.00  0.00    -0.084 Cl
ATOM     28  C   LIG    1       22.849 -32.635   7.877  0.00  0.00    +0.041 C 
ATOM     29  C   LIG    1       23.504 -32.432   6.509  0.00  0.00    +0.041 C 
ATOM     30  C   LIG    1       24.995 -32.623   6.546  0.00  0.00    -0.026 A 
ATOM     31  C   LIG    1       25.604 -33.599   5.740  0.00  0.00    +0.005 A 
ATOM     32  C   LIG    1       26.979 -33.824   5.808  0.00  0.00    +0.000 A 
ATOM     33  C   LIG    1       27.756 -33.091   6.697  0.00  0.00    +0.002 A 
ATOM     34  C   LIG    1       27.164 -32.092   7.468  0.00  0.00    +0.024 A 
ATOM     35  C   LIG    1       24.411 -30.023  10.246  0.00  0.00    +0.043 A 
ATOM     36  C   LIG    1       25.789 -31.822   7.375  0.00  0.00    +0.037 A 
ENDBRANCH  20  21
ENDBRANCH  19  20
ENDBRANCH   1  19
TORSDOF 6
ENDMDL
MODEL 9
REMARK VINA RESULT:      -8.4      4.036      9.260
REMARK  Name = *****
REMARK                            x       y       z     vdW  Elec       q    Type
REMARK                         _______ _______ _______ _____ _____    ______ ____
ROOT
ATOM      1  C   LIG    1       25.254 -30.493   7.524  0.00  0.00    +0.086 C 
ENDROOT
BRANCH   1   5
ATOM      2  C   LIG    1       25.325 -26.311   6.364  0.00  0.00    +0.101 C 
ATOM      3  C   LIG    1       24.063 -27.170   6.121  0.00  0.00    +0.047 C 
ATOM      4  C   LIG    1       24.328 -28.670   6.275  0.00  0.00    +0.086 C 
ATOM      5  N   LIG    1       24.946 -29.038   7.557  0.00  0.00    -0.302 NA
ATOM      6  C   LIG    1       26.136 -28.227   7.857  0.00  0.00    +0.086 C 
ATOM      7  C   LIG    1       25.881 -26.717   7.750  0.00  0.00    +0.047 C 
BRANCH   2   8
ATOM      8  N   LIG    1       25.067 -24.812   6.277  0.00  0.00    -0.289 NA
ATOM      9  C   LIG    1       25.996 -24.004   7.098  0.00  0.00    +0.085 C 
ATOM     10  C   LIG    1       25.759 -22.497   6.952  0.00  0.00    +0.015 C 
ATOM     11  C   LIG    1       24.322 -22.121   7.278  0.00  0.00    +0.002 C 
ATOM     12  C   LIG    1       23.366 -22.981   6.465  0.00  0.00    +0.015 C 
ATOM     13  C   LIG    1       23.671 -24.470   6.643  0.00  0.00    +0.085 C 
ENDBRANCH   2   8
BRANCH   2  17
ATOM     14  N   LIG    1       25.951 -26.957   4.017  0.00  0.00    -0.328 N 
ATOM     15  H   LIG    1       24.994 -27.253   3.885  0.00  0.00    +0.145 HD
ATOM     16  H   LIG    1       26.651 -27.298   3.368  0.00  0.00    +0.145 HD
ATOM     17  C   LIG    1       26.411 -26.671   5.274  0.00  0.00    +0.231 C 
ATOM     18  O   LIG    1       27.612 -26.730   5.485  0.00  0.00    -0.274 OA
ENDBRANCH   2  17
ENDBRANCH   1   5
BRANCH   1  19
ATOM     19  C   LIG    1       24.465 -31.303   8.556  0.00  0.00    +0.035 C 
BRANCH  19  20
ATOM     20  C   LIG    1       23.304 -30.519   9.193  0.00  0.00    +0.112 C 
BRANCH  20  21
ATOM     21  N   LIG    1       23.299 -30.628  10.680  0.00  0.00    -0.299 N 
ATOM     22  C   LIG    1       23.974 -29.636  11.417  0.00  0.00    +0.038 A 
ATOM     23  C   LIG    1       23.363 -28.838  12.405  0.00  0.00    -0.026 A 
ATOM     24  C   LIG    1       24.144 -27.881  13.093  0.00  0.00    +0.007 A 
ATOM     25  C   LIG    1       25.502 -27.715  12.827  0.00  0.00    +0.020 A 
ATOM     26  C   LIG    1       26.104 -28.515  11.871  0.00  0.00    +0.043 A 
ATOM     27 CL   LIG    1       27.791 -28.363  11.566  0.00  0.00    -0.084 Cl
ATOM     28  C   LIG    1       21.921 -28.951  12.857  0.00  0.00    +0.041 C 
ATOM     29  C   LIG    1       20.883 -29.596  11.937  0.00  0.00    +0.041 C 
ATOM     30  C   LIG    1       21.123 -31.067  11.733  0.00  0.00    -0.026 A 
ATOM     31  C   LIG    1       20.136 -32.001  12.087  0.00  0.00    +0.005 A 
ATOM     32  C   LIG    1       20.369 -33.371  11.956  0.00  0.00    +0.000 A 
ATOM     33  C   LIG    1       21.599 -33.820  11.490  0.00  0.00    +0.002 A 
ATOM     34  C   LIG    1       22.567 -32.897  11.097  0.00  0.00    +0.024 A 
ATOM     35  C   LIG    1       25.354 -29.460  11.174  0.00  0.00    +0.043 A 
ATOM     36  C   LIG    1       22.328 -31.514  11.179  0.00  0.00    +0.037 A 
ENDBRANCH  20  21
ENDBRANCH  19  20
ENDBRANCH   1  19
TORSDOF 6
ENDMDL
