MODEL 1
REMARK VINA RESULT:      -7.0      0.000      0.000
REMARK  Name = *****
REMARK                            x       y       z     vdW  Elec       q    Type
REMARK                         _______ _______ _______ _____ _____    ______ ____
ROOT
ATOM      1  C   LIG    1       23.766 -21.950   6.474  0.00  0.00    +0.132 C 
ATOM      2  C   LIG    1       25.297 -22.258   6.586  0.00  0.00    +0.014 C 
ATOM      3  C   LIG    1       25.955 -21.107   5.746  0.00  0.00    +0.002 C 
ATOM      4  C   LIG    1       26.601 -19.915   6.508  0.00  0.00    -0.003 C 
ATOM      5  C   LIG    1       27.290 -20.325   7.831  0.00  0.00    -0.000 C 
ATOM      6  C   LIG    1       26.245 -21.032   8.694  0.00  0.00    +0.005 C 
ATOM      7  C   LIG    1       28.592 -21.126   7.556  0.00  0.00    +0.019 C 
ATOM      8  C   LIG    1       29.502 -20.254   6.707  0.00  0.00    -0.063 C 
ATOM      9  C   LIG    1       30.693 -19.790   7.115  0.00  0.00    +0.045 C 
ATOM     10  C   LIG    1       31.158 -20.016   8.505  0.00  0.00    +0.156 C 
ATOM     11  C   LIG    1       30.175 -20.606   9.488  0.00  0.00    +0.079 C 
ATOM     12  O   LIG    1       32.275 -19.632   8.840  0.00  0.00    -0.293 OA
ATOM     13  C   LIG    1       28.917 -19.866   5.375  0.00  0.00    +0.031 C 
ATOM     14  C   LIG    1       29.318 -21.658   8.804  0.00  0.00    +0.016 C 
ATOM     15  C   LIG    1       27.585 -19.140   5.596  0.00  0.00    +0.008 C 
ATOM     16  C   LIG    1       24.851 -20.582   4.791  0.00  0.00    +0.008 C 
ATOM     17  C   LIG    1       25.766 -22.333   8.073  0.00  0.00    +0.011 C 
ATOM     18  C   LIG    1       23.578 -21.372   5.072  0.00  0.00    +0.049 C 
ENDROOT
BRANCH   1  20
ATOM     19  C   LIG    1       22.193 -24.073   6.875  0.00  0.00    +0.007 C 
ATOM     20  C   LIG    1       22.898 -23.118   6.695  0.00  0.00    -0.070 C 
ENDBRANCH   1  20
BRANCH   1  21
ATOM     21  O   LIG    1       23.378 -20.953   7.422  0.00  0.00    -0.376 OA
ATOM     22  H   LIG    1       23.465 -20.081   7.009  0.00  0.00    +0.211 HD
ENDBRANCH   1  21
BRANCH   2  23
ATOM     23  C   LIG    1       25.717 -23.650   5.967  0.00  0.00    +0.007 C 
ATOM     24  C   LIG    1       25.900 -24.856   6.876  0.00  0.00    +0.004 C 
ENDBRANCH   2  23
TORSDOF 3
ENDMDL
MODEL 2
REMARK VINA RESULT:      -5.6      7.857      9.925
REMARK  Name = *****
REMARK                            x       y       z     vdW  Elec       q    Type
REMARK                         _______ _______ _______ _____ _____    ______ ____
ROOT
ATOM      1  C   LIG    1       25.401 -31.450  10.991  0.00  0.00    +0.132 C 
ATOM      2  C   LIG    1       25.498 -29.887  10.997  0.00  0.00    +0.014 C 
ATOM      3  C   LIG    1       24.260 -29.456  11.859  0.00  0.00    +0.002 C 
ATOM      4  C   LIG    1       24.502 -29.025  13.334  0.00  0.00    -0.003 C 
ATOM      5  C   LIG    1       25.828 -28.258  13.546  0.00  0.00    -0.000 C 
ATOM      6  C   LIG    1       26.961 -29.150  13.038  0.00  0.00    +0.005 C 
ATOM      7  C   LIG    1       25.756 -26.837  12.923  0.00  0.00    +0.019 C 
ATOM      8  C   LIG    1       24.589 -26.108  13.566  0.00  0.00    -0.063 C 
ATOM      9  C   LIG    1       24.716 -25.014  14.334  0.00  0.00    +0.045 C 
ATOM     10  C   LIG    1       26.057 -24.501  14.703  0.00  0.00    +0.156 C 
ATOM     11  C   LIG    1       27.256 -25.350  14.355  0.00  0.00    +0.079 C 
ATOM     12  O   LIG    1       26.150 -23.466  15.359  0.00  0.00    -0.293 OA
ATOM     13  C   LIG    1       23.253 -26.768  13.348  0.00  0.00    +0.031 C 
ATOM     14  C   LIG    1       27.054 -26.013  13.003  0.00  0.00    +0.016 C 
ATOM     15  C   LIG    1       23.304 -28.206  13.878  0.00  0.00    +0.008 C 
ATOM     16  C   LIG    1       23.267 -30.647  11.818  0.00  0.00    +0.008 C 
ATOM     17  C   LIG    1       26.877 -29.395  11.541  0.00  0.00    +0.011 C 
ATOM     18  C   LIG    1       23.903 -31.755  10.986  0.00  0.00    +0.049 C 
ENDROOT
BRANCH   1  20
ATOM     19  C   LIG    1       26.642 -32.613   8.929  0.00  0.00    +0.007 C 
ATOM     20  C   LIG    1       26.085 -32.092   9.856  0.00  0.00    -0.070 C 
ENDBRANCH   1  20
BRANCH   1  21
ATOM     21  O   LIG    1       25.963 -31.999  12.185  0.00  0.00    -0.376 OA
ATOM     22  H   LIG    1       26.391 -32.841  11.969  0.00  0.00    +0.211 HD
ENDBRANCH   1  21
BRANCH   2  23
ATOM     23  C   LIG    1       25.380 -29.232   9.564  0.00  0.00    +0.007 C 
ATOM     24  C   LIG    1       26.501 -28.342   9.046  0.00  0.00    +0.004 C 
ENDBRANCH   2  23
TORSDOF 3
ENDMDL
MODEL 3
REMARK VINA RESULT:      -5.5      7.667     10.113
REMARK  Name = *****
REMARK                            x       y       z     vdW  Elec       q    Type
REMARK                         _______ _______ _______ _____ _____    ______ ____
ROOT
ATOM      1  C   LIG    1       25.088 -31.726   7.571  0.00  0.00    +0.132 C 
ATOM      2  C   LIG    1       25.083 -30.358   8.333  0.00  0.00    +0.014 C 
ATOM      3  C   LIG    1       24.047 -30.595   9.486  0.00  0.00    +0.002 C 
ATOM      4  C   LIG    1       24.586 -30.874  10.918  0.00  0.00    -0.003 C 
ATOM      5  C   LIG    1       25.874 -30.087  11.259  0.00  0.00    -0.000 C 
ATOM      6  C   LIG    1       26.918 -30.433  10.197  0.00  0.00    +0.005 C 
ATOM      7  C   LIG    1       25.572 -28.575  11.441  0.00  0.00    +0.019 C 
ATOM      8  C   LIG    1       24.535 -28.440  12.544  0.00  0.00    -0.063 C 
ATOM      9  C   LIG    1       24.762 -27.831  13.718  0.00  0.00    +0.045 C 
ATOM     10  C   LIG    1       26.115 -27.335  14.065  0.00  0.00    +0.156 C 
ATOM     11  C   LIG    1       27.256 -27.708  13.150  0.00  0.00    +0.079 C 
ATOM     12  O   LIG    1       26.286 -26.731  15.121  0.00  0.00    -0.293 OA
ATOM     13  C   LIG    1       23.230 -29.132  12.252  0.00  0.00    +0.031 C 
ATOM     14  C   LIG    1       26.798 -27.681  11.702  0.00  0.00    +0.016 C 
ATOM     15  C   LIG    1       23.492 -30.619  11.985  0.00  0.00    +0.008 C 
ATOM     16  C   LIG    1       23.148 -31.774   9.027  0.00  0.00    +0.008 C 
ATOM     17  C   LIG    1       26.514 -29.957   8.812  0.00  0.00    +0.011 C 
ATOM     18  C   LIG    1       23.651 -32.237   7.664  0.00  0.00    +0.049 C 
ENDROOT
BRANCH   1  20
ATOM     19  C   LIG    1       25.902 -31.562   5.030  0.00  0.00    +0.007 C 
ATOM     20  C   LIG    1       25.538 -31.635   6.172  0.00  0.00    -0.070 C 
ENDBRANCH   1  20
BRANCH   1  21
ATOM     21  O   LIG    1       25.940 -32.669   8.226  0.00  0.00    -0.376 OA
ATOM     22  H   LIG    1       26.093 -33.416   7.629  0.00  0.00    +0.211 HD
ENDBRANCH   1  21
BRANCH   2  23
ATOM     23  C   LIG    1       24.602 -29.136   7.453  0.00  0.00    +0.007 C 
ATOM     24  C   LIG    1       25.525 -27.943   7.250  0.00  0.00    +0.004 C 
ENDBRANCH   2  23
TORSDOF 3
ENDMDL
MODEL 4
REMARK VINA RESULT:      -5.5      8.204     10.641
REMARK  Name = *****
REMARK                            x       y       z     vdW  Elec       q    Type
REMARK                         _______ _______ _______ _____ _____    ______ ____
ROOT
ATOM      1  C   LIG    1       24.680 -32.932   6.418  0.00  0.00    +0.132 C 
ATOM      2  C   LIG    1       24.721 -31.511   7.074  0.00  0.00    +0.014 C 
ATOM      3  C   LIG    1       23.829 -31.682   8.353  0.00  0.00    +0.002 C 
ATOM      4  C   LIG    1       24.535 -31.841   9.730  0.00  0.00    -0.003 C 
ATOM      5  C   LIG    1       25.830 -31.004   9.862  0.00  0.00    -0.000 C 
ATOM      6  C   LIG    1       26.757 -31.407   8.715  0.00  0.00    +0.005 C 
ATOM      7  C   LIG    1       25.506 -29.489   9.967  0.00  0.00    +0.019 C 
ATOM      8  C   LIG    1       24.597 -29.292  11.169  0.00  0.00    -0.063 C 
ATOM      9  C   LIG    1       24.937 -28.592  12.262  0.00  0.00    +0.045 C 
ATOM     10  C   LIG    1       26.306 -28.043  12.415  0.00  0.00    +0.156 C 
ATOM     11  C   LIG    1       27.347 -28.461  11.403  0.00  0.00    +0.079 C 
ATOM     12  O   LIG    1       26.578 -27.358  13.396  0.00  0.00    -0.293 OA
ATOM     13  C   LIG    1       23.288 -30.032  11.081  0.00  0.00    +0.031 C 
ATOM     14  C   LIG    1       26.727 -28.553  10.020  0.00  0.00    +0.016 C 
ATOM     15  C   LIG    1       23.562 -31.529  10.894  0.00  0.00    +0.008 C 
ATOM     16  C   LIG    1       22.919 -32.910   8.087  0.00  0.00    +0.008 C 
ATOM     17  C   LIG    1       26.184 -31.045   7.355  0.00  0.00    +0.011 C 
ATOM     18  C   LIG    1       23.278 -33.465   6.712  0.00  0.00    +0.049 C 
ENDROOT
BRANCH   1  20
ATOM     19  C   LIG    1       25.200 -32.945   3.796  0.00  0.00    +0.007 C 
ATOM     20  C   LIG    1       24.965 -32.938   4.974  0.00  0.00    -0.070 C 
ENDBRANCH   1  20
BRANCH   1  21
ATOM     21  O   LIG    1       25.627 -33.805   7.037  0.00  0.00    -0.376 OA
ATOM     22  H   LIG    1       25.965 -33.378   7.839  0.00  0.00    +0.211 HD
ENDBRANCH   1  21
BRANCH   2  23
ATOM     23  C   LIG    1       24.108 -30.370   6.169  0.00  0.00    +0.007 C 
ATOM     24  C   LIG    1       24.386 -28.911   6.502  0.00  0.00    +0.004 C 
ENDBRANCH   2  23
TORSDOF 3
ENDMDL
MODEL 5
REMARK VINA RESULT:      -5.4      7.748     10.127
REMARK  Name = *****
REMARK                            x       y       z     vdW  Elec       q    Type
REMARK                         _______ _______ _______ _____ _____    ______ ____
ROOT
ATOM      1  C   LIG    1       25.677 -31.833   9.231  0.00  0.00    +0.132 C 
ATOM      2  C   LIG    1       25.656 -30.321   9.637  0.00  0.00    +0.014 C 
ATOM      3  C   LIG    1       24.391 -30.216  10.558  0.00  0.00    +0.002 C 
ATOM      4  C   LIG    1       24.601 -30.159  12.098  0.00  0.00    -0.003 C 
ATOM      5  C   LIG    1       25.866 -29.376  12.522  0.00  0.00    -0.000 C 
ATOM      6  C   LIG    1       27.063 -30.023  11.824  0.00  0.00    +0.005 C 
ATOM      7  C   LIG    1       25.686 -27.853  12.280  0.00  0.00    +0.019 C 
ATOM      8  C   LIG    1       24.469 -27.400  13.067  0.00  0.00    -0.063 C 
ATOM      9  C   LIG    1       24.514 -26.532  14.089  0.00  0.00    +0.045 C 
ATOM     10  C   LIG    1       25.813 -26.032  14.601  0.00  0.00    +0.156 C 
ATOM     11  C   LIG    1       27.072 -26.674  14.069  0.00  0.00    +0.079 C 
ATOM     12  O   LIG    1       25.828 -25.196  15.500  0.00  0.00    -0.293 OA
ATOM     13  C   LIG    1       23.186 -28.079  12.664  0.00  0.00    +0.031 C 
ATOM     14  C   LIG    1       26.918 -26.983  12.590  0.00  0.00    +0.016 C 
ATOM     15  C   LIG    1       23.346 -29.596  12.811  0.00  0.00    +0.008 C 
ATOM     16  C   LIG    1       23.490 -31.426  10.197  0.00  0.00    +0.008 C 
ATOM     17  C   LIG    1       26.994 -29.884  10.313  0.00  0.00    +0.011 C 
ATOM     18  C   LIG    1       24.207 -32.236   9.122  0.00  0.00    +0.049 C 
ENDROOT
BRANCH   1  20
ATOM     19  C   LIG    1       27.002 -32.341   6.966  0.00  0.00    +0.007 C 
ATOM     20  C   LIG    1       26.405 -32.112   7.983  0.00  0.00    -0.070 C 
ENDBRANCH   1  20
BRANCH   1  21
ATOM     21  O   LIG    1       26.281 -32.626  10.256  0.00  0.00    -0.376 OA
ATOM     22  H   LIG    1       27.049 -32.149  10.606  0.00  0.00    +0.211 HD
ENDBRANCH   1  21
BRANCH   2  23
ATOM     23  C   LIG    1       25.487 -29.333   8.416  0.00  0.00    +0.007 C 
ATOM     24  C   LIG    1       26.265 -28.025   8.390  0.00  0.00    +0.004 C 
ENDBRANCH   2  23
TORSDOF 3
ENDMDL
MODEL 6
REMARK VINA RESULT:      -5.3      8.835     11.510
REMARK  Name = *****
REMARK                            x       y       z     vdW  Elec       q    Type
REMARK                         _______ _______ _______ _____ _____    ______ ____
ROOT
ATOM      1  C   LIG    1       23.792 -30.298  11.867  0.00  0.00    +0.132 C 
ATOM      2  C   LIG    1       24.778 -30.179  10.657  0.00  0.00    +0.014 C 
ATOM      3  C   LIG    1       25.524 -31.560  10.667  0.00  0.00    +0.002 C 
ATOM      4  C   LIG    1       25.096 -32.638   9.630  0.00  0.00    -0.003 C 
ATOM      5  C   LIG    1       24.690 -32.050   8.258  0.00  0.00    -0.000 C 
ATOM      6  C   LIG    1       23.567 -31.043   8.504  0.00  0.00    +0.005 C 
ATOM      7  C   LIG    1       25.929 -31.506   7.495  0.00  0.00    +0.019 C 
ATOM      8  C   LIG    1       26.913 -32.652   7.334  0.00  0.00    -0.063 C 
ATOM      9  C   LIG    1       27.275 -33.172   6.151  0.00  0.00    +0.045 C 
ATOM     10  C   LIG    1       26.629 -32.719   4.896  0.00  0.00    +0.156 C 
ATOM     11  C   LIG    1       25.431 -31.807   5.011  0.00  0.00    +0.079 C 
ATOM     12  O   LIG    1       27.015 -33.168   3.820  0.00  0.00    -0.293 OA
ATOM     13  C   LIG    1       27.400 -33.235   8.635  0.00  0.00    +0.031 C 
ATOM     14  C   LIG    1       25.630 -30.821   6.149  0.00  0.00    +0.016 C 
ATOM     15  C   LIG    1       26.199 -33.713   9.459  0.00  0.00    +0.008 C 
ATOM     16  C   LIG    1       25.369 -32.126  12.103  0.00  0.00    +0.008 C 
ATOM     17  C   LIG    1       24.027 -29.852   9.328  0.00  0.00    +0.011 C 
ATOM     18  C   LIG    1       24.539 -31.132  12.908  0.00  0.00    +0.049 C 
ENDROOT
BRANCH   1  20
ATOM     19  C   LIG    1       23.006 -27.951  12.875  0.00  0.00    +0.007 C 
ATOM     20  C   LIG    1       23.361 -29.005  12.422  0.00  0.00    -0.070 C 
ENDBRANCH   1  20
BRANCH   1  21
ATOM     21  O   LIG    1       22.610 -31.009  11.491  0.00  0.00    -0.376 OA
ATOM     22  H   LIG    1       22.853 -31.921  11.271  0.00  0.00    +0.211 HD
ENDBRANCH   1  21
BRANCH   2  23
ATOM     23  C   LIG    1       25.841 -29.020  10.808  0.00  0.00    +0.007 C 
ATOM     24  C   LIG    1       26.650 -28.575   9.598  0.00  0.00    +0.004 C 
ENDBRANCH   2  23
TORSDOF 3
ENDMDL
MODEL 7
REMARK VINA RESULT:      -5.3      7.116     10.345
REMARK  Name = *****
REMARK                            x       y       z     vdW  Elec       q    Type
REMARK                         _______ _______ _______ _____ _____    ______ ____
ROOT
ATOM      1  C   LIG    1       23.906 -32.544  11.026  0.00  0.00    +0.132 C 
ATOM      2  C   LIG    1       23.661 -31.244  10.187  0.00  0.00    +0.014 C 
ATOM      3  C   LIG    1       24.966 -30.409  10.433  0.00  0.00    +0.002 C 
ATOM      4  C   LIG    1       26.047 -30.382   9.315  0.00  0.00    -0.003 C 
ATOM      5  C   LIG    1       25.458 -30.394   7.884  0.00  0.00    -0.000 C 
ATOM      6  C   LIG    1       24.568 -31.630   7.763  0.00  0.00    +0.005 C 
ATOM      7  C   LIG    1       24.779 -29.038   7.549  0.00  0.00    +0.019 C 
ATOM      8  C   LIG    1       25.824 -27.946   7.707  0.00  0.00    -0.063 C 
ATOM      9  C   LIG    1       26.273 -27.183   6.698  0.00  0.00    +0.045 C 
ATOM     10  C   LIG    1       25.845 -27.445   5.303  0.00  0.00    +0.156 C 
ATOM     11  C   LIG    1       25.052 -28.701   5.035  0.00  0.00    +0.079 C 
ATOM     12  O   LIG    1       26.223 -26.699   4.404  0.00  0.00    -0.293 OA
ATOM     13  C   LIG    1       26.398 -27.837   9.095  0.00  0.00    +0.031 C 
ATOM     14  C   LIG    1       24.085 -28.965   6.177  0.00  0.00    +0.016 C 
ATOM     15  C   LIG    1       27.009 -29.183   9.500  0.00  0.00    +0.008 C 
ATOM     16  C   LIG    1       25.586 -30.950  11.748  0.00  0.00    +0.008 C 
ATOM     17  C   LIG    1       23.365 -31.569   8.689  0.00  0.00    +0.011 C 
ATOM     18  C   LIG    1       24.698 -32.083  12.250  0.00  0.00    +0.049 C 
ENDROOT
BRANCH   1  20
ATOM     19  C   LIG    1       21.670 -33.825  11.733  0.00  0.00    +0.007 C 
ATOM     20  C   LIG    1       22.676 -33.251  11.416  0.00  0.00    -0.070 C 
ENDBRANCH   1  20
BRANCH   1  21
ATOM     21  O   LIG    1       24.712 -33.473  10.298  0.00  0.00    -0.376 OA
ATOM     22  H   LIG    1       25.345 -33.880  10.908  0.00  0.00    +0.211 HD
ENDBRANCH   1  21
BRANCH   2  23
ATOM     23  C   LIG    1       22.413 -30.400  10.664  0.00  0.00    +0.007 C 
ATOM     24  C   LIG    1       22.584 -29.346  11.748  0.00  0.00    +0.004 C 
ENDBRANCH   2  23
TORSDOF 3
ENDMDL
MODEL 8
REMARK VINA RESULT:      -5.0      8.567     11.209
REMARK  Name = *****
REMARK                            x       y       z     vdW  Elec       q    Type
REMARK                         _______ _______ _______ _____ _____    ______ ____
ROOT
ATOM      1  C   LIG    1       25.285 -30.681  12.890  0.00  0.00    +0.132 C 
ATOM      2  C   LIG    1       24.606 -30.930  11.502  0.00  0.00    +0.014 C 
ATOM      3  C   LIG    1       25.061 -29.691  10.654  0.00  0.00    +0.002 C 
ATOM      4  C   LIG    1       26.206 -29.884   9.620  0.00  0.00    -0.003 C 
ATOM      5  C   LIG    1       26.183 -31.264   8.921  0.00  0.00    -0.000 C 
ATOM      6  C   LIG    1       26.238 -32.333  10.013  0.00  0.00    +0.005 C 
ATOM      7  C   LIG    1       24.990 -31.369   7.933  0.00  0.00    +0.019 C 
ATOM      8  C   LIG    1       25.125 -30.242   6.923  0.00  0.00    -0.063 C 
ATOM      9  C   LIG    1       25.334 -30.429   5.611  0.00  0.00    +0.045 C 
ATOM     10  C   LIG    1       25.566 -31.789   5.067  0.00  0.00    +0.156 C 
ATOM     11  C   LIG    1       25.750 -32.917   6.053  0.00  0.00    +0.079 C 
ATOM     12  O   LIG    1       25.699 -31.942   3.856  0.00  0.00    -0.293 OA
ATOM     13  C   LIG    1       25.093 -28.863   7.529  0.00  0.00    +0.031 C 
ATOM     14  C   LIG    1       24.821 -32.733   7.241  0.00  0.00    +0.016 C 
ATOM     15  C   LIG    1       26.209 -28.742   8.574  0.00  0.00    +0.008 C 
ATOM     16  C   LIG    1       25.456 -28.590  11.674  0.00  0.00    +0.008 C 
ATOM     17  C   LIG    1       25.006 -32.315  10.901  0.00  0.00    +0.011 C 
ATOM     18  C   LIG    1       25.270 -29.164  13.074  0.00  0.00    +0.049 C 
ENDROOT
BRANCH   1  20
ATOM     19  C   LIG    1       24.091 -31.922  14.934  0.00  0.00    +0.007 C 
ATOM     20  C   LIG    1       24.627 -31.366  14.015  0.00  0.00    -0.070 C 
ENDBRANCH   1  20
BRANCH   1  21
ATOM     21  O   LIG    1       26.647 -31.115  12.874  0.00  0.00    -0.376 OA
ATOM     22  H   LIG    1       26.797 -31.638  12.072  0.00  0.00    +0.211 HD
ENDBRANCH   1  21
BRANCH   2  23
ATOM     23  C   LIG    1       23.027 -30.963  11.558  0.00  0.00    +0.007 C 
ATOM     24  C   LIG    1       22.220 -30.655  10.305  0.00  0.00    +0.004 C 
ENDBRANCH   2  23
TORSDOF 3
ENDMDL
MODEL 9
REMARK VINA RESULT:      -5.0      8.509     10.762
REMARK  Name = *****
REMARK                            x       y       z     vdW  Elec       q    Type
REMARK                         _______ _______ _______ _____ _____    ______ ____
ROOT
ATOM      1  C   LIG    1       21.462 -31.718  12.636  0.00  0.00    +0.132 C 
ATOM      2  C   LIG    1       22.303 -30.500  12.127  0.00  0.00    +0.014 C 
ATOM      3  C   LIG    1       21.667 -29.284  12.889  0.00  0.00    +0.002 C 
ATOM      4  C   LIG    1       22.420 -28.710  14.123  0.00  0.00    -0.003 C 
ATOM      5  C   LIG    1       23.960 -28.743  13.979  0.00  0.00    -0.000 C 
ATOM      6  C   LIG    1       24.366 -30.192  13.708  0.00  0.00    +0.005 C 
ATOM      7  C   LIG    1       24.445 -27.700  12.935  0.00  0.00    +0.019 C 
ATOM      8  C   LIG    1       23.963 -26.332  13.388  0.00  0.00    -0.063 C 
ATOM      9  C   LIG    1       24.778 -25.329  13.748  0.00  0.00    +0.045 C 
ATOM     10  C   LIG    1       26.243 -25.537  13.834  0.00  0.00    +0.156 C 
ATOM     11  C   LIG    1       26.762 -26.949  13.696  0.00  0.00    +0.079 C 
ATOM     12  O   LIG    1       26.974 -24.590  14.110  0.00  0.00    -0.293 OA
ATOM     13  C   LIG    1       22.466 -26.209  13.492  0.00  0.00    +0.031 C 
ATOM     14  C   LIG    1       25.958 -27.703  12.650  0.00  0.00    +0.016 C 
ATOM     15  C   LIG    1       21.933 -27.277  14.455  0.00  0.00    +0.008 C 
ATOM     16  C   LIG    1       20.242 -29.732  13.307  0.00  0.00    +0.008 C 
ATOM     17  C   LIG    1       23.830 -30.704  12.382  0.00  0.00    +0.011 C 
ATOM     18  C   LIG    1       20.049 -31.169  12.837  0.00  0.00    +0.049 C 
ENDROOT
BRANCH   1  20
ATOM     19  C   LIG    1       21.469 -33.816  10.980  0.00  0.00    +0.007 C 
ATOM     20  C   LIG    1       21.465 -32.875  11.725  0.00  0.00    -0.070 C 
ENDBRANCH   1  20
BRANCH   1  21
ATOM     21  O   LIG    1       21.945 -32.177  13.900  0.00  0.00    -0.376 OA
ATOM     22  H   LIG    1       21.420 -32.945  14.174  0.00  0.00    +0.211 HD
ENDBRANCH   1  21
BRANCH   2  23
ATOM     23  C   LIG    1       22.191 -30.248  10.572  0.00  0.00    +0.007 C 
ATOM     24  C   LIG    1       23.434 -30.343   9.699  0.00  0.00    +0.004 C 
ENDBRANCH   2  23
TORSDOF 3
ENDMDL
