MODEL 1
REMARK VINA RESULT:      62.3      0.000      0.000
REMARK  Name = *****
REMARK                            x       y       z     vdW  Elec       q    Type
REMARK                         _______ _______ _______ _____ _____    ______ ____
ROOT
ATOM      1  C   LIG    1       23.450 -13.931   2.996  0.00  0.00    +0.210 C 
ATOM      2  C   LIG    1       24.779 -13.104   2.817  0.00  0.00    +0.126 C 
ATOM      3  C   LIG    1       25.781 -13.889   1.953  0.00  0.00    +0.048 C 
ATOM      4  C   LIG    1       25.286 -12.767   4.251  0.00  0.00    +0.159 C 
ATOM      5  C   LIG    1       26.804 -12.656   4.445  0.00  0.00    +0.084 C 
ATOM      6  C   LIG    1       27.477 -11.454   3.797  0.00  0.00    +0.018 C 
ATOM      7  C   LIG    1       27.003 -12.646   5.955  0.00  0.00    +0.142 C 
ATOM      8  O   LIG    1       26.543 -11.726   6.637  0.00  0.00    -0.297 OA
ATOM      9  C   LIG    1       27.786 -13.789   6.593  0.00  0.00    +0.055 C 
ATOM     10  C   LIG    1       29.252 -13.488   6.294  0.00  0.00    +0.015 C 
ATOM     11  C   LIG    1       27.157 -15.183   6.241  0.00  0.00    +0.048 C 
ATOM     12  C   LIG    1       28.070 -16.414   6.007  0.00  0.00    +0.090 C 
ATOM     13  C   LIG    1       28.788 -16.329   4.648  0.00  0.00    +0.044 C 
ATOM     14  C   LIG    1       27.282 -17.817   6.162  0.00  0.00    +0.158 C 
ATOM     15  C   LIG    1       26.153 -18.133   5.066  0.00  0.00    +0.047 C 
ATOM     16  C   LIG    1       26.045 -19.656   4.812  0.00  0.00    +0.013 C 
ATOM     17  C   LIG    1       24.671 -17.532   5.276  0.00  0.00    +0.140 C 
ATOM     18  C   LIG    1       23.900 -17.556   3.906  0.00  0.00    +0.124 C 
ATOM     19  C   LIG    1       22.994 -18.763   3.616  0.00  0.00    +0.022 C 
ATOM     20  C   LIG    1       23.103 -16.265   3.708  0.00  0.00    +0.313 C 
ATOM     21  O   LIG    1       21.920 -16.132   3.900  0.00  0.00    -0.250 OA
ATOM     22  O   LIG    1       23.933 -15.294   3.251  0.00  0.00    -0.458 OA
ENDROOT
BRANCH   1  24
ATOM     23  C   LIG    1       21.039 -14.334   2.151  0.00  0.00    +0.007 C 
ATOM     24  C   LIG    1       22.460 -13.892   1.817  0.00  0.00    +0.044 C 
ENDBRANCH   1  24
BRANCH   2  25
ATOM     25  O   LIG    1       24.588 -11.851   2.153  0.00  0.00    -0.383 OA
ATOM     26  H   LIG    1       23.626 -11.812   1.957  0.00  0.00    +0.210 HD
ENDBRANCH   2  25
BRANCH   4  27
ATOM     27  O   LIG    1       24.628 -11.534   4.636  0.00  0.00    -0.388 OA
ATOM     28  H   LIG    1       24.229 -11.678   5.523  0.00  0.00    +0.210 HD
ENDBRANCH   4  27
BRANCH  12  29
ATOM     29  O   LIG    1       29.050 -16.314   7.055  0.00  0.00    -0.386 OA
ATOM     30  H   LIG    1       29.164 -17.187   7.469  0.00  0.00    +0.210 HD
ENDBRANCH  12  29
BRANCH  14  31
ATOM     31  O   LIG    1       28.183 -18.972   6.164  0.00  0.00    -0.342 OA
BRANCH  31  32
ATOM     32  C   LIG    1       28.708 -19.519   4.951  0.00  0.00    +0.281 C 
ATOM     33  C   LIG    1       28.279 -20.963   4.575  0.00  0.00    +0.187 C 
ATOM     34  C   LIG    1       26.961 -21.047   3.773  0.00  0.00    +0.092 C 
ATOM     35  C   LIG    1       27.161 -20.125   2.560  0.00  0.00    +0.053 C 
ATOM     36  C   LIG    1       27.552 -18.695   2.925  0.00  0.00    +0.120 C 
ATOM     37  C   LIG    1       26.384 -17.795   3.305  0.00  0.00    +0.038 C 
ATOM     38  O   LIG    1       28.624 -18.581   3.858  0.00  0.00    -0.346 OA
BRANCH  34  39
ATOM     39  N   LIG    1       25.700 -20.792   4.529  0.00  0.00    -0.303 NA
ATOM     40  C   LIG    1       24.578 -21.564   3.973  0.00  0.00    +0.105 C 
ATOM     41  C   LIG    1       25.794 -21.183   5.943  0.00  0.00    +0.105 C 
ENDBRANCH  34  39
BRANCH  33  42
ATOM     42  O   LIG    1       29.318 -21.569   3.756  0.00  0.00    -0.385 OA
ATOM     43  H   LIG    1       29.999 -21.884   4.375  0.00  0.00    +0.210 HD
ENDBRANCH  33  42
ENDBRANCH  31  32
ENDBRANCH  14  31
BRANCH  17  44
ATOM     44  O   LIG    1       23.973 -18.239   6.327  0.00  0.00    -0.347 OA
BRANCH  44  45
ATOM     45  C   LIG    1       22.814 -19.017   5.937  0.00  0.00    +0.254 C 
ATOM     46  O   LIG    1       23.162 -20.385   5.760  0.00  0.00    -0.346 OA
ATOM     47  C   LIG    1       22.094 -21.236   5.309  0.00  0.00    +0.150 C 
ATOM     48  C   LIG    1       21.044 -21.556   6.371  0.00  0.00    +0.040 C 
ATOM     49  C   LIG    1       21.498 -20.728   3.988  0.00  0.00    +0.175 C 
ATOM     50  C   LIG    1       21.093 -19.227   4.015  0.00  0.00    +0.099 C 
ATOM     51  C   LIG    1       19.764 -18.983   4.757  0.00  0.00    +0.044 C 
ATOM     52  C   LIG    1       22.233 -18.399   4.656  0.00  0.00    +0.098 C 
BRANCH  49  53
ATOM     53  O   LIG    1       22.493 -20.946   2.968  0.00  0.00    -0.386 OA
ATOM     54  H   LIG    1       22.065 -21.450   2.252  0.00  0.00    +0.210 HD
ENDBRANCH  49  53
BRANCH  50  55
ATOM     55  O   LIG    1       20.946 -18.704   2.668  0.00  0.00    -0.374 OA
ATOM     56  C   LIG    1       19.621 -18.383   2.252  0.00  0.00    +0.195 C 
ENDBRANCH  50  55
ENDBRANCH  44  45
ENDBRANCH  17  44
TORSDOF 12
ENDMDL
