MODEL 1
REMARK VINA RESULT:      -9.6      0.000      0.000
REMARK  Name = *****
REMARK                            x       y       z     vdW  Elec       q    Type
REMARK                         _______ _______ _______ _____ _____    ______ ____
ROOT
ATOM      1  C   LIG    1       24.935 -20.543   6.902  0.00  0.00    +0.120 A 
ATOM      2  C   LIG    1       25.684 -20.433   5.731  0.00  0.00    +0.046 A 
ATOM      3  C   LIG    1       27.079 -20.359   5.789  0.00  0.00    +0.007 A 
ATOM      4  C   LIG    1       27.740 -20.418   7.021  0.00  0.00    -0.046 A 
ATOM      5  C   LIG    1       26.983 -20.546   8.191  0.00  0.00    +0.007 A 
ATOM      6  C   LIG    1       25.593 -20.627   8.130  0.00  0.00    +0.046 A 
ENDROOT
BRANCH   1   7
ATOM      7  O   LIG    1       23.575 -20.582   6.742  0.00  0.00    -0.492 OA
BRANCH   7   8
ATOM      8  C   LIG    1       23.084 -21.784   6.133  0.00  0.00    +0.235 C 
BRANCH   8   9
ATOM      9  C   LIG    1       23.066 -22.933   7.133  0.00  0.00    +0.096 C 
BRANCH   9  13
ATOM     10  C   LIG    1       25.486 -26.197   5.833  0.00  0.00    -0.029 A 
ATOM     11  C   LIG    1       24.095 -26.205   5.774  0.00  0.00    +0.114 A 
ATOM     12  N   LIG    1       23.308 -25.181   6.182  0.00  0.00    -0.260 NA
ATOM     13  C   LIG    1       23.930 -24.079   6.666  0.00  0.00    +0.044 A 
ATOM     14  C   LIG    1       25.315 -23.986   6.767  0.00  0.00    +0.024 A 
ATOM     15  C   LIG    1       26.099 -25.052   6.338  0.00  0.00    +0.007 A 
BRANCH  10  17
ATOM     16  C   LIG    1       25.474 -28.639   5.284  0.00  0.00    +0.009 C 
ATOM     17  C   LIG    1       26.298 -27.363   5.348  0.00  0.00    +0.033 C 
ENDBRANCH  10  17
ENDBRANCH   9  13
ENDBRANCH   8   9
ENDBRANCH   7   8
ENDBRANCH   1   7
BRANCH   4  18
ATOM     18  C   LIG    1       29.247 -20.413   7.105  0.00  0.00    +0.059 C 
BRANCH  18  19
ATOM     19  C   LIG    1       29.819 -19.830   8.403  0.00  0.00    +0.146 C 
ATOM     20  C   LIG    1       31.216 -20.331   8.709  0.00  0.00    +0.234 C 
ATOM     21  O   LIG    1       31.533 -21.503   8.800  0.00  0.00    -0.274 OA
ATOM     22  N   LIG    1       32.097 -19.301   8.880  0.00  0.00    -0.246 N 
ATOM     23  H   LIG    1       33.071 -19.483   9.065  0.00  0.00    +0.158 HD
ATOM     24  C   LIG    1       31.658 -18.025   8.745  0.00  0.00    +0.279 C 
ATOM     25  O   LIG    1       32.341 -17.032   8.822  0.00  0.00    -0.263 OA
ATOM     26  S   LIG    1       29.941 -18.006   8.431  0.00  0.00    -0.054 S 
ENDBRANCH  18  19
ENDBRANCH   4  18
TORSDOF 7
ENDMDL
MODEL 2
REMARK VINA RESULT:      -9.2      2.920      4.843
REMARK  Name = *****
REMARK                            x       y       z     vdW  Elec       q    Type
REMARK                         _______ _______ _______ _____ _____    ______ ____
ROOT
ATOM      1  C   LIG    1       28.676 -20.624   7.016  0.00  0.00    +0.120 A 
ATOM      2  C   LIG    1       29.513 -21.186   7.980  0.00  0.00    +0.046 A 
ATOM      3  C   LIG    1       30.602 -20.465   8.477  0.00  0.00    +0.007 A 
ATOM      4  C   LIG    1       30.852 -19.163   8.030  0.00  0.00    -0.046 A 
ATOM      5  C   LIG    1       29.998 -18.599   7.075  0.00  0.00    +0.007 A 
ATOM      6  C   LIG    1       28.908 -19.316   6.588  0.00  0.00    +0.046 A 
ENDROOT
BRANCH   1   7
ATOM      7  O   LIG    1       27.652 -21.419   6.574  0.00  0.00    -0.492 OA
BRANCH   7   8
ATOM      8  C   LIG    1       26.976 -22.147   7.609  0.00  0.00    +0.235 C 
BRANCH   8   9
ATOM      9  C   LIG    1       25.800 -22.933   7.043  0.00  0.00    +0.096 C 
BRANCH   9  13
ATOM     10  C   LIG    1       22.987 -20.333   5.166  0.00  0.00    -0.029 A 
ATOM     11  C   LIG    1       23.878 -21.134   4.459  0.00  0.00    +0.114 A 
ATOM     12  N   LIG    1       24.779 -21.966   5.033  0.00  0.00    -0.260 NA
ATOM     13  C   LIG    1       24.795 -22.018   6.387  0.00  0.00    +0.044 A 
ATOM     14  C   LIG    1       23.944 -21.249   7.175  0.00  0.00    +0.024 A 
ATOM     15  C   LIG    1       23.027 -20.406   6.558  0.00  0.00    +0.007 A 
BRANCH  10  17
ATOM     16  C   LIG    1       22.394 -17.978   4.559  0.00  0.00    +0.009 C 
ATOM     17  C   LIG    1       22.001 -19.444   4.463  0.00  0.00    +0.033 C 
ENDBRANCH  10  17
ENDBRANCH   9  13
ENDBRANCH   8   9
ENDBRANCH   7   8
ENDBRANCH   1   7
BRANCH   4  18
ATOM     18  C   LIG    1       31.979 -18.338   8.603  0.00  0.00    +0.059 C 
BRANCH  18  19
ATOM     19  C   LIG    1       31.537 -17.076   9.356  0.00  0.00    +0.146 C 
ATOM     20  C   LIG    1       30.731 -17.385  10.601  0.00  0.00    +0.234 C 
ATOM     21  O   LIG    1       29.717 -18.059  10.627  0.00  0.00    -0.274 OA
ATOM     22  N   LIG    1       31.274 -16.806  11.713  0.00  0.00    -0.246 N 
ATOM     23  H   LIG    1       30.859 -16.944  12.620  0.00  0.00    +0.158 HD
ATOM     24  C   LIG    1       32.415 -16.083  11.592  0.00  0.00    +0.279 C 
ATOM     25  O   LIG    1       33.021 -15.564  12.497  0.00  0.00    -0.263 OA
ATOM     26  S   LIG    1       32.908 -16.005   9.918  0.00  0.00    -0.054 S 
ENDBRANCH  18  19
ENDBRANCH   4  18
TORSDOF 7
ENDMDL
MODEL 3
REMARK VINA RESULT:      -9.0      2.799      9.033
REMARK  Name = *****
REMARK                            x       y       z     vdW  Elec       q    Type
REMARK                         _______ _______ _______ _____ _____    ______ ____
ROOT
ATOM      1  C   LIG    1       28.445 -20.638   7.315  0.00  0.00    +0.120 A 
ATOM      2  C   LIG    1       27.648 -20.986   8.406  0.00  0.00    +0.046 A 
ATOM      3  C   LIG    1       26.255 -20.967   8.298  0.00  0.00    +0.007 A 
ATOM      4  C   LIG    1       25.644 -20.621   7.087  0.00  0.00    -0.046 A 
ATOM      5  C   LIG    1       26.450 -20.290   5.992  0.00  0.00    +0.007 A 
ATOM      6  C   LIG    1       27.839 -20.318   6.100  0.00  0.00    +0.046 A 
ENDROOT
BRANCH   1   7
ATOM      7  O   LIG    1       29.798 -20.663   7.530  0.00  0.00    -0.492 OA
BRANCH   7   8
ATOM      8  C   LIG    1       30.504 -19.533   6.998  0.00  0.00    +0.235 C 
BRANCH   8   9
ATOM      9  C   LIG    1       29.927 -18.229   7.535  0.00  0.00    +0.096 C 
BRANCH   9  13
ATOM     10  C   LIG    1       32.127 -16.887  10.934  0.00  0.00    -0.029 A 
ATOM     11  C   LIG    1       32.640 -16.882   9.640  0.00  0.00    +0.114 A 
ATOM     12  N   LIG    1       31.960 -17.303   8.547  0.00  0.00    -0.260 NA
ATOM     13  C   LIG    1       30.694 -17.746   8.741  0.00  0.00    +0.044 A 
ATOM     14  C   LIG    1       30.102 -17.792  10.000  0.00  0.00    +0.024 A 
ATOM     15  C   LIG    1       30.823 -17.350  11.104  0.00  0.00    +0.007 A 
BRANCH  10  17
ATOM     16  C   LIG    1       32.043 -15.933  13.246  0.00  0.00    +0.009 C 
ATOM     17  C   LIG    1       32.932 -16.388  12.100  0.00  0.00    +0.033 C 
ENDBRANCH  10  17
ENDBRANCH   9  13
ENDBRANCH   8   9
ENDBRANCH   7   8
ENDBRANCH   1   7
BRANCH   4  18
ATOM     18  C   LIG    1       24.144 -20.662   6.924  0.00  0.00    +0.059 C 
BRANCH  18  19
ATOM     19  C   LIG    1       23.609 -21.892   6.179  0.00  0.00    +0.146 C 
ATOM     20  C   LIG    1       24.020 -21.922   4.721  0.00  0.00    +0.234 C 
ATOM     21  O   LIG    1       23.809 -21.031   3.918  0.00  0.00    -0.274 OA
ATOM     22  N   LIG    1       24.660 -23.085   4.399  0.00  0.00    -0.246 N 
ATOM     23  H   LIG    1       25.014 -23.237   3.468  0.00  0.00    +0.158 HD
ATOM     24  C   LIG    1       24.864 -24.017   5.363  0.00  0.00    +0.279 C 
ATOM     25  O   LIG    1       25.457 -25.059   5.223  0.00  0.00    -0.263 OA
ATOM     26  S   LIG    1       24.150 -23.496   6.869  0.00  0.00    -0.054 S 
ENDBRANCH  18  19
ENDBRANCH   4  18
TORSDOF 7
ENDMDL
MODEL 4
REMARK VINA RESULT:      -8.9      2.157      4.178
REMARK  Name = *****
REMARK                            x       y       z     vdW  Elec       q    Type
REMARK                         _______ _______ _______ _____ _____    ______ ____
ROOT
ATOM      1  C   LIG    1       26.627 -22.309   7.907  0.00  0.00    +0.120 A 
ATOM      2  C   LIG    1       26.192 -21.127   8.505  0.00  0.00    +0.046 A 
ATOM      3  C   LIG    1       26.992 -19.981   8.469  0.00  0.00    +0.007 A 
ATOM      4  C   LIG    1       28.227 -20.002   7.812  0.00  0.00    -0.046 A 
ATOM      5  C   LIG    1       28.650 -21.187   7.200  0.00  0.00    +0.007 A 
ATOM      6  C   LIG    1       27.847 -22.325   7.230  0.00  0.00    +0.046 A 
ENDROOT
BRANCH   1   7
ATOM      7  O   LIG    1       25.783 -23.383   8.020  0.00  0.00    -0.492 OA
BRANCH   7   8
ATOM      8  C   LIG    1       25.511 -24.056   6.783  0.00  0.00    +0.235 C 
BRANCH   8   9
ATOM      9  C   LIG    1       24.063 -23.848   6.357  0.00  0.00    +0.096 C 
BRANCH   9  13
ATOM     10  C   LIG    1       23.531 -19.980   4.640  0.00  0.00    -0.029 A 
ATOM     11  C   LIG    1       24.343 -20.960   4.079  0.00  0.00    +0.114 A 
ATOM     12  N   LIG    1       24.527 -22.194   4.607  0.00  0.00    -0.260 NA
ATOM     13  C   LIG    1       23.861 -22.481   5.751  0.00  0.00    +0.044 A 
ATOM     14  C   LIG    1       23.031 -21.560   6.384  0.00  0.00    +0.024 A 
ATOM     15  C   LIG    1       22.859 -20.302   5.818  0.00  0.00    +0.007 A 
BRANCH  10  17
ATOM     16  C   LIG    1       22.145 -17.899   4.532  0.00  0.00    +0.009 C 
ATOM     17  C   LIG    1       23.359 -18.636   3.991  0.00  0.00    +0.033 C 
ENDBRANCH  10  17
ENDBRANCH   9  13
ENDBRANCH   8   9
ENDBRANCH   7   8
ENDBRANCH   1   7
BRANCH   4  18
ATOM     18  C   LIG    1       29.077 -18.759   7.698  0.00  0.00    +0.059 C 
BRANCH  18  19
ATOM     19  C   LIG    1       30.261 -18.695   8.671  0.00  0.00    +0.146 C 
ATOM     20  C   LIG    1       31.602 -18.798   7.974  0.00  0.00    +0.234 C 
ATOM     21  O   LIG    1       31.936 -19.705   7.233  0.00  0.00    -0.274 OA
ATOM     22  N   LIG    1       32.415 -17.743   8.280  0.00  0.00    -0.246 N 
ATOM     23  H   LIG    1       33.331 -17.663   7.869  0.00  0.00    +0.158 HD
ATOM     24  C   LIG    1       31.953 -16.770   9.104  0.00  0.00    +0.279 C 
ATOM     25  O   LIG    1       32.548 -15.766   9.412  0.00  0.00    -0.263 OA
ATOM     26  S   LIG    1       30.348 -17.164   9.666  0.00  0.00    -0.054 S 
ENDBRANCH  18  19
ENDBRANCH   4  18
TORSDOF 7
ENDMDL
MODEL 5
REMARK VINA RESULT:      -8.8      2.998      9.579
REMARK  Name = *****
REMARK                            x       y       z     vdW  Elec       q    Type
REMARK                         _______ _______ _______ _____ _____    ______ ____
ROOT
ATOM      1  C   LIG    1       29.687 -20.134   6.787  0.00  0.00    +0.120 A 
ATOM      2  C   LIG    1       28.936 -19.552   5.766  0.00  0.00    +0.046 A 
ATOM      3  C   LIG    1       27.591 -19.893   5.595  0.00  0.00    +0.007 A 
ATOM      4  C   LIG    1       26.977 -20.805   6.461  0.00  0.00    -0.046 A 
ATOM      5  C   LIG    1       27.732 -21.372   7.494  0.00  0.00    +0.007 A 
ATOM      6  C   LIG    1       29.070 -21.025   7.667  0.00  0.00    +0.046 A 
ENDROOT
BRANCH   1   7
ATOM      7  O   LIG    1       31.001 -19.755   6.856  0.00  0.00    -0.492 OA
BRANCH   7   8
ATOM      8  C   LIG    1       31.417 -19.287   8.147  0.00  0.00    +0.235 C 
BRANCH   8   9
ATOM      9  C   LIG    1       30.785 -17.938   8.467  0.00  0.00    +0.096 C 
BRANCH   9  13
ATOM     10  C   LIG    1       32.455 -16.213  11.993  0.00  0.00    -0.029 A 
ATOM     11  C   LIG    1       31.406 -17.127  12.012  0.00  0.00    +0.114 A 
ATOM     12  N   LIG    1       30.860 -17.687  10.905  0.00  0.00    -0.260 NA
ATOM     13  C   LIG    1       31.388 -17.332   9.710  0.00  0.00    +0.044 A 
ATOM     14  C   LIG    1       32.434 -16.421   9.595  0.00  0.00    +0.024 A 
ATOM     15  C   LIG    1       32.977 -15.864  10.748  0.00  0.00    +0.007 A 
BRANCH  10  17
ATOM     16  C   LIG    1       32.283 -16.151  14.489  0.00  0.00    +0.009 C 
ATOM     17  C   LIG    1       33.023 -15.644  13.261  0.00  0.00    +0.033 C 
ENDBRANCH  10  17
ENDBRANCH   9  13
ENDBRANCH   8   9
ENDBRANCH   7   8
ENDBRANCH   1   7
BRANCH   4  18
ATOM     18  C   LIG    1       25.509 -21.135   6.341  0.00  0.00    +0.059 C 
BRANCH  18  19
ATOM     19  C   LIG    1       25.049 -22.339   7.173  0.00  0.00    +0.146 C 
ATOM     20  C   LIG    1       23.541 -22.432   7.290  0.00  0.00    +0.234 C 
ATOM     21  O   LIG    1       22.817 -21.547   7.709  0.00  0.00    -0.274 OA
ATOM     22  N   LIG    1       23.074 -23.645   6.870  0.00  0.00    -0.246 N 
ATOM     23  H   LIG    1       22.086 -23.843   6.867  0.00  0.00    +0.158 HD
ATOM     24  C   LIG    1       23.953 -24.567   6.403  0.00  0.00    +0.279 C 
ATOM     25  O   LIG    1       23.667 -25.653   5.959  0.00  0.00    -0.263 OA
ATOM     26  S   LIG    1       25.586 -23.963   6.526  0.00  0.00    -0.054 S 
ENDBRANCH  18  19
ENDBRANCH   4  18
TORSDOF 7
ENDMDL
MODEL 6
REMARK VINA RESULT:      -8.7      1.220      1.756
REMARK  Name = *****
REMARK                            x       y       z     vdW  Elec       q    Type
REMARK                         _______ _______ _______ _____ _____    ______ ____
ROOT
ATOM      1  C   LIG    1       25.329 -21.017   6.248  0.00  0.00    +0.120 A 
ATOM      2  C   LIG    1       25.937 -21.144   7.497  0.00  0.00    +0.046 A 
ATOM      3  C   LIG    1       27.222 -20.638   7.712  0.00  0.00    +0.007 A 
ATOM      4  C   LIG    1       27.903 -19.978   6.683  0.00  0.00    -0.046 A 
ATOM      5  C   LIG    1       27.281 -19.840   5.438  0.00  0.00    +0.007 A 
ATOM      6  C   LIG    1       25.997 -20.338   5.229  0.00  0.00    +0.046 A 
ENDROOT
BRANCH   1   7
ATOM      7  O   LIG    1       24.080 -21.568   6.131  0.00  0.00    -0.492 OA
BRANCH   7   8
ATOM      8  C   LIG    1       24.022 -22.973   6.415  0.00  0.00    +0.235 C 
BRANCH   8   9
ATOM      9  C   LIG    1       24.906 -23.759   5.454  0.00  0.00    +0.096 C 
BRANCH   9  13
ATOM     10  C   LIG    1       25.117 -27.864   6.593  0.00  0.00    -0.029 A 
ATOM     11  C   LIG    1       24.231 -27.381   5.635  0.00  0.00    +0.114 A 
ATOM     12  N   LIG    1       24.147 -26.082   5.259  0.00  0.00    -0.260 NA
ATOM     13  C   LIG    1       24.995 -25.211   5.855  0.00  0.00    +0.044 A 
ATOM     14  C   LIG    1       25.910 -25.604   6.827  0.00  0.00    +0.024 A 
ATOM     15  C   LIG    1       25.977 -26.945   7.192  0.00  0.00    +0.007 A 
BRANCH  10  17
ATOM     16  C   LIG    1       25.430 -29.531   8.434  0.00  0.00    +0.009 C 
ATOM     17  C   LIG    1       25.169 -29.322   6.950  0.00  0.00    +0.033 C 
ENDBRANCH  10  17
ENDBRANCH   9  13
ENDBRANCH   8   9
ENDBRANCH   7   8
ENDBRANCH   1   7
BRANCH   4  18
ATOM     18  C   LIG    1       29.262 -19.362   6.911  0.00  0.00    +0.059 C 
BRANCH  18  19
ATOM     19  C   LIG    1       29.700 -19.289   8.379  0.00  0.00    +0.146 C 
ATOM     20  C   LIG    1       30.863 -20.208   8.693  0.00  0.00    +0.234 C 
ATOM     21  O   LIG    1       30.881 -21.408   8.486  0.00  0.00    -0.274 OA
ATOM     22  N   LIG    1       31.909 -19.529   9.252  0.00  0.00    -0.246 N 
ATOM     23  H   LIG    1       32.763 -20.006   9.491  0.00  0.00    +0.158 HD
ATOM     24  C   LIG    1       31.806 -18.189   9.432  0.00  0.00    +0.279 C 
ATOM     25  O   LIG    1       32.671 -17.467   9.867  0.00  0.00    -0.263 OA
ATOM     26  S   LIG    1       30.228 -17.630   8.936  0.00  0.00    -0.054 S 
ENDBRANCH  18  19
ENDBRANCH   4  18
TORSDOF 7
ENDMDL
MODEL 7
REMARK VINA RESULT:      -8.6      1.587      2.558
REMARK  Name = *****
REMARK                            x       y       z     vdW  Elec       q    Type
REMARK                         _______ _______ _______ _____ _____    ______ ____
ROOT
ATOM      1  C   LIG    1       24.400 -21.870   6.753  0.00  0.00    +0.120 A 
ATOM      2  C   LIG    1       24.998 -21.907   8.012  0.00  0.00    +0.046 A 
ATOM      3  C   LIG    1       26.191 -21.219   8.248  0.00  0.00    +0.007 A 
ATOM      4  C   LIG    1       26.787 -20.466   7.229  0.00  0.00    -0.046 A 
ATOM      5  C   LIG    1       26.172 -20.420   5.973  0.00  0.00    +0.007 A 
ATOM      6  C   LIG    1       24.979 -21.100   5.743  0.00  0.00    +0.046 A 
ENDROOT
BRANCH   1   7
ATOM      7  O   LIG    1       23.247 -22.598   6.615  0.00  0.00    -0.492 OA
BRANCH   7   8
ATOM      8  C   LIG    1       23.442 -24.018   6.586  0.00  0.00    +0.235 C 
BRANCH   8   9
ATOM      9  C   LIG    1       24.727 -24.377   5.850  0.00  0.00    +0.096 C 
BRANCH   9  13
ATOM     10  C   LIG    1       25.170 -28.606   5.507  0.00  0.00    -0.029 A 
ATOM     11  C   LIG    1       24.278 -27.999   6.386  0.00  0.00    +0.114 A 
ATOM     12  N   LIG    1       24.122 -26.659   6.512  0.00  0.00    -0.260 NA
ATOM     13  C   LIG    1       24.883 -25.871   5.715  0.00  0.00    +0.044 A 
ATOM     14  C   LIG    1       25.805 -26.391   4.811  0.00  0.00    +0.024 A 
ATOM     15  C   LIG    1       25.942 -27.770   4.701  0.00  0.00    +0.007 A 
BRANCH  10  17
ATOM     16  C   LIG    1       24.174 -30.800   6.180  0.00  0.00    +0.009 C 
ATOM     17  C   LIG    1       25.280 -30.100   5.408  0.00  0.00    +0.033 C 
ENDBRANCH  10  17
ENDBRANCH   9  13
ENDBRANCH   8   9
ENDBRANCH   7   8
ENDBRANCH   1   7
BRANCH   4  18
ATOM     18  C   LIG    1       28.037 -19.657   7.479  0.00  0.00    +0.059 C 
BRANCH  18  19
ATOM     19  C   LIG    1       29.349 -20.377   7.144  0.00  0.00    +0.146 C 
ATOM     20  C   LIG    1       30.498 -19.422   6.894  0.00  0.00    +0.234 C 
ATOM     21  O   LIG    1       30.491 -18.520   6.075  0.00  0.00    -0.274 OA
ATOM     22  N   LIG    1       31.567 -19.693   7.700  0.00  0.00    -0.246 N 
ATOM     23  H   LIG    1       32.397 -19.122   7.664  0.00  0.00    +0.158 HD
ATOM     24  C   LIG    1       31.480 -20.709   8.595  0.00  0.00    +0.279 C 
ATOM     25  O   LIG    1       32.329 -21.019   9.395  0.00  0.00    -0.263 OA
ATOM     26  S   LIG    1       29.944 -21.522   8.439  0.00  0.00    -0.054 S 
ENDBRANCH  18  19
ENDBRANCH   4  18
TORSDOF 7
ENDMDL
MODEL 8
REMARK VINA RESULT:      -8.4      2.314      3.274
REMARK  Name = *****
REMARK                            x       y       z     vdW  Elec       q    Type
REMARK                         _______ _______ _______ _____ _____    ______ ____
ROOT
ATOM      1  C   LIG    1       25.016 -23.233   6.420  0.00  0.00    +0.120 A 
ATOM      2  C   LIG    1       25.882 -23.322   7.510  0.00  0.00    +0.046 A 
ATOM      3  C   LIG    1       26.787 -22.292   7.779  0.00  0.00    +0.007 A 
ATOM      4  C   LIG    1       26.819 -21.149   6.972  0.00  0.00    -0.046 A 
ATOM      5  C   LIG    1       25.935 -21.059   5.890  0.00  0.00    +0.007 A 
ATOM      6  C   LIG    1       25.028 -22.083   5.629  0.00  0.00    +0.046 A 
ENDROOT
BRANCH   1   7
ATOM      7  O   LIG    1       24.186 -24.305   6.225  0.00  0.00    -0.492 OA
BRANCH   7   8
ATOM      8  C   LIG    1       24.432 -25.035   5.016  0.00  0.00    +0.235 C 
BRANCH   8   9
ATOM      9  C   LIG    1       25.648 -25.941   5.165  0.00  0.00    +0.096 C 
BRANCH   9  13
ATOM     10  C   LIG    1       24.688 -29.393   7.480  0.00  0.00    -0.029 A 
ATOM     11  C   LIG    1       24.144 -29.139   6.225  0.00  0.00    +0.114 A 
ATOM     12  N   LIG    1       24.435 -28.050   5.473  0.00  0.00    -0.260 NA
ATOM     13  C   LIG    1       25.322 -27.164   5.986  0.00  0.00    +0.044 A 
ATOM     14  C   LIG    1       25.911 -27.335   7.236  0.00  0.00    +0.024 A 
ATOM     15  C   LIG    1       25.597 -28.464   7.984  0.00  0.00    +0.007 A 
BRANCH  10  17
ATOM     16  C   LIG    1       23.488 -30.311   9.475  0.00  0.00    +0.009 C 
ATOM     17  C   LIG    1       24.334 -30.631   8.253  0.00  0.00    +0.033 C 
ENDBRANCH  10  17
ENDBRANCH   9  13
ENDBRANCH   8   9
ENDBRANCH   7   8
ENDBRANCH   1   7
BRANCH   4  18
ATOM     18  C   LIG    1       27.737 -19.993   7.284  0.00  0.00    +0.059 C 
BRANCH  18  19
ATOM     19  C   LIG    1       29.222 -20.252   6.997  0.00  0.00    +0.146 C 
ATOM     20  C   LIG    1       29.990 -18.986   6.675  0.00  0.00    +0.234 C 
ATOM     21  O   LIG    1       29.699 -18.198   5.794  0.00  0.00    -0.274 OA
ATOM     22  N   LIG    1       31.070 -18.826   7.496  0.00  0.00    -0.246 N 
ATOM     23  H   LIG    1       31.662 -18.015   7.416  0.00  0.00    +0.158 HD
ATOM     24  C   LIG    1       31.309 -19.748   8.462  0.00  0.00    +0.279 C 
ATOM     25  O   LIG    1       32.196 -19.700   9.280  0.00  0.00    -0.263 OA
ATOM     26  S   LIG    1       30.137 -21.039   8.370  0.00  0.00    -0.054 S 
ENDBRANCH  18  19
ENDBRANCH   4  18
TORSDOF 7
ENDMDL
MODEL 9
REMARK VINA RESULT:      -8.2      4.528      8.591
REMARK  Name = *****
REMARK                            x       y       z     vdW  Elec       q    Type
REMARK                         _______ _______ _______ _____ _____    ______ ____
ROOT
ATOM      1  C   LIG    1       24.629 -24.324   6.765  0.00  0.00    +0.120 A 
ATOM      2  C   LIG    1       25.955 -24.755   6.791  0.00  0.00    +0.046 A 
ATOM      3  C   LIG    1       26.290 -26.034   6.339  0.00  0.00    +0.007 A 
ATOM      4  C   LIG    1       25.302 -26.888   5.834  0.00  0.00    -0.046 A 
ATOM      5  C   LIG    1       23.976 -26.442   5.796  0.00  0.00    +0.007 A 
ATOM      6  C   LIG    1       23.646 -25.163   6.239  0.00  0.00    +0.046 A 
ENDROOT
BRANCH   1   7
ATOM      7  O   LIG    1       24.399 -23.064   7.253  0.00  0.00    -0.492 OA
BRANCH   7   8
ATOM      8  C   LIG    1       23.491 -22.280   6.468  0.00  0.00    +0.235 C 
BRANCH   8   9
ATOM      9  C   LIG    1       23.813 -20.795   6.585  0.00  0.00    +0.096 C 
BRANCH   9  13
ATOM     10  C   LIG    1       28.022 -20.171   6.894  0.00  0.00    -0.029 A 
ATOM     11  C   LIG    1       27.341 -20.210   5.681  0.00  0.00    +0.114 A 
ATOM     12  N   LIG    1       26.006 -20.407   5.559  0.00  0.00    -0.260 NA
ATOM     13  C   LIG    1       25.299 -20.564   6.704  0.00  0.00    +0.044 A 
ATOM     14  C   LIG    1       25.897 -20.546   7.961  0.00  0.00    +0.024 A 
ATOM     15  C   LIG    1       27.269 -20.339   8.055  0.00  0.00    +0.007 A 
BRANCH  10  17
ATOM     16  C   LIG    1       29.864 -18.515   6.538  0.00  0.00    +0.009 C 
ATOM     17  C   LIG    1       29.503 -19.932   6.956  0.00  0.00    +0.033 C 
ENDBRANCH  10  17
ENDBRANCH   9  13
ENDBRANCH   8   9
ENDBRANCH   7   8
ENDBRANCH   1   7
BRANCH   4  18
ATOM     18  C   LIG    1       25.649 -28.246   5.275  0.00  0.00    +0.059 C 
BRANCH  18  19
ATOM     19  C   LIG    1       25.002 -29.430   6.006  0.00  0.00    +0.146 C 
ATOM     20  C   LIG    1       25.647 -30.757   5.664  0.00  0.00    +0.234 C 
ATOM     21  O   LIG    1       25.777 -31.200   4.537  0.00  0.00    -0.274 OA
ATOM     22  N   LIG    1       26.069 -31.419   6.782  0.00  0.00    -0.246 N 
ATOM     23  H   LIG    1       26.540 -32.306   6.708  0.00  0.00    +0.158 HD
ATOM     24  C   LIG    1       25.895 -30.842   7.997  0.00  0.00    +0.279 C 
ATOM     25  O   LIG    1       26.265 -31.296   9.053  0.00  0.00    -0.263 OA
ATOM     26  S   LIG    1       25.055 -29.321   7.830  0.00  0.00    -0.054 S 
ENDBRANCH  18  19
ENDBRANCH   4  18
TORSDOF 7
ENDMDL
