MODEL 1
REMARK VINA RESULT:      -8.9      0.000      0.000
REMARK  Name = *****
REMARK                            x       y       z     vdW  Elec       q    Type
REMARK                         _______ _______ _______ _____ _____    ______ ____
ROOT
ATOM      1  C   LIG    1       24.416 -27.023   6.448  0.00  0.00    +0.039 C 
ENDROOT
BRANCH   1   5
ATOM      2  C   LIG    1       24.801 -22.684   6.884  0.00  0.00    -0.042 A 
ATOM      3  C   LIG    1       23.558 -23.301   6.638  0.00  0.00    +0.004 A 
ATOM      4  C   LIG    1       23.451 -24.690   6.494  0.00  0.00    +0.004 A 
ATOM      5  C   LIG    1       24.562 -25.524   6.603  0.00  0.00    -0.047 A 
ATOM      6  C   LIG    1       25.810 -24.927   6.826  0.00  0.00    +0.004 A 
ATOM      7  C   LIG    1       25.919 -23.531   6.954  0.00  0.00    +0.004 A 
BRANCH   2   8
ATOM      8  C   LIG    1       24.914 -21.143   6.996  0.00  0.00    -0.010 C 
ATOM      9  C   LIG    1       25.680 -20.711   8.272  0.00  0.00    +0.016 C 
ATOM     10  C   LIG    1       25.702 -20.544   5.805  0.00  0.00    +0.016 C 
BRANCH   8  12
ATOM     11  C   LIG    1       22.956 -19.970   5.721  0.00  0.00    +0.004 C 
ATOM     12  C   LIG    1       23.467 -20.564   7.033  0.00  0.00    +0.007 C 
ENDBRANCH   8  12
ENDBRANCH   2   8
ENDBRANCH   1   5
BRANCH   1  13
ATOM     13  C   LIG    1       25.508 -27.780   5.642  0.00  0.00    +0.004 C 
ATOM     14  C   LIG    1       25.966 -26.954   4.435  0.00  0.00    +0.009 C 
BRANCH  13  15
ATOM     15  C   LIG    1       25.082 -29.214   5.230  0.00  0.00    +0.088 C 
BRANCH  15  16
ATOM     16  N   LIG    1       25.603 -30.307   6.083  0.00  0.00    -0.297 NA
ATOM     17  C   LIG    1       25.357 -30.166   7.539  0.00  0.00    +0.115 C 
ATOM     18  C   LIG    1       23.890 -30.418   7.957  0.00  0.00    +0.130 C 
ATOM     19  C   LIG    1       23.702 -30.291   9.466  0.00  0.00    +0.039 C 
ATOM     20  O   LIG    1       23.489 -31.742   7.567  0.00  0.00    -0.371 OA
ATOM     21  C   LIG    1       23.613 -31.903   6.144  0.00  0.00    +0.130 C 
ATOM     22  C   LIG    1       23.189 -33.327   5.802  0.00  0.00    +0.039 C 
ATOM     23  C   LIG    1       25.062 -31.627   5.669  0.00  0.00    +0.115 C 
ENDBRANCH  15  16
ENDBRANCH  13  15
ENDBRANCH   1  13
TORSDOF 6
ENDMDL
MODEL 2
REMARK VINA RESULT:      -8.8      0.402      1.070
REMARK  Name = *****
REMARK                            x       y       z     vdW  Elec       q    Type
REMARK                         _______ _______ _______ _____ _____    ______ ____
ROOT
ATOM      1  C   LIG    1       24.322 -26.926   6.330  0.00  0.00    +0.039 C 
ENDROOT
BRANCH   1   5
ATOM      2  C   LIG    1       24.883 -22.639   7.017  0.00  0.00    -0.042 A 
ATOM      3  C   LIG    1       23.618 -23.188   6.730  0.00  0.00    +0.004 A 
ATOM      4  C   LIG    1       23.454 -24.561   6.506  0.00  0.00    +0.004 A 
ATOM      5  C   LIG    1       24.529 -25.446   6.571  0.00  0.00    -0.047 A 
ATOM      6  C   LIG    1       25.799 -24.916   6.834  0.00  0.00    +0.004 A 
ATOM      7  C   LIG    1       25.965 -23.535   7.043  0.00  0.00    +0.004 A 
BRANCH   2   8
ATOM      8  C   LIG    1       25.059 -21.113   7.218  0.00  0.00    -0.010 C 
ATOM      9  C   LIG    1       23.696 -20.377   7.281  0.00  0.00    +0.016 C 
ATOM     10  C   LIG    1       25.774 -20.796   8.555  0.00  0.00    +0.016 C 
BRANCH   8  12
ATOM     11  C   LIG    1       25.190 -20.589   4.661  0.00  0.00    +0.004 C 
ATOM     12  C   LIG    1       25.892 -20.570   6.017  0.00  0.00    +0.007 C 
ENDBRANCH   8  12
ENDBRANCH   2   8
ENDBRANCH   1   5
BRANCH   1  13
ATOM     13  C   LIG    1       25.447 -27.707   5.596  0.00  0.00    +0.004 C 
ATOM     14  C   LIG    1       25.960 -26.917   4.386  0.00  0.00    +0.009 C 
BRANCH  13  15
ATOM     15  C   LIG    1       25.038 -29.153   5.209  0.00  0.00    +0.088 C 
BRANCH  15  16
ATOM     16  N   LIG    1       25.588 -30.226   6.069  0.00  0.00    -0.297 NA
ATOM     17  C   LIG    1       25.338 -30.082   7.523  0.00  0.00    +0.115 C 
ATOM     18  C   LIG    1       23.878 -30.370   7.944  0.00  0.00    +0.130 C 
ATOM     19  C   LIG    1       23.687 -30.238   9.452  0.00  0.00    +0.039 C 
ATOM     20  O   LIG    1       23.512 -31.706   7.562  0.00  0.00    -0.371 OA
ATOM     21  C   LIG    1       23.640 -31.873   6.140  0.00  0.00    +0.130 C 
ATOM     22  C   LIG    1       23.254 -33.310   5.808  0.00  0.00    +0.039 C 
ATOM     23  C   LIG    1       25.081 -31.563   5.663  0.00  0.00    +0.115 C 
ENDBRANCH  15  16
ENDBRANCH  13  15
ENDBRANCH   1  13
TORSDOF 6
ENDMDL
MODEL 3
REMARK VINA RESULT:      -8.7      0.932      1.899
REMARK  Name = *****
REMARK                            x       y       z     vdW  Elec       q    Type
REMARK                         _______ _______ _______ _____ _____    ______ ____
ROOT
ATOM      1  C   LIG    1       24.393 -27.007   6.286  0.00  0.00    +0.039 C 
ENDROOT
BRANCH   1   5
ATOM      2  C   LIG    1       24.783 -22.694   6.931  0.00  0.00    -0.042 A 
ATOM      3  C   LIG    1       23.533 -23.304   6.707  0.00  0.00    +0.004 A 
ATOM      4  C   LIG    1       23.424 -24.684   6.496  0.00  0.00    +0.004 A 
ATOM      5  C   LIG    1       24.541 -25.517   6.513  0.00  0.00    -0.047 A 
ATOM      6  C   LIG    1       25.796 -24.925   6.712  0.00  0.00    +0.004 A 
ATOM      7  C   LIG    1       25.906 -23.537   6.908  0.00  0.00    +0.004 A 
BRANCH   2   8
ATOM      8  C   LIG    1       24.896 -21.160   7.118  0.00  0.00    -0.010 C 
ATOM      9  C   LIG    1       25.587 -20.790   8.456  0.00  0.00    +0.016 C 
ATOM     10  C   LIG    1       25.756 -20.514   6.004  0.00  0.00    +0.016 C 
BRANCH   8  12
ATOM     11  C   LIG    1       22.986 -20.007   5.755  0.00  0.00    +0.004 C 
ATOM     12  C   LIG    1       23.452 -20.573   7.095  0.00  0.00    +0.007 C 
ENDBRANCH   8  12
ENDBRANCH   2   8
ENDBRANCH   1   5
BRANCH   1  13
ATOM     13  C   LIG    1       25.616 -27.780   5.717  0.00  0.00    +0.004 C 
ATOM     14  C   LIG    1       26.110 -27.138   4.416  0.00  0.00    +0.009 C 
BRANCH  13  15
ATOM     15  C   LIG    1       25.354 -29.300   5.547  0.00  0.00    +0.088 C 
BRANCH  15  16
ATOM     16  N   LIG    1       24.580 -29.942   6.634  0.00  0.00    -0.297 NA
ATOM     17  C   LIG    1       23.697 -31.061   6.226  0.00  0.00    +0.115 C 
ATOM     18  C   LIG    1       24.451 -32.363   5.872  0.00  0.00    +0.130 C 
ATOM     19  C   LIG    1       23.492 -33.487   5.490  0.00  0.00    +0.039 C 
ATOM     20  O   LIG    1       25.228 -32.802   6.998  0.00  0.00    -0.371 OA
ATOM     21  C   LIG    1       26.176 -31.789   7.377  0.00  0.00    +0.130 C 
ATOM     22  C   LIG    1       26.951 -32.311   8.581  0.00  0.00    +0.039 C 
ATOM     23  C   LIG    1       25.470 -30.451   7.709  0.00  0.00    +0.115 C 
ENDBRANCH  15  16
ENDBRANCH  13  15
ENDBRANCH   1  13
TORSDOF 6
ENDMDL
MODEL 4
REMARK VINA RESULT:      -8.6      1.279      2.418
REMARK  Name = *****
REMARK                            x       y       z     vdW  Elec       q    Type
REMARK                         _______ _______ _______ _____ _____    ______ ____
ROOT
ATOM      1  C   LIG    1       24.284 -26.885   6.159  0.00  0.00    +0.039 C 
ENDROOT
BRANCH   1   5
ATOM      2  C   LIG    1       24.891 -22.641   7.044  0.00  0.00    -0.042 A 
ATOM      3  C   LIG    1       23.613 -23.171   6.780  0.00  0.00    +0.004 A 
ATOM      4  C   LIG    1       23.435 -24.530   6.491  0.00  0.00    +0.004 A 
ATOM      5  C   LIG    1       24.507 -25.420   6.468  0.00  0.00    -0.047 A 
ATOM      6  C   LIG    1       25.789 -24.907   6.707  0.00  0.00    +0.004 A 
ATOM      7  C   LIG    1       25.969 -23.539   6.980  0.00  0.00    +0.004 A 
BRANCH   2   8
ATOM      8  C   LIG    1       25.082 -21.127   7.316  0.00  0.00    -0.010 C 
ATOM      9  C   LIG    1       23.728 -20.374   7.364  0.00  0.00    +0.016 C 
ATOM     10  C   LIG    1       25.754 -20.878   8.689  0.00  0.00    +0.016 C 
BRANCH   8  12
ATOM     11  C   LIG    1       25.266 -20.367   4.822  0.00  0.00    +0.004 C 
ATOM     12  C   LIG    1       25.963 -20.547   6.169  0.00  0.00    +0.007 C 
ENDBRANCH   8  12
ENDBRANCH   2   8
ENDBRANCH   1   5
BRANCH   1  13
ATOM     13  C   LIG    1       25.536 -27.790   5.991  0.00  0.00    +0.004 C 
ATOM     14  C   LIG    1       26.318 -27.412   4.728  0.00  0.00    +0.009 C 
BRANCH  13  15
ATOM     15  C   LIG    1       25.205 -29.306   6.031  0.00  0.00    +0.088 C 
BRANCH  15  16
ATOM     16  N   LIG    1       24.502 -29.776   7.247  0.00  0.00    -0.297 NA
ATOM     17  C   LIG    1       24.118 -31.209   7.259  0.00  0.00    +0.115 C 
ATOM     18  C   LIG    1       25.305 -32.178   7.462  0.00  0.00    +0.130 C 
ATOM     19  C   LIG    1       24.847 -33.633   7.498  0.00  0.00    +0.039 C 
ATOM     20  O   LIG    1       25.969 -31.887   8.703  0.00  0.00    -0.371 OA
ATOM     21  C   LIG    1       26.453 -30.534   8.706  0.00  0.00    +0.130 C 
ATOM     22  C   LIG    1       27.128 -30.289  10.051  0.00  0.00    +0.039 C 
ATOM     23  C   LIG    1       25.303 -29.523   8.472  0.00  0.00    +0.115 C 
ENDBRANCH  15  16
ENDBRANCH  13  15
ENDBRANCH   1  13
TORSDOF 6
ENDMDL
MODEL 5
REMARK VINA RESULT:      -8.4      1.309      2.398
REMARK  Name = *****
REMARK                            x       y       z     vdW  Elec       q    Type
REMARK                         _______ _______ _______ _____ _____    ______ ____
ROOT
ATOM      1  C   LIG    1       24.421 -27.072   5.646  0.00  0.00    +0.039 C 
ENDROOT
BRANCH   1   5
ATOM      2  C   LIG    1       24.788 -22.871   6.821  0.00  0.00    -0.042 A 
ATOM      3  C   LIG    1       25.909 -23.644   6.460  0.00  0.00    +0.004 A 
ATOM      4  C   LIG    1       25.777 -24.989   6.093  0.00  0.00    +0.004 A 
ATOM      5  C   LIG    1       24.534 -25.618   6.052  0.00  0.00    -0.047 A 
ATOM      6  C   LIG    1       23.410 -24.870   6.428  0.00  0.00    +0.004 A 
ATOM      7  C   LIG    1       23.545 -23.525   6.812  0.00  0.00    +0.004 A 
BRANCH   2   8
ATOM      8  C   LIG    1       24.952 -21.396   7.269  0.00  0.00    -0.010 C 
ATOM      9  C   LIG    1       25.599 -21.288   8.673  0.00  0.00    +0.016 C 
ATOM     10  C   LIG    1       25.883 -20.612   6.312  0.00  0.00    +0.016 C 
BRANCH   8  12
ATOM     11  C   LIG    1       23.038 -20.181   5.967  0.00  0.00    +0.004 C 
ATOM     12  C   LIG    1       23.534 -20.750   7.295  0.00  0.00    +0.007 C 
ENDBRANCH   8  12
ENDBRANCH   2   8
ENDBRANCH   1   5
BRANCH   1  13
ATOM     13  C   LIG    1       24.755 -28.152   6.713  0.00  0.00    +0.004 C 
ATOM     14  C   LIG    1       25.906 -27.691   7.614  0.00  0.00    +0.009 C 
BRANCH  13  15
ATOM     15  C   LIG    1       25.026 -29.553   6.103  0.00  0.00    +0.088 C 
BRANCH  15  16
ATOM     16  N   LIG    1       24.836 -30.699   7.021  0.00  0.00    -0.297 NA
ATOM     17  C   LIG    1       23.845 -31.715   6.592  0.00  0.00    +0.115 C 
ATOM     18  C   LIG    1       24.324 -32.611   5.427  0.00  0.00    +0.130 C 
ATOM     19  C   LIG    1       23.277 -33.656   5.051  0.00  0.00    +0.039 C 
ATOM     20  O   LIG    1       25.528 -33.300   5.801  0.00  0.00    -0.371 OA
ATOM     21  C   LIG    1       26.562 -32.356   6.132  0.00  0.00    +0.130 C 
ATOM     22  C   LIG    1       27.800 -33.150   6.533  0.00  0.00    +0.039 C 
ATOM     23  C   LIG    1       26.116 -31.410   7.275  0.00  0.00    +0.115 C 
ENDBRANCH  15  16
ENDBRANCH  13  15
ENDBRANCH   1  13
TORSDOF 6
ENDMDL
MODEL 6
REMARK VINA RESULT:      -8.4      1.922      2.652
REMARK  Name = *****
REMARK                            x       y       z     vdW  Elec       q    Type
REMARK                         _______ _______ _______ _____ _____    ______ ____
ROOT
ATOM      1  C   LIG    1       24.256 -27.096   5.960  0.00  0.00    +0.039 C 
ENDROOT
BRANCH   1   5
ATOM      2  C   LIG    1       24.871 -22.876   6.950  0.00  0.00    -0.042 A 
ATOM      3  C   LIG    1       23.583 -23.419   6.768  0.00  0.00    +0.004 A 
ATOM      4  C   LIG    1       23.402 -24.770   6.445  0.00  0.00    +0.004 A 
ATOM      5  C   LIG    1       24.482 -25.639   6.305  0.00  0.00    -0.047 A 
ATOM      6  C   LIG    1       25.771 -25.113   6.461  0.00  0.00    +0.004 A 
ATOM      7  C   LIG    1       25.952 -23.753   6.769  0.00  0.00    +0.004 A 
BRANCH   2   8
ATOM      8  C   LIG    1       25.061 -21.370   7.262  0.00  0.00    -0.010 C 
ATOM      9  C   LIG    1       25.801 -21.148   8.606  0.00  0.00    +0.016 C 
ATOM     10  C   LIG    1       25.923 -20.671   6.183  0.00  0.00    +0.016 C 
BRANCH   8  12
ATOM     11  C   LIG    1       23.091 -20.199   6.005  0.00  0.00    +0.004 C 
ATOM     12  C   LIG    1       23.646 -20.719   7.330  0.00  0.00    +0.007 C 
ENDBRANCH   8  12
ENDBRANCH   2   8
ENDBRANCH   1   5
BRANCH   1  13
ATOM     13  C   LIG    1       25.268 -28.138   6.512  0.00  0.00    +0.004 C 
ATOM     14  C   LIG    1       25.504 -29.261   5.496  0.00  0.00    +0.009 C 
BRANCH  13  15
ATOM     15  C   LIG    1       24.875 -28.696   7.906  0.00  0.00    +0.088 C 
BRANCH  15  16
ATOM     16  N   LIG    1       25.868 -29.593   8.540  0.00  0.00    -0.297 NA
ATOM     17  C   LIG    1       26.764 -28.962   9.540  0.00  0.00    +0.115 C 
ATOM     18  C   LIG    1       26.074 -28.629  10.883  0.00  0.00    +0.130 C 
ATOM     19  C   LIG    1       27.049 -28.013  11.882  0.00  0.00    +0.039 C 
ATOM     20  O   LIG    1       25.532 -29.825  11.466  0.00  0.00    -0.371 OA
ATOM     21  C   LIG    1       24.577 -30.427  10.576  0.00  0.00    +0.130 C 
ATOM     22  C   LIG    1       24.056 -31.693  11.247  0.00  0.00    +0.039 C 
ATOM     23  C   LIG    1       25.213 -30.751   9.201  0.00  0.00    +0.115 C 
ENDBRANCH  15  16
ENDBRANCH  13  15
ENDBRANCH   1  13
TORSDOF 6
ENDMDL
MODEL 7
REMARK VINA RESULT:      -8.4      4.455      9.028
REMARK  Name = *****
REMARK                            x       y       z     vdW  Elec       q    Type
REMARK                         _______ _______ _______ _____ _____    ______ ____
ROOT
ATOM      1  C   LIG    1       24.722 -21.276   7.555  0.00  0.00    +0.039 C 
ENDROOT
BRANCH   1   5
ATOM      2  C   LIG    1       25.117 -25.505   6.493  0.00  0.00    -0.042 A 
ATOM      3  C   LIG    1       26.224 -24.730   6.890  0.00  0.00    +0.004 A 
ATOM      4  C   LIG    1       26.084 -23.376   7.221  0.00  0.00    +0.004 A 
ATOM      5  C   LIG    1       24.845 -22.740   7.187  0.00  0.00    -0.047 A 
ATOM      6  C   LIG    1       23.735 -23.489   6.773  0.00  0.00    +0.004 A 
ATOM      7  C   LIG    1       23.880 -24.844   6.426  0.00  0.00    +0.004 A 
BRANCH   2   8
ATOM      8  C   LIG    1       25.292 -26.990   6.085  0.00  0.00    -0.010 C 
ATOM      9  C   LIG    1       24.004 -27.570   5.449  0.00  0.00    +0.016 C 
ATOM     10  C   LIG    1       26.404 -27.159   5.021  0.00  0.00    +0.016 C 
BRANCH   8  12
ATOM     11  C   LIG    1       25.071 -29.206   7.454  0.00  0.00    +0.004 C 
ATOM     12  C   LIG    1       25.649 -27.794   7.372  0.00  0.00    +0.007 C 
ENDBRANCH   8  12
ENDBRANCH   2   8
ENDBRANCH   1   5
BRANCH   1  13
ATOM     13  C   LIG    1       25.870 -20.321   7.127  0.00  0.00    +0.004 C 
ATOM     14  C   LIG    1       26.144 -20.436   5.623  0.00  0.00    +0.009 C 
BRANCH  13  15
ATOM     15  C   LIG    1       27.164 -20.505   7.964  0.00  0.00    +0.088 C 
BRANCH  15  16
ATOM     16  N   LIG    1       28.435 -20.289   7.235  0.00  0.00    -0.297 NA
ATOM     17  C   LIG    1       29.097 -18.982   7.463  0.00  0.00    +0.115 C 
ATOM     18  C   LIG    1       29.766 -18.848   8.851  0.00  0.00    +0.130 C 
ATOM     19  C   LIG    1       30.458 -17.498   9.017  0.00  0.00    +0.039 C 
ATOM     20  O   LIG    1       30.752 -19.880   9.022  0.00  0.00    -0.371 OA
ATOM     21  C   LIG    1       30.143 -21.177   8.909  0.00  0.00    +0.130 C 
ATOM     22  C   LIG    1       31.242 -22.219   9.084  0.00  0.00    +0.039 C 
ATOM     23  C   LIG    1       29.428 -21.349   7.545  0.00  0.00    +0.115 C 
ENDBRANCH  15  16
ENDBRANCH  13  15
ENDBRANCH   1  13
TORSDOF 6
ENDMDL
MODEL 8
REMARK VINA RESULT:      -8.4      0.928      1.453
REMARK  Name = *****
REMARK                            x       y       z     vdW  Elec       q    Type
REMARK                         _______ _______ _______ _____ _____    ______ ____
ROOT
ATOM      1  C   LIG    1       24.603 -27.072   6.635  0.00  0.00    +0.039 C 
ENDROOT
BRANCH   1   5
ATOM      2  C   LIG    1       24.771 -22.699   6.758  0.00  0.00    -0.042 A 
ATOM      3  C   LIG    1       25.909 -23.494   6.990  0.00  0.00    +0.004 A 
ATOM      4  C   LIG    1       25.840 -24.893   6.955  0.00  0.00    +0.004 A 
ATOM      5  C   LIG    1       24.648 -25.559   6.672  0.00  0.00    -0.047 A 
ATOM      6  C   LIG    1       23.500 -24.784   6.460  0.00  0.00    +0.004 A 
ATOM      7  C   LIG    1       23.568 -23.381   6.512  0.00  0.00    +0.004 A 
BRANCH   2   8
ATOM      8  C   LIG    1       24.850 -21.153   6.845  0.00  0.00    -0.010 C 
ATOM      9  C   LIG    1       25.618 -20.685   8.108  0.00  0.00    +0.016 C 
ATOM     10  C   LIG    1       25.615 -20.556   5.639  0.00  0.00    +0.016 C 
BRANCH   8  12
ATOM     11  C   LIG    1       22.882 -19.976   5.592  0.00  0.00    +0.004 C 
ATOM     12  C   LIG    1       23.392 -20.606   6.887  0.00  0.00    +0.007 C 
ENDBRANCH   8  12
ENDBRANCH   2   8
ENDBRANCH   1   5
BRANCH   1  13
ATOM     13  C   LIG    1       25.511 -27.800   5.605  0.00  0.00    +0.004 C 
ATOM     14  C   LIG    1       25.698 -26.948   4.344  0.00  0.00    +0.009 C 
BRANCH  13  15
ATOM     15  C   LIG    1       25.023 -29.233   5.264  0.00  0.00    +0.088 C 
BRANCH  15  16
ATOM     16  N   LIG    1       25.770 -30.335   5.912  0.00  0.00    -0.297 NA
ATOM     17  C   LIG    1       25.168 -30.884   7.151  0.00  0.00    +0.115 C 
ATOM     18  C   LIG    1       23.914 -31.755   6.911  0.00  0.00    +0.130 C 
ATOM     19  C   LIG    1       23.357 -32.318   8.216  0.00  0.00    +0.039 C 
ATOM     20  O   LIG    1       24.241 -32.860   6.052  0.00  0.00    -0.371 OA
ATOM     21  C   LIG    1       24.738 -32.381   4.790  0.00  0.00    +0.130 C 
ATOM     22  C   LIG    1       25.079 -33.599   3.938  0.00  0.00    +0.039 C 
ATOM     23  C   LIG    1       25.979 -31.473   4.980  0.00  0.00    +0.115 C 
ENDBRANCH  15  16
ENDBRANCH  13  15
ENDBRANCH   1  13
TORSDOF 6
ENDMDL
MODEL 9
REMARK VINA RESULT:      -8.3      1.194      2.264
REMARK  Name = *****
REMARK                            x       y       z     vdW  Elec       q    Type
REMARK                         _______ _______ _______ _____ _____    ______ ____
ROOT
ATOM      1  C   LIG    1       24.213 -26.910   6.226  0.00  0.00    +0.039 C 
ENDROOT
BRANCH   1   5
ATOM      2  C   LIG    1       24.854 -22.642   6.963  0.00  0.00    -0.042 A 
ATOM      3  C   LIG    1       25.921 -23.562   6.938  0.00  0.00    +0.004 A 
ATOM      4  C   LIG    1       25.700 -24.926   6.708  0.00  0.00    +0.004 A 
ATOM      5  C   LIG    1       24.422 -25.431   6.478  0.00  0.00    -0.047 A 
ATOM      6  C   LIG    1       23.346 -24.534   6.520  0.00  0.00    +0.004 A 
ATOM      7  C   LIG    1       23.567 -23.168   6.767  0.00  0.00    +0.004 A 
BRANCH   2   8
ATOM      8  C   LIG    1       25.106 -21.143   7.264  0.00  0.00    -0.010 C 
ATOM      9  C   LIG    1       23.781 -20.346   7.380  0.00  0.00    +0.016 C 
ATOM     10  C   LIG    1       25.835 -20.950   8.616  0.00  0.00    +0.016 C 
BRANCH   8  12
ATOM     11  C   LIG    1       25.247 -20.406   4.760  0.00  0.00    +0.004 C 
ATOM     12  C   LIG    1       25.964 -20.564   6.099  0.00  0.00    +0.007 C 
ENDBRANCH   8  12
ENDBRANCH   2   8
ENDBRANCH   1   5
BRANCH   1  13
ATOM     13  C   LIG    1       25.473 -27.814   6.128  0.00  0.00    +0.004 C 
ATOM     14  C   LIG    1       25.969 -27.905   4.681  0.00  0.00    +0.009 C 
BRANCH  13  15
ATOM     15  C   LIG    1       25.269 -29.219   6.757  0.00  0.00    +0.088 C 
BRANCH  15  16
ATOM     16  N   LIG    1       24.976 -30.311   5.801  0.00  0.00    -0.297 NA
ATOM     17  C   LIG    1       26.109 -31.211   5.479  0.00  0.00    +0.115 C 
ATOM     18  C   LIG    1       26.484 -32.187   6.619  0.00  0.00    +0.130 C 
ATOM     19  C   LIG    1       27.633 -33.108   6.220  0.00  0.00    +0.039 C 
ATOM     20  O   LIG    1       25.352 -33.005   6.956  0.00  0.00    -0.371 OA
ATOM     21  C   LIG    1       24.248 -32.184   7.374  0.00  0.00    +0.130 C 
ATOM     22  C   LIG    1       23.082 -33.111   7.699  0.00  0.00    +0.039 C 
ATOM     23  C   LIG    1       23.855 -31.164   6.276  0.00  0.00    +0.115 C 
ENDBRANCH  15  16
ENDBRANCH  13  15
ENDBRANCH   1  13
TORSDOF 6
ENDMDL
