MODEL 1
REMARK VINA RESULT:      -8.1      0.000      0.000
REMARK  Name = *****
REMARK                            x       y       z     vdW  Elec       q    Type
REMARK                         _______ _______ _______ _____ _____    ______ ____
ROOT
ATOM      1  C   LIG    1       25.975 -21.451   6.664  0.00  0.00    +0.072 C 
ATOM      2  C   LIG    1       25.991 -20.693   5.317  0.00  0.00    +0.230 C 
ATOM      3  O   LIG    1       25.034 -20.651   4.542  0.00  0.00    -0.274 OA
ATOM      4  N   LIG    1       27.111 -19.952   5.020  0.00  0.00    -0.256 N 
ATOM      5  H   LIG    1       27.067 -19.433   4.153  0.00  0.00    +0.158 HD
ATOM      6  C   LIG    1       28.232 -19.738   5.778  0.00  0.00    +0.219 C 
ATOM      7  O   LIG    1       29.091 -18.936   5.426  0.00  0.00    -0.275 OA
ATOM      8  C   LIG    1       28.306 -20.472   7.090  0.00  0.00    +0.097 C 
ATOM      9  C   LIG    1       27.449 -21.729   7.073  0.00  0.00    +0.030 C 
ENDROOT
BRANCH   1  10
ATOM     10  C   LIG    1       25.296 -22.838   6.582  0.00  0.00    -0.032 A 
ATOM     11  C   LIG    1       23.898 -22.975   6.691  0.00  0.00    +0.005 A 
ATOM     12  C   LIG    1       23.279 -24.226   6.622  0.00  0.00    +0.000 A 
ATOM     13  C   LIG    1       24.045 -25.376   6.473  0.00  0.00    +0.000 A 
ATOM     14  C   LIG    1       25.430 -25.274   6.404  0.00  0.00    +0.000 A 
ATOM     15  C   LIG    1       26.049 -24.021   6.464  0.00  0.00    +0.005 A 
ENDBRANCH   1  10
BRANCH   1  17
ATOM     16  C   LIG    1       25.707 -20.721   9.157  0.00  0.00    +0.005 C 
ATOM     17  C   LIG    1       25.299 -20.495   7.701  0.00  0.00    +0.017 C 
ENDBRANCH   1  17
TORSDOF 2
ENDMDL
MODEL 2
REMARK VINA RESULT:      -7.9      2.669      3.530
REMARK  Name = *****
REMARK                            x       y       z     vdW  Elec       q    Type
REMARK                         _______ _______ _______ _____ _____    ______ ____
ROOT
ATOM      1  C   LIG    1       24.736 -21.376   5.873  0.00  0.00    +0.072 C 
ATOM      2  C   LIG    1       23.394 -21.006   6.548  0.00  0.00    +0.230 C 
ATOM      3  O   LIG    1       23.021 -21.463   7.628  0.00  0.00    -0.274 OA
ATOM      4  N   LIG    1       22.626 -20.039   5.942  0.00  0.00    -0.256 N 
ATOM      5  H   LIG    1       21.779 -19.790   6.435  0.00  0.00    +0.158 HD
ATOM      6  C   LIG    1       22.893 -19.298   4.821  0.00  0.00    +0.219 C 
ATOM      7  O   LIG    1       22.162 -18.373   4.484  0.00  0.00    -0.275 OA
ATOM      8  C   LIG    1       24.166 -19.626   4.087  0.00  0.00    +0.097 C 
ATOM      9  C   LIG    1       24.610 -21.056   4.357  0.00  0.00    +0.030 C 
ENDROOT
BRANCH   1  10
ATOM     10  C   LIG    1       25.070 -22.884   5.955  0.00  0.00    -0.032 A 
ATOM     11  C   LIG    1       24.774 -23.758   4.891  0.00  0.00    +0.005 A 
ATOM     12  C   LIG    1       25.069 -25.121   4.961  0.00  0.00    +0.000 A 
ATOM     13  C   LIG    1       25.640 -25.653   6.111  0.00  0.00    +0.000 A 
ATOM     14  C   LIG    1       25.905 -24.821   7.193  0.00  0.00    +0.000 A 
ATOM     15  C   LIG    1       25.618 -23.454   7.120  0.00  0.00    +0.005 A 
ENDBRANCH   1  10
BRANCH   1  17
ATOM     16  C   LIG    1       27.138 -20.360   5.750  0.00  0.00    +0.005 C 
ATOM     17  C   LIG    1       25.826 -20.466   6.528  0.00  0.00    +0.017 C 
ENDBRANCH   1  17
TORSDOF 2
ENDMDL
MODEL 3
REMARK VINA RESULT:      -7.8      2.733      3.678
REMARK  Name = *****
REMARK                            x       y       z     vdW  Elec       q    Type
REMARK                         _______ _______ _______ _____ _____    ______ ____
ROOT
ATOM      1  C   LIG    1       24.589 -23.061   6.368  0.00  0.00    +0.072 C 
ATOM      2  C   LIG    1       23.044 -22.989   6.395  0.00  0.00    +0.230 C 
ATOM      3  O   LIG    1       22.326 -23.851   6.903  0.00  0.00    -0.274 OA
ATOM      4  N   LIG    1       22.454 -21.849   5.902  0.00  0.00    -0.256 N 
ATOM      5  H   LIG    1       21.446 -21.817   5.978  0.00  0.00    +0.158 HD
ATOM      6  C   LIG    1       23.043 -20.711   5.417  0.00  0.00    +0.219 C 
ATOM      7  O   LIG    1       22.375 -19.720   5.139  0.00  0.00    -0.275 OA
ATOM      8  C   LIG    1       24.547 -20.719   5.325  0.00  0.00    +0.097 C 
ATOM      9  C   LIG    1       25.089 -22.137   5.223  0.00  0.00    +0.030 C 
ENDROOT
BRANCH   1  10
ATOM     10  C   LIG    1       25.133 -24.470   6.035  0.00  0.00    -0.032 A 
ATOM     11  C   LIG    1       25.014 -25.013   4.740  0.00  0.00    +0.005 A 
ATOM     12  C   LIG    1       25.499 -26.287   4.435  0.00  0.00    +0.000 A 
ATOM     13  C   LIG    1       26.088 -27.065   5.424  0.00  0.00    +0.000 A 
ATOM     14  C   LIG    1       26.181 -26.572   6.721  0.00  0.00    +0.000 A 
ATOM     15  C   LIG    1       25.704 -25.292   7.026  0.00  0.00    +0.005 A 
ENDBRANCH   1  10
BRANCH   1  17
ATOM     16  C   LIG    1       26.544 -22.083   7.795  0.00  0.00    +0.005 C 
ATOM     17  C   LIG    1       25.080 -22.522   7.751  0.00  0.00    +0.017 C 
ENDBRANCH   1  17
TORSDOF 2
ENDMDL
MODEL 4
REMARK VINA RESULT:      -7.7      2.313      3.678
REMARK  Name = *****
REMARK                            x       y       z     vdW  Elec       q    Type
REMARK                         _______ _______ _______ _____ _____    ______ ____
ROOT
ATOM      1  C   LIG    1       26.362 -21.048   6.743  0.00  0.00    +0.072 C 
ATOM      2  C   LIG    1       26.458 -20.451   8.167  0.00  0.00    +0.230 C 
ATOM      3  O   LIG    1       25.508 -20.385   8.948  0.00  0.00    -0.274 OA
ATOM      4  N   LIG    1       27.701 -20.061   8.608  0.00  0.00    -0.256 N 
ATOM      5  H   LIG    1       27.733 -19.719   9.559  0.00  0.00    +0.158 HD
ATOM      6  C   LIG    1       28.914 -20.164   7.979  0.00  0.00    +0.219 C 
ATOM      7  O   LIG    1       29.956 -19.893   8.564  0.00  0.00    -0.275 OA
ATOM      8  C   LIG    1       28.897 -20.702   6.572  0.00  0.00    +0.097 C 
ATOM      9  C   LIG    1       27.546 -20.483   5.909  0.00  0.00    +0.030 C 
ENDROOT
BRANCH   1  10
ATOM     10  C   LIG    1       25.080 -20.629   5.986  0.00  0.00    -0.032 A 
ATOM     11  C   LIG    1       25.136 -20.159   4.659  0.00  0.00    +0.005 A 
ATOM     12  C   LIG    1       23.982 -19.774   3.971  0.00  0.00    +0.000 A 
ATOM     13  C   LIG    1       22.745 -19.820   4.604  0.00  0.00    +0.000 A 
ATOM     14  C   LIG    1       22.665 -20.241   5.926  0.00  0.00    +0.000 A 
ATOM     15  C   LIG    1       23.820 -20.635   6.613  0.00  0.00    +0.005 A 
ENDBRANCH   1  10
BRANCH   1  17
ATOM     16  C   LIG    1       25.385 -23.422   6.270  0.00  0.00    +0.005 C 
ATOM     17  C   LIG    1       26.505 -22.597   6.902  0.00  0.00    +0.017 C 
ENDBRANCH   1  17
TORSDOF 2
ENDMDL
MODEL 5
REMARK VINA RESULT:      -7.6      3.322      5.030
REMARK  Name = *****
REMARK                            x       y       z     vdW  Elec       q    Type
REMARK                         _______ _______ _______ _____ _____    ______ ____
ROOT
ATOM      1  C   LIG    1       29.572 -19.802   7.866  0.00  0.00    +0.072 C 
ATOM      2  C   LIG    1       30.689 -20.554   8.627  0.00  0.00    +0.230 C 
ATOM      3  O   LIG    1       30.876 -21.769   8.544  0.00  0.00    -0.274 OA
ATOM      4  N   LIG    1       31.574 -19.801   9.362  0.00  0.00    -0.256 N 
ATOM      5  H   LIG    1       32.317 -20.322   9.807  0.00  0.00    +0.158 HD
ATOM      6  C   LIG    1       31.650 -18.439   9.493  0.00  0.00    +0.219 C 
ATOM      7  O   LIG    1       32.588 -17.911  10.081  0.00  0.00    -0.275 OA
ATOM      8  C   LIG    1       30.573 -17.638   8.810  0.00  0.00    +0.097 C 
ATOM      9  C   LIG    1       29.310 -18.462   8.610  0.00  0.00    +0.030 C 
ENDROOT
BRANCH   1  10
ATOM     10  C   LIG    1       28.218 -20.549   7.864  0.00  0.00    -0.032 A 
ATOM     11  C   LIG    1       28.031 -21.719   7.100  0.00  0.00    +0.005 A 
ATOM     12  C   LIG    1       26.809 -22.396   7.090  0.00  0.00    +0.000 A 
ATOM     13  C   LIG    1       25.732 -21.904   7.818  0.00  0.00    +0.000 A 
ATOM     14  C   LIG    1       25.876 -20.729   8.547  0.00  0.00    +0.000 A 
ATOM     15  C   LIG    1       27.103 -20.055   8.566  0.00  0.00    +0.005 A 
ENDBRANCH   1  10
BRANCH   1  17
ATOM     16  C   LIG    1       29.283 -18.570   5.582  0.00  0.00    +0.005 C 
ATOM     17  C   LIG    1       30.125 -19.523   6.430  0.00  0.00    +0.017 C 
ENDBRANCH   1  17
TORSDOF 2
ENDMDL
MODEL 6
REMARK VINA RESULT:      -7.3      2.686      4.613
REMARK  Name = *****
REMARK                            x       y       z     vdW  Elec       q    Type
REMARK                         _______ _______ _______ _____ _____    ______ ____
ROOT
ATOM      1  C   LIG    1       24.445 -21.687   6.499  0.00  0.00    +0.072 C 
ATOM      2  C   LIG    1       25.940 -22.058   6.370  0.00  0.00    +0.230 C 
ATOM      3  O   LIG    1       26.845 -21.231   6.257  0.00  0.00    -0.274 OA
ATOM      4  N   LIG    1       26.275 -23.388   6.485  0.00  0.00    -0.256 N 
ATOM      5  H   LIG    1       27.266 -23.588   6.442  0.00  0.00    +0.158 HD
ATOM      6  C   LIG    1       25.468 -24.463   6.748  0.00  0.00    +0.219 C 
ATOM      7  O   LIG    1       25.942 -25.575   6.954  0.00  0.00    -0.275 OA
ATOM      8  C   LIG    1       23.991 -24.186   6.850  0.00  0.00    +0.097 C 
ATOM      9  C   LIG    1       23.608 -22.929   6.083  0.00  0.00    +0.030 C 
ENDROOT
BRANCH   1  10
ATOM     10  C   LIG    1       24.010 -20.551   5.543  0.00  0.00    -0.032 A 
ATOM     11  C   LIG    1       22.757 -19.921   5.679  0.00  0.00    +0.005 A 
ATOM     12  C   LIG    1       22.356 -18.898   4.817  0.00  0.00    +0.000 A 
ATOM     13  C   LIG    1       23.184 -18.500   3.774  0.00  0.00    +0.000 A 
ATOM     14  C   LIG    1       24.409 -19.132   3.590  0.00  0.00    +0.000 A 
ATOM     15  C   LIG    1       24.815 -20.151   4.460  0.00  0.00    +0.005 A 
ENDBRANCH   1  10
BRANCH   1  17
ATOM     16  C   LIG    1       25.395 -20.739   8.739  0.00  0.00    +0.005 C 
ATOM     17  C   LIG    1       24.200 -21.351   8.006  0.00  0.00    +0.017 C 
ENDBRANCH   1  17
TORSDOF 2
ENDMDL
MODEL 7
REMARK VINA RESULT:      -7.1      2.433      4.814
REMARK  Name = *****
REMARK                            x       y       z     vdW  Elec       q    Type
REMARK                         _______ _______ _______ _____ _____    ______ ____
ROOT
ATOM      1  C   LIG    1       24.712 -20.462   5.182  0.00  0.00    +0.072 C 
ATOM      2  C   LIG    1       24.690 -19.330   4.129  0.00  0.00    +0.230 C 
ATOM      3  O   LIG    1       25.677 -18.975   3.483  0.00  0.00    -0.274 OA
ATOM      4  N   LIG    1       23.474 -18.756   3.840  0.00  0.00    -0.256 N 
ATOM      5  H   LIG    1       23.491 -18.052   3.115  0.00  0.00    +0.158 HD
ATOM      6  C   LIG    1       22.232 -19.073   4.324  0.00  0.00    +0.219 C 
ATOM      7  O   LIG    1       21.221 -18.553   3.862  0.00  0.00    -0.275 OA
ATOM      8  C   LIG    1       22.175 -20.143   5.382  0.00  0.00    +0.097 C 
ATOM      9  C   LIG    1       23.496 -20.256   6.128  0.00  0.00    +0.030 C 
ENDROOT
BRANCH   1  10
ATOM     10  C   LIG    1       25.961 -20.431   6.094  0.00  0.00    -0.032 A 
ATOM     11  C   LIG    1       25.846 -20.537   7.494  0.00  0.00    +0.005 A 
ATOM     12  C   LIG    1       26.970 -20.504   8.323  0.00  0.00    +0.000 A 
ATOM     13  C   LIG    1       28.236 -20.333   7.776  0.00  0.00    +0.000 A 
ATOM     14  C   LIG    1       28.375 -20.185   6.401  0.00  0.00    +0.000 A 
ATOM     15  C   LIG    1       27.251 -20.226   5.569  0.00  0.00    +0.005 A 
ENDBRANCH   1  10
BRANCH   1  17
ATOM     16  C   LIG    1       24.763 -23.073   5.219  0.00  0.00    +0.005 C 
ATOM     17  C   LIG    1       24.559 -21.804   4.392  0.00  0.00    +0.017 C 
ENDBRANCH   1  17
TORSDOF 2
ENDMDL
MODEL 8
REMARK VINA RESULT:      -7.0      3.297      6.793
REMARK  Name = *****
REMARK                            x       y       z     vdW  Elec       q    Type
REMARK                         _______ _______ _______ _____ _____    ______ ____
ROOT
ATOM      1  C   LIG    1       29.666 -19.539   7.734  0.00  0.00    +0.072 C 
ATOM      2  C   LIG    1       29.464 -19.058   6.279  0.00  0.00    +0.230 C 
ATOM      3  O   LIG    1       30.322 -18.459   5.629  0.00  0.00    -0.274 OA
ATOM      4  N   LIG    1       28.289 -19.406   5.654  0.00  0.00    -0.256 N 
ATOM      5  H   LIG    1       28.211 -19.113   4.689  0.00  0.00    +0.158 HD
ATOM      6  C   LIG    1       27.256 -20.175   6.121  0.00  0.00    +0.219 C 
ATOM      7  O   LIG    1       26.332 -20.508   5.387  0.00  0.00    -0.275 OA
ATOM      8  C   LIG    1       27.364 -20.651   7.546  0.00  0.00    +0.097 C 
ATOM      9  C   LIG    1       28.262 -19.741   8.369  0.00  0.00    +0.030 C 
ENDROOT
BRANCH   1  10
ATOM     10  C   LIG    1       30.385 -18.503   8.630  0.00  0.00    -0.032 A 
ATOM     11  C   LIG    1       31.707 -18.097   8.362  0.00  0.00    +0.005 A 
ATOM     12  C   LIG    1       32.363 -17.165   9.170  0.00  0.00    +0.000 A 
ATOM     13  C   LIG    1       31.725 -16.639  10.287  0.00  0.00    +0.000 A 
ATOM     14  C   LIG    1       30.435 -17.052  10.599  0.00  0.00    +0.000 A 
ATOM     15  C   LIG    1       29.774 -17.979   9.785  0.00  0.00    +0.005 A 
ENDBRANCH   1  10
BRANCH   1  17
ATOM     16  C   LIG    1       30.759 -21.549   8.992  0.00  0.00    +0.005 C 
ATOM     17  C   LIG    1       30.420 -20.907   7.647  0.00  0.00    +0.017 C 
ENDBRANCH   1  17
TORSDOF 2
ENDMDL
MODEL 9
REMARK VINA RESULT:      -7.0      2.362      5.021
REMARK  Name = *****
REMARK                            x       y       z     vdW  Elec       q    Type
REMARK                         _______ _______ _______ _____ _____    ______ ____
ROOT
ATOM      1  C   LIG    1       25.541 -21.512   6.203  0.00  0.00    +0.072 C 
ATOM      2  C   LIG    1       24.487 -21.334   7.319  0.00  0.00    +0.230 C 
ATOM      3  O   LIG    1       24.393 -20.325   8.019  0.00  0.00    -0.274 OA
ATOM      4  N   LIG    1       23.547 -22.327   7.468  0.00  0.00    -0.256 N 
ATOM      5  H   LIG    1       22.846 -22.154   8.176  0.00  0.00    +0.158 HD
ATOM      6  C   LIG    1       23.367 -23.465   6.727  0.00  0.00    +0.219 C 
ATOM      7  O   LIG    1       22.391 -24.188   6.903  0.00  0.00    -0.275 OA
ATOM      8  C   LIG    1       24.378 -23.728   5.643  0.00  0.00    +0.097 C 
ATOM      9  C   LIG    1       25.701 -23.036   5.937  0.00  0.00    +0.030 C 
ENDROOT
BRANCH   1  10
ATOM     10  C   LIG    1       26.949 -21.009   6.600  0.00  0.00    -0.032 A 
ATOM     11  C   LIG    1       27.583 -19.973   5.886  0.00  0.00    +0.005 A 
ATOM     12  C   LIG    1       28.856 -19.516   6.237  0.00  0.00    +0.000 A 
ATOM     13  C   LIG    1       29.541 -20.106   7.292  0.00  0.00    +0.000 A 
ATOM     14  C   LIG    1       28.957 -21.158   7.988  0.00  0.00    +0.000 A 
ATOM     15  C   LIG    1       27.679 -21.609   7.643  0.00  0.00    +0.005 A 
ENDBRANCH   1  10
BRANCH   1  17
ATOM     16  C   LIG    1       23.611 -20.122   5.127  0.00  0.00    +0.005 C 
ATOM     17  C   LIG    1       24.967 -20.800   4.934  0.00  0.00    +0.017 C 
ENDBRANCH   1  17
TORSDOF 2
ENDMDL
