MODEL 1
REMARK VINA RESULT:      -7.4      0.000      0.000
REMARK  Name = *****
REMARK                            x       y       z     vdW  Elec       q    Type
REMARK                         _______ _______ _______ _____ _____    ______ ____
ROOT
ATOM      1  C   LIG    1       24.784 -20.850   5.911  0.00  0.00    +0.123 C 
ATOM      2  C   LIG    1       25.538 -20.652   7.218  0.00  0.00    +0.235 C 
ATOM      3  O   LIG    1       24.994 -20.585   8.319  0.00  0.00    -0.274 OA
ATOM      4  N   LIG    1       26.900 -20.619   7.128  0.00  0.00    -0.239 N 
ATOM      5  H   LIG    1       27.391 -20.507   8.005  0.00  0.00    +0.159 HD
ATOM      6  C   LIG    1       27.573 -20.159   6.040  0.00  0.00    +0.312 C 
ATOM      7  O   LIG    1       28.722 -19.742   6.127  0.00  0.00    -0.252 OA
ATOM      8  N   LIG    1       26.881 -20.095   4.872  0.00  0.00    -0.239 N 
ATOM      9  H   LIG    1       27.363 -19.652   4.102  0.00  0.00    +0.159 HD
ATOM     10  C   LIG    1       25.521 -20.182   4.755  0.00  0.00    +0.235 C 
ATOM     11  O   LIG    1       24.971 -19.802   3.723  0.00  0.00    -0.274 OA
ENDROOT
BRANCH   1  12
ATOM     12  C   LIG    1       23.341 -20.296   6.012  0.00  0.00    +0.022 C 
ATOM     13  C   LIG    1       22.304 -21.081   5.206  0.00  0.00    +0.005 C 
ENDBRANCH   1  12
BRANCH   1  14
ATOM     14  C   LIG    1       24.782 -22.375   5.574  0.00  0.00    +0.025 C 
BRANCH  14  15
ATOM     15  C   LIG    1       24.716 -23.331   6.777  0.00  0.00    +0.001 C 
BRANCH  15  17
ATOM     16  C   LIG    1       24.131 -25.701   6.108  0.00  0.00    +0.004 C 
ATOM     17  C   LIG    1       23.597 -24.364   6.600  0.00  0.00    -0.003 C 
ENDBRANCH  15  17
ENDBRANCH  14  15
ENDBRANCH   1  14
TORSDOF 4
ENDMDL
MODEL 2
REMARK VINA RESULT:      -7.1      1.388      1.645
REMARK  Name = *****
REMARK                            x       y       z     vdW  Elec       q    Type
REMARK                         _______ _______ _______ _____ _____    ______ ____
ROOT
ATOM      1  C   LIG    1       24.301 -21.511   6.009  0.00  0.00    +0.123 C 
ATOM      2  C   LIG    1       24.090 -21.336   7.506  0.00  0.00    +0.235 C 
ATOM      3  O   LIG    1       22.990 -21.387   8.053  0.00  0.00    -0.274 OA
ATOM      4  N   LIG    1       25.219 -21.181   8.258  0.00  0.00    -0.239 N 
ATOM      5  H   LIG    1       25.068 -21.086   9.254  0.00  0.00    +0.159 HD
ATOM      6  C   LIG    1       26.358 -20.597   7.801  0.00  0.00    +0.312 C 
ATOM      7  O   LIG    1       27.170 -20.091   8.565  0.00  0.00    -0.252 OA
ATOM      8  N   LIG    1       26.506 -20.515   6.452  0.00  0.00    -0.239 N 
ATOM      9  H   LIG    1       27.304 -19.984   6.131  0.00  0.00    +0.159 HD
ATOM     10  C   LIG    1       25.510 -20.709   5.535  0.00  0.00    +0.235 C 
ATOM     11  O   LIG    1       25.655 -20.311   4.381  0.00  0.00    -0.274 OA
ENDROOT
BRANCH   1  12
ATOM     12  C   LIG    1       23.040 -21.089   5.216  0.00  0.00    +0.022 C 
ATOM     13  C   LIG    1       22.668 -19.611   5.356  0.00  0.00    +0.005 C 
ENDBRANCH   1  12
BRANCH   1  14
ATOM     14  C   LIG    1       24.665 -23.005   5.738  0.00  0.00    +0.025 C 
BRANCH  14  15
ATOM     15  C   LIG    1       23.815 -24.051   6.479  0.00  0.00    +0.001 C 
BRANCH  15  17
ATOM     16  C   LIG    1       25.138 -25.497   4.876  0.00  0.00    +0.004 C 
ATOM     17  C   LIG    1       24.244 -25.475   6.108  0.00  0.00    -0.003 C 
ENDBRANCH  15  17
ENDBRANCH  14  15
ENDBRANCH   1  14
TORSDOF 4
ENDMDL
MODEL 3
REMARK VINA RESULT:      -7.1      1.429      3.673
REMARK  Name = *****
REMARK                            x       y       z     vdW  Elec       q    Type
REMARK                         _______ _______ _______ _____ _____    ______ ____
ROOT
ATOM      1  C   LIG    1       24.478 -21.739   6.804  0.00  0.00    +0.123 C 
ATOM      2  C   LIG    1       25.088 -21.785   5.410  0.00  0.00    +0.235 C 
ATOM      3  O   LIG    1       24.755 -22.589   4.543  0.00  0.00    -0.274 OA
ATOM      4  N   LIG    1       26.009 -20.817   5.126  0.00  0.00    -0.239 N 
ATOM      5  H   LIG    1       26.394 -20.845   4.191  0.00  0.00    +0.159 HD
ATOM      6  C   LIG    1       26.824 -20.253   6.056  0.00  0.00    +0.312 C 
ATOM      7  O   LIG    1       27.890 -19.735   5.744  0.00  0.00    -0.252 OA
ATOM      8  N   LIG    1       26.448 -20.375   7.356  0.00  0.00    -0.239 N 
ATOM      9  H   LIG    1       27.117 -20.045   8.038  0.00  0.00    +0.159 HD
ATOM     10  C   LIG    1       25.494 -21.236   7.824  0.00  0.00    +0.235 C 
ATOM     11  O   LIG    1       25.445 -21.501   9.024  0.00  0.00    -0.274 OA
ENDROOT
BRANCH   1  12
ATOM     12  C   LIG    1       23.947 -23.132   7.225  0.00  0.00    +0.022 C 
ATOM     13  C   LIG    1       22.509 -23.420   6.788  0.00  0.00    +0.005 C 
ENDBRANCH   1  12
BRANCH   1  14
ATOM     14  C   LIG    1       23.334 -20.675   6.801  0.00  0.00    +0.025 C 
BRANCH  14  15
ATOM     15  C   LIG    1       22.534 -20.549   5.493  0.00  0.00    +0.001 C 
BRANCH  15  17
ATOM     16  C   LIG    1       23.350 -18.828   3.825  0.00  0.00    +0.004 C 
ATOM     17  C   LIG    1       22.459 -19.089   5.031  0.00  0.00    -0.003 C 
ENDBRANCH  15  17
ENDBRANCH  14  15
ENDBRANCH   1  14
TORSDOF 4
ENDMDL
MODEL 4
REMARK VINA RESULT:      -7.0      1.822      3.947
REMARK  Name = *****
REMARK                            x       y       z     vdW  Elec       q    Type
REMARK                         _______ _______ _______ _____ _____    ______ ____
ROOT
ATOM      1  C   LIG    1       26.668 -20.899   7.207  0.00  0.00    +0.123 C 
ATOM      2  C   LIG    1       26.203 -20.386   5.852  0.00  0.00    +0.235 C 
ATOM      3  O   LIG    1       26.953 -19.892   5.013  0.00  0.00    -0.274 OA
ATOM      4  N   LIG    1       24.880 -20.562   5.565  0.00  0.00    -0.239 N 
ATOM      5  H   LIG    1       24.586 -20.235   4.654  0.00  0.00    +0.159 HD
ATOM      6  C   LIG    1       23.898 -20.575   6.504  0.00  0.00    +0.312 C 
ATOM      7  O   LIG    1       22.736 -20.307   6.221  0.00  0.00    -0.252 OA
ATOM      8  N   LIG    1       24.280 -20.806   7.788  0.00  0.00    -0.239 N 
ATOM      9  H   LIG    1       23.555 -20.707   8.485  0.00  0.00    +0.159 HD
ATOM     10  C   LIG    1       25.566 -20.748   8.251  0.00  0.00    +0.235 C 
ATOM     11  O   LIG    1       25.777 -20.659   9.459  0.00  0.00    -0.274 OA
ENDROOT
BRANCH   1  12
ATOM     12  C   LIG    1       27.946 -20.160   7.674  0.00  0.00    +0.022 C 
ATOM     13  C   LIG    1       29.210 -21.023   7.683  0.00  0.00    +0.005 C 
ENDBRANCH   1  12
BRANCH   1  14
ATOM     14  C   LIG    1       26.916 -22.437   7.088  0.00  0.00    +0.025 C 
BRANCH  14  15
ATOM     15  C   LIG    1       25.806 -23.344   7.644  0.00  0.00    +0.001 C 
BRANCH  15  17
ATOM     16  C   LIG    1       23.703 -24.299   6.608  0.00  0.00    +0.004 C 
ATOM     17  C   LIG    1       25.222 -24.238   6.545  0.00  0.00    -0.003 C 
ENDBRANCH  15  17
ENDBRANCH  14  15
ENDBRANCH   1  14
TORSDOF 4
ENDMDL
MODEL 5
REMARK VINA RESULT:      -6.8      1.859      3.491
REMARK  Name = *****
REMARK                            x       y       z     vdW  Elec       q    Type
REMARK                         _______ _______ _______ _____ _____    ______ ____
ROOT
ATOM      1  C   LIG    1       25.018 -21.615   6.430  0.00  0.00    +0.123 C 
ATOM      2  C   LIG    1       25.492 -20.530   5.474  0.00  0.00    +0.235 C 
ATOM      3  O   LIG    1       26.666 -20.183   5.359  0.00  0.00    -0.274 OA
ATOM      4  N   LIG    1       24.537 -19.979   4.669  0.00  0.00    -0.239 N 
ATOM      5  H   LIG    1       24.866 -19.273   4.024  0.00  0.00    +0.159 HD
ATOM      6  C   LIG    1       23.230 -19.856   5.022  0.00  0.00    +0.312 C 
ATOM      7  O   LIG    1       22.504 -19.013   4.509  0.00  0.00    -0.252 OA
ATOM      8  N   LIG    1       22.792 -20.647   6.038  0.00  0.00    -0.239 N 
ATOM      9  H   LIG    1       21.850 -20.466   6.357  0.00  0.00    +0.159 HD
ATOM     10  C   LIG    1       23.595 -21.336   6.904  0.00  0.00    +0.235 C 
ATOM     11  O   LIG    1       23.133 -21.758   7.962  0.00  0.00    -0.274 OA
ENDROOT
BRANCH   1  12
ATOM     12  C   LIG    1       25.968 -21.738   7.647  0.00  0.00    +0.022 C 
ATOM     13  C   LIG    1       26.009 -20.501   8.547  0.00  0.00    +0.005 C 
ENDBRANCH   1  12
BRANCH   1  14
ATOM     14  C   LIG    1       24.935 -22.959   5.640  0.00  0.00    +0.025 C 
BRANCH  14  15
ATOM     15  C   LIG    1       25.152 -24.240   6.463  0.00  0.00    +0.001 C 
BRANCH  15  17
ATOM     16  C   LIG    1       24.319 -26.515   5.730  0.00  0.00    +0.004 C 
ATOM     17  C   LIG    1       23.945 -25.178   6.353  0.00  0.00    -0.003 C 
ENDBRANCH  15  17
ENDBRANCH  14  15
ENDBRANCH   1  14
TORSDOF 4
ENDMDL
MODEL 6
REMARK VINA RESULT:      -6.6      2.732      4.356
REMARK  Name = *****
REMARK                            x       y       z     vdW  Elec       q    Type
REMARK                         _______ _______ _______ _____ _____    ______ ____
ROOT
ATOM      1  C   LIG    1       23.876 -22.138   6.534  0.00  0.00    +0.123 C 
ATOM      2  C   LIG    1       24.890 -22.217   5.403  0.00  0.00    +0.235 C 
ATOM      3  O   LIG    1       25.279 -21.243   4.762  0.00  0.00    -0.274 OA
ATOM      4  N   LIG    1       25.424 -23.451   5.160  0.00  0.00    -0.239 N 
ATOM      5  H   LIG    1       26.112 -23.488   4.419  0.00  0.00    +0.159 HD
ATOM      6  C   LIG    1       24.760 -24.617   5.374  0.00  0.00    +0.312 C 
ATOM      7  O   LIG    1       25.060 -25.643   4.776  0.00  0.00    -0.252 OA
ATOM      8  N   LIG    1       23.689 -24.569   6.210  0.00  0.00    -0.239 N 
ATOM      9  H   LIG    1       23.145 -25.418   6.273  0.00  0.00    +0.159 HD
ATOM     10  C   LIG    1       23.063 -23.426   6.624  0.00  0.00    +0.235 C 
ATOM     11  O   LIG    1       21.935 -23.488   7.110  0.00  0.00    -0.274 OA
ENDROOT
BRANCH   1  12
ATOM     12  C   LIG    1       22.930 -20.925   6.350  0.00  0.00    +0.022 C 
ATOM     13  C   LIG    1       22.200 -20.890   5.006  0.00  0.00    +0.005 C 
ENDBRANCH   1  12
BRANCH   1  14
ATOM     14  C   LIG    1       24.656 -22.047   7.884  0.00  0.00    +0.025 C 
BRANCH  14  15
ATOM     15  C   LIG    1       25.434 -20.743   8.126  0.00  0.00    +0.001 C 
BRANCH  15  17
ATOM     16  C   LIG    1       27.722 -20.278   7.147  0.00  0.00    +0.004 C 
ATOM     17  C   LIG    1       26.940 -21.009   8.228  0.00  0.00    -0.003 C 
ENDBRANCH  15  17
ENDBRANCH  14  15
ENDBRANCH   1  14
TORSDOF 4
ENDMDL
MODEL 7
REMARK VINA RESULT:      -6.6      3.044      4.737
REMARK  Name = *****
REMARK                            x       y       z     vdW  Elec       q    Type
REMARK                         _______ _______ _______ _____ _____    ______ ____
ROOT
ATOM      1  C   LIG    1       24.459 -22.808   6.565  0.00  0.00    +0.123 C 
ATOM      2  C   LIG    1       23.425 -23.920   6.455  0.00  0.00    +0.235 C 
ATOM      3  O   LIG    1       22.274 -23.829   6.876  0.00  0.00    -0.274 OA
ATOM      4  N   LIG    1       23.820 -25.043   5.785  0.00  0.00    -0.239 N 
ATOM      5  H   LIG    1       23.119 -25.767   5.701  0.00  0.00    +0.159 HD
ATOM      6  C   LIG    1       25.103 -25.491   5.752  0.00  0.00    +0.312 C 
ATOM      7  O   LIG    1       25.365 -26.667   5.533  0.00  0.00    -0.252 OA
ATOM      8  N   LIG    1       26.074 -24.594   6.066  0.00  0.00    -0.239 N 
ATOM      9  H   LIG    1       27.010 -24.970   6.140  0.00  0.00    +0.159 HD
ATOM     10  C   LIG    1       25.866 -23.386   6.673  0.00  0.00    +0.235 C 
ATOM     11  O   LIG    1       26.809 -22.794   7.196  0.00  0.00    -0.274 OA
ENDROOT
BRANCH   1  12
ATOM     12  C   LIG    1       24.166 -21.894   7.781  0.00  0.00    +0.022 C 
ATOM     13  C   LIG    1       25.048 -20.647   7.863  0.00  0.00    +0.005 C 
ENDBRANCH   1  12
BRANCH   1  14
ATOM     14  C   LIG    1       24.446 -21.996   5.231  0.00  0.00    +0.025 C 
BRANCH  14  15
ATOM     15  C   LIG    1       23.181 -21.164   4.961  0.00  0.00    +0.001 C 
BRANCH  15  17
ATOM     16  C   LIG    1       22.335 -18.810   4.572  0.00  0.00    +0.004 C 
ATOM     17  C   LIG    1       23.540 -19.738   4.528  0.00  0.00    -0.003 C 
ENDBRANCH  15  17
ENDBRANCH  14  15
ENDBRANCH   1  14
TORSDOF 4
ENDMDL
MODEL 8
REMARK VINA RESULT:      -6.5      2.420      4.077
REMARK  Name = *****
REMARK                            x       y       z     vdW  Elec       q    Type
REMARK                         _______ _______ _______ _____ _____    ______ ____
ROOT
ATOM      1  C   LIG    1       24.941 -21.692   6.495  0.00  0.00    +0.123 C 
ATOM      2  C   LIG    1       25.413 -22.899   7.294  0.00  0.00    +0.235 C 
ATOM      3  O   LIG    1       25.978 -22.821   8.383  0.00  0.00    -0.274 OA
ATOM      4  N   LIG    1       25.115 -24.123   6.766  0.00  0.00    -0.239 N 
ATOM      5  H   LIG    1       25.417 -24.917   7.314  0.00  0.00    +0.159 HD
ATOM      6  C   LIG    1       25.007 -24.365   5.433  0.00  0.00    +0.312 C 
ATOM      7  O   LIG    1       25.167 -25.488   4.971  0.00  0.00    -0.252 OA
ATOM      8  N   LIG    1       24.808 -23.287   4.628  0.00  0.00    -0.239 N 
ATOM      9  H   LIG    1       24.837 -23.472   3.635  0.00  0.00    +0.159 HD
ATOM     10  C   LIG    1       24.984 -21.983   4.998  0.00  0.00    +0.235 C 
ATOM     11  O   LIG    1       25.089 -21.111   4.137  0.00  0.00    -0.274 OA
ENDROOT
BRANCH   1  12
ATOM     12  C   LIG    1       25.795 -20.441   6.819  0.00  0.00    +0.022 C 
ATOM     13  C   LIG    1       27.276 -20.576   6.460  0.00  0.00    +0.005 C 
ENDBRANCH   1  12
BRANCH   1  14
ATOM     14  C   LIG    1       23.434 -21.449   6.825  0.00  0.00    +0.025 C 
BRANCH  14  15
ATOM     15  C   LIG    1       22.886 -20.052   6.485  0.00  0.00    +0.001 C 
BRANCH  15  17
ATOM     16  C   LIG    1       22.318 -18.675   4.438  0.00  0.00    +0.004 C 
ATOM     17  C   LIG    1       22.224 -20.041   5.103  0.00  0.00    -0.003 C 
ENDBRANCH  15  17
ENDBRANCH  14  15
ENDBRANCH   1  14
TORSDOF 4
ENDMDL
MODEL 9
REMARK VINA RESULT:      -6.4      2.283      4.432
REMARK  Name = *****
REMARK                            x       y       z     vdW  Elec       q    Type
REMARK                         _______ _______ _______ _____ _____    ______ ____
ROOT
ATOM      1  C   LIG    1       24.365 -21.217   5.934  0.00  0.00    +0.123 C 
ATOM      2  C   LIG    1       24.494 -22.113   4.711  0.00  0.00    +0.235 C 
ATOM      3  O   LIG    1       24.420 -21.707   3.553  0.00  0.00    -0.274 OA
ATOM      4  N   LIG    1       24.775 -23.428   4.955  0.00  0.00    -0.239 N 
ATOM      5  H   LIG    1       24.878 -24.010   4.135  0.00  0.00    +0.159 HD
ATOM      6  C   LIG    1       24.374 -24.090   6.072  0.00  0.00    +0.312 C 
ATOM      7  O   LIG    1       24.253 -25.309   6.085  0.00  0.00    -0.252 OA
ATOM      8  N   LIG    1       24.021 -23.331   7.143  0.00  0.00    -0.239 N 
ATOM      9  H   LIG    1       23.625 -23.834   7.925  0.00  0.00    +0.159 HD
ATOM     10  C   LIG    1       23.770 -21.987   7.108  0.00  0.00    +0.235 C 
ATOM     11  O   LIG    1       23.162 -21.455   8.035  0.00  0.00    -0.274 OA
ENDROOT
BRANCH   1  12
ATOM     12  C   LIG    1       23.499 -19.972   5.622  0.00  0.00    +0.022 C 
ATOM     13  C   LIG    1       22.138 -20.287   4.997  0.00  0.00    +0.005 C 
ENDBRANCH   1  12
BRANCH   1  14
ATOM     14  C   LIG    1       25.800 -20.807   6.393  0.00  0.00    +0.025 C 
BRANCH  14  15
ATOM     15  C   LIG    1       26.630 -20.005   5.376  0.00  0.00    +0.001 C 
BRANCH  15  17
ATOM     16  C   LIG    1       28.361 -20.691   7.091  0.00  0.00    +0.004 C 
ATOM     17  C   LIG    1       28.098 -19.916   5.808  0.00  0.00    -0.003 C 
ENDBRANCH  15  17
ENDBRANCH  14  15
ENDBRANCH   1  14
TORSDOF 4
ENDMDL
