MODEL 1
REMARK VINA RESULT:      -3.4      0.000      0.000
REMARK  Name = *****
REMARK                            x       y       z     vdW  Elec       q    Type
REMARK                         _______ _______ _______ _____ _____    ______ ____
ROOT
ATOM      1  S   LIG    1       22.757 -18.407   4.189  0.00  0.00    +0.073 S 
ATOM      2  O   LIG    1       21.768 -18.327   3.130  0.00  0.00    -0.150 OA
ATOM      3  O   LIG    1       22.348 -18.594   5.562  0.00  0.00    -0.150 OA
ENDROOT
BRANCH   1   7
ATOM      4  C   LIG    1       25.095 -14.515   3.586  0.00  0.00    +0.025 A 
ATOM      5  C   LIG    1       23.845 -14.494   4.214  0.00  0.00    +0.024 A 
ATOM      6  C   LIG    1       23.134 -15.678   4.439  0.00  0.00    +0.030 A 
ATOM      7  C   LIG    1       23.709 -16.900   4.088  0.00  0.00    +0.109 A 
ATOM      8  C   LIG    1       24.995 -16.940   3.540  0.00  0.00    +0.030 A 
ATOM      9  C   LIG    1       25.693 -15.749   3.319  0.00  0.00    +0.024 A 
BRANCH   4  10
ATOM     10  N   LIG    1       25.825 -13.330   3.421  0.00  0.00    -0.358 N 
ATOM     11  H   LIG    1       26.537 -13.194   4.133  0.00  0.00    +0.142 HD
ATOM     12  H   LIG    1       25.238 -12.506   3.319  0.00  0.00    +0.142 HD
ENDBRANCH   4  10
ENDBRANCH   1   7
BRANCH   1  13
ATOM     13  N   LIG    1       23.858 -19.604   3.720  0.00  0.00    -0.200 N 
ATOM     14  H   LIG    1       24.564 -19.197   3.111  0.00  0.00    +0.175 HD
BRANCH  13  15
ATOM     15  C   LIG    1       24.527 -20.234   4.790  0.00  0.00    +0.138 A 
ATOM     16  N   LIG    1       23.725 -20.966   5.579  0.00  0.00    -0.239 NA
ATOM     17  C   LIG    1       24.329 -21.572   6.628  0.00  0.00    +0.113 A 
ATOM     18  C   LIG    1       25.681 -21.457   6.921  0.00  0.00    +0.020 A 
ATOM     19  C   LIG    1       26.474 -20.686   6.078  0.00  0.00    +0.005 A 
ATOM     20  C   LIG    1       25.889 -20.067   4.978  0.00  0.00    +0.045 A 
ENDBRANCH  13  15
ENDBRANCH   1  13
TORSDOF 4
ENDMDL
MODEL 2
REMARK VINA RESULT:      -3.4      1.341      2.065
REMARK  Name = *****
REMARK                            x       y       z     vdW  Elec       q    Type
REMARK                         _______ _______ _______ _____ _____    ______ ____
ROOT
ATOM      1  S   LIG    1       23.958 -18.982   3.924  0.00  0.00    +0.073 S 
ATOM      2  O   LIG    1       23.115 -19.278   2.781  0.00  0.00    -0.150 OA
ATOM      3  O   LIG    1       23.473 -19.196   5.268  0.00  0.00    -0.150 OA
ENDROOT
BRANCH   1   7
ATOM      4  C   LIG    1       25.232 -14.583   3.858  0.00  0.00    +0.025 A 
ATOM      5  C   LIG    1       26.104 -15.574   3.396  0.00  0.00    +0.024 A 
ATOM      6  C   LIG    1       25.717 -16.919   3.375  0.00  0.00    +0.030 A 
ATOM      7  C   LIG    1       24.421 -17.266   3.762  0.00  0.00    +0.109 A 
ATOM      8  C   LIG    1       23.513 -16.274   4.142  0.00  0.00    +0.030 A 
ATOM      9  C   LIG    1       23.914 -14.935   4.160  0.00  0.00    +0.024 A 
BRANCH   4  10
ATOM     10  N   LIG    1       25.607 -13.233   3.818  0.00  0.00    -0.358 N 
ATOM     11  H   LIG    1       26.509 -13.054   4.248  0.00  0.00    +0.142 HD
ATOM     12  H   LIG    1       24.892 -12.606   4.176  0.00  0.00    +0.142 HD
ENDBRANCH   4  10
ENDBRANCH   1   7
BRANCH   1  13
ATOM     13  N   LIG    1       25.412 -19.811   3.670  0.00  0.00    -0.200 N 
ATOM     14  H   LIG    1       26.059 -19.213   3.161  0.00  0.00    +0.175 HD
BRANCH  13  15
ATOM     15  C   LIG    1       26.057 -20.235   4.850  0.00  0.00    +0.138 A 
ATOM     16  N   LIG    1       27.258 -19.668   5.048  0.00  0.00    -0.239 NA
ATOM     17  C   LIG    1       27.916 -20.064   6.162  0.00  0.00    +0.113 A 
ATOM     18  C   LIG    1       27.432 -21.005   7.060  0.00  0.00    +0.020 A 
ATOM     19  C   LIG    1       26.184 -21.569   6.814  0.00  0.00    +0.005 A 
ATOM     20  C   LIG    1       25.471 -21.168   5.689  0.00  0.00    +0.045 A 
ENDBRANCH  13  15
ENDBRANCH   1  13
TORSDOF 4
ENDMDL
MODEL 3
REMARK VINA RESULT:      -3.3      2.426      6.038
REMARK  Name = *****
REMARK                            x       y       z     vdW  Elec       q    Type
REMARK                         _______ _______ _______ _____ _____    ______ ____
ROOT
ATOM      1  S   LIG    1       25.958 -18.030   3.353  0.00  0.00    +0.073 S 
ATOM      2  O   LIG    1       25.976 -18.595   2.016  0.00  0.00    -0.150 OA
ATOM      3  O   LIG    1       27.194 -17.732   4.040  0.00  0.00    -0.150 OA
ENDROOT
BRANCH   1   7
ATOM      4  C   LIG    1       23.595 -20.726   6.204  0.00  0.00    +0.025 A 
ATOM      5  C   LIG    1       22.922 -19.881   5.315  0.00  0.00    +0.024 A 
ATOM      6  C   LIG    1       23.628 -19.078   4.412  0.00  0.00    +0.030 A 
ATOM      7  C   LIG    1       25.019 -19.169   4.356  0.00  0.00    +0.109 A 
ATOM      8  C   LIG    1       25.698 -20.074   5.179  0.00  0.00    +0.030 A 
ATOM      9  C   LIG    1       24.980 -20.869   6.077  0.00  0.00    +0.024 A 
BRANCH   4  10
ATOM     10  N   LIG    1       22.877 -21.570   7.062  0.00  0.00    -0.358 N 
ATOM     11  H   LIG    1       23.176 -22.539   7.015  0.00  0.00    +0.142 HD
ATOM     12  H   LIG    1       21.869 -21.486   6.958  0.00  0.00    +0.142 HD
ENDBRANCH   4  10
ENDBRANCH   1   7
BRANCH   1  13
ATOM     13  N   LIG    1       24.967 -16.660   3.276  0.00  0.00    -0.200 N 
ATOM     14  H   LIG    1       24.208 -16.752   3.947  0.00  0.00    +0.175 HD
BRANCH  13  15
ATOM     15  C   LIG    1       25.630 -15.444   3.542  0.00  0.00    +0.138 A 
ATOM     16  N   LIG    1       26.807 -15.315   2.909  0.00  0.00    -0.239 NA
ATOM     17  C   LIG    1       27.481 -14.167   3.154  0.00  0.00    +0.113 A 
ATOM     18  C   LIG    1       27.035 -13.169   4.010  0.00  0.00    +0.020 A 
ATOM     19  C   LIG    1       25.811 -13.346   4.647  0.00  0.00    +0.005 A 
ATOM     20  C   LIG    1       25.083 -14.504   4.400  0.00  0.00    +0.045 A 
ENDBRANCH  13  15
ENDBRANCH   1  13
TORSDOF 4
ENDMDL
MODEL 4
REMARK VINA RESULT:      -3.1      3.180      3.967
REMARK  Name = *****
REMARK                            x       y       z     vdW  Elec       q    Type
REMARK                         _______ _______ _______ _____ _____    ______ ____
ROOT
ATOM      1  S   LIG    1       25.483 -15.330   3.328  0.00  0.00    +0.073 S 
ATOM      2  O   LIG    1       25.357 -14.874   1.956  0.00  0.00    -0.150 OA
ATOM      3  O   LIG    1       24.332 -15.354   4.201  0.00  0.00    -0.150 OA
ENDROOT
BRANCH   1   7
ATOM      4  C   LIG    1       28.527 -12.401   5.099  0.00  0.00    +0.025 A 
ATOM      5  C   LIG    1       27.479 -12.890   5.889  0.00  0.00    +0.024 A 
ATOM      6  C   LIG    1       26.562 -13.814   5.374  0.00  0.00    +0.030 A 
ATOM      7  C   LIG    1       26.733 -14.299   4.076  0.00  0.00    +0.109 A 
ATOM      8  C   LIG    1       27.826 -13.885   3.309  0.00  0.00    +0.030 A 
ATOM      9  C   LIG    1       28.733 -12.961   3.836  0.00  0.00    +0.024 A 
BRANCH   4  10
ATOM     10  N   LIG    1       29.474 -11.524   5.644  0.00  0.00    -0.358 N 
ATOM     11  H   LIG    1       29.625 -11.662   6.639  0.00  0.00    +0.142 HD
ATOM     12  H   LIG    1       29.291 -10.548   5.426  0.00  0.00    +0.142 HD
ENDBRANCH   4  10
ENDBRANCH   1   7
BRANCH   1  13
ATOM     13  N   LIG    1       26.216 -16.854   3.256  0.00  0.00    -0.200 N 
ATOM     14  H   LIG    1       27.023 -16.872   3.876  0.00  0.00    +0.175 HD
BRANCH  13  15
ATOM     15  C   LIG    1       25.374 -17.926   3.617  0.00  0.00    +0.138 A 
ATOM     16  N   LIG    1       26.031 -19.051   3.937  0.00  0.00    -0.239 NA
ATOM     17  C   LIG    1       25.254 -20.109   4.272  0.00  0.00    +0.113 A 
ATOM     18  C   LIG    1       23.866 -20.084   4.279  0.00  0.00    +0.020 A 
ATOM     19  C   LIG    1       23.227 -18.896   3.938  0.00  0.00    +0.005 A 
ATOM     20  C   LIG    1       23.996 -17.785   3.610  0.00  0.00    +0.045 A 
ENDBRANCH  13  15
ENDBRANCH   1  13
TORSDOF 4
ENDMDL
MODEL 5
REMARK VINA RESULT:      -2.9      1.913      2.607
REMARK  Name = *****
REMARK                            x       y       z     vdW  Elec       q    Type
REMARK                         _______ _______ _______ _____ _____    ______ ____
ROOT
ATOM      1  S   LIG    1       25.602 -18.363   3.376  0.00  0.00    +0.073 S 
ATOM      2  O   LIG    1       26.472 -18.668   4.496  0.00  0.00    -0.150 OA
ATOM      3  O   LIG    1       26.029 -18.631   2.021  0.00  0.00    -0.150 OA
ENDROOT
BRANCH   1   7
ATOM      4  C   LIG    1       24.687 -13.929   4.071  0.00  0.00    +0.025 A 
ATOM      5  C   LIG    1       25.931 -14.319   3.561  0.00  0.00    +0.024 A 
ATOM      6  C   LIG    1       26.213 -15.666   3.309  0.00  0.00    +0.030 A 
ATOM      7  C   LIG    1       25.219 -16.625   3.509  0.00  0.00    +0.109 A 
ATOM      8  C   LIG    1       23.944 -16.237   3.934  0.00  0.00    +0.030 A 
ATOM      9  C   LIG    1       23.677 -14.888   4.184  0.00  0.00    +0.024 A 
BRANCH   4  10
ATOM     10  N   LIG    1       24.393 -12.572   4.262  0.00  0.00    -0.358 N 
ATOM     11  H   LIG    1       24.406 -12.033   3.402  0.00  0.00    +0.142 HD
ATOM     12  H   LIG    1       24.960 -12.136   4.984  0.00  0.00    +0.142 HD
ENDBRANCH   4  10
ENDBRANCH   1   7
BRANCH   1  13
ATOM     13  N   LIG    1       24.124 -19.121   3.701  0.00  0.00    -0.200 N 
ATOM     14  H   LIG    1       23.863 -19.709   2.914  0.00  0.00    +0.175 HD
BRANCH  13  15
ATOM     15  C   LIG    1       24.124 -19.928   4.858  0.00  0.00    +0.138 A 
ATOM     16  N   LIG    1       25.208 -20.709   4.978  0.00  0.00    -0.239 NA
ATOM     17  C   LIG    1       25.234 -21.512   6.067  0.00  0.00    +0.113 A 
ATOM     18  C   LIG    1       24.222 -21.572   7.016  0.00  0.00    +0.020 A 
ATOM     19  C   LIG    1       23.115 -20.745   6.850  0.00  0.00    +0.005 A 
ATOM     20  C   LIG    1       23.067 -19.892   5.753  0.00  0.00    +0.045 A 
ENDBRANCH  13  15
ENDBRANCH   1  13
TORSDOF 4
ENDMDL
MODEL 6
REMARK VINA RESULT:      -2.8      3.160      6.831
REMARK  Name = *****
REMARK                            x       y       z     vdW  Elec       q    Type
REMARK                         _______ _______ _______ _____ _____    ______ ____
ROOT
ATOM      1  S   LIG    1       26.847 -15.332   3.509  0.00  0.00    +0.073 S 
ATOM      2  O   LIG    1       26.540 -15.052   2.119  0.00  0.00    -0.150 OA
ATOM      3  O   LIG    1       28.149 -15.017   4.050  0.00  0.00    -0.150 OA
ENDROOT
BRANCH   1   7
ATOM      4  C   LIG    1       25.970 -19.734   4.423  0.00  0.00    +0.025 A 
ATOM      5  C   LIG    1       25.070 -18.981   3.661  0.00  0.00    +0.024 A 
ATOM      6  C   LIG    1       25.340 -17.645   3.341  0.00  0.00    +0.030 A 
ATOM      7  C   LIG    1       26.552 -17.078   3.736  0.00  0.00    +0.109 A 
ATOM      8  C   LIG    1       27.498 -17.847   4.422  0.00  0.00    +0.030 A 
ATOM      9  C   LIG    1       27.214 -19.179   4.736  0.00  0.00    +0.024 A 
BRANCH   4  10
ATOM     10  N   LIG    1       25.718 -21.087   4.684  0.00  0.00    -0.358 N 
ATOM     11  H   LIG    1       26.456 -21.537   5.219  0.00  0.00    +0.142 HD
ATOM     12  H   LIG    1       25.483 -21.621   3.852  0.00  0.00    +0.142 HD
ENDBRANCH   4  10
ENDBRANCH   1   7
BRANCH   1  13
ATOM     13  N   LIG    1       25.624 -14.602   4.422  0.00  0.00    -0.200 N 
ATOM     14  H   LIG    1       26.011 -14.260   5.299  0.00  0.00    +0.175 HD
BRANCH  13  15
ATOM     15  C   LIG    1       24.986 -13.517   3.785  0.00  0.00    +0.138 A 
ATOM     16  N   LIG    1       25.178 -13.477   2.457  0.00  0.00    -0.239 NA
ATOM     17  C   LIG    1       24.596 -12.439   1.812  0.00  0.00    +0.113 A 
ATOM     18  C   LIG    1       23.856 -11.447   2.442  0.00  0.00    +0.020 A 
ATOM     19  C   LIG    1       23.685 -11.527   3.820  0.00  0.00    +0.005 A 
ATOM     20  C   LIG    1       24.252 -12.593   4.510  0.00  0.00    +0.045 A 
ENDBRANCH  13  15
ENDBRANCH   1  13
TORSDOF 4
ENDMDL
MODEL 7
REMARK VINA RESULT:      -2.5      2.905      3.916
REMARK  Name = *****
REMARK                            x       y       z     vdW  Elec       q    Type
REMARK                         _______ _______ _______ _____ _____    ______ ____
ROOT
ATOM      1  S   LIG    1       24.410 -14.838   3.892  0.00  0.00    +0.073 S 
ATOM      2  O   LIG    1       23.821 -14.094   2.794  0.00  0.00    -0.150 OA
ATOM      3  O   LIG    1       23.696 -14.996   5.138  0.00  0.00    -0.150 OA
ENDROOT
BRANCH   1   7
ATOM      4  C   LIG    1       28.273 -12.504   4.673  0.00  0.00    +0.025 A 
ATOM      5  C   LIG    1       27.421 -12.829   5.735  0.00  0.00    +0.024 A 
ATOM      6  C   LIG    1       26.255 -13.574   5.518  0.00  0.00    +0.030 A 
ATOM      7  C   LIG    1       25.974 -14.050   4.237  0.00  0.00    +0.109 A 
ATOM      8  C   LIG    1       26.863 -13.806   3.186  0.00  0.00    +0.030 A 
ATOM      9  C   LIG    1       28.022 -13.060   3.416  0.00  0.00    +0.024 A 
BRANCH   4  10
ATOM     10  N   LIG    1       29.468 -11.812   4.910  0.00  0.00    -0.358 N 
ATOM     11  H   LIG    1       29.364 -11.044   5.567  0.00  0.00    +0.142 HD
ATOM     12  H   LIG    1       29.936 -11.513   4.059  0.00  0.00    +0.142 HD
ENDBRANCH   4  10
ENDBRANCH   1   7
BRANCH   1  13
ATOM     13  N   LIG    1       24.856 -16.343   3.260  0.00  0.00    -0.200 N 
ATOM     14  H   LIG    1       25.836 -16.523   3.468  0.00  0.00    +0.175 HD
BRANCH  13  15
ATOM     15  C   LIG    1       24.107 -17.431   3.755  0.00  0.00    +0.138 A 
ATOM     16  N   LIG    1       24.766 -18.600   3.737  0.00  0.00    -0.239 NA
ATOM     17  C   LIG    1       24.072 -19.671   4.188  0.00  0.00    +0.113 A 
ATOM     18  C   LIG    1       22.758 -19.617   4.633  0.00  0.00    +0.020 A 
ATOM     19  C   LIG    1       22.113 -18.384   4.633  0.00  0.00    +0.005 A 
ATOM     20  C   LIG    1       22.805 -17.260   4.195  0.00  0.00    +0.045 A 
ENDBRANCH  13  15
ENDBRANCH   1  13
TORSDOF 4
ENDMDL
MODEL 8
REMARK VINA RESULT:      -2.5      2.519      6.387
REMARK  Name = *****
REMARK                            x       y       z     vdW  Elec       q    Type
REMARK                         _______ _______ _______ _____ _____    ______ ____
ROOT
ATOM      1  S   LIG    1       25.759 -17.822   3.403  0.00  0.00    +0.073 S 
ATOM      2  O   LIG    1       24.488 -17.526   4.037  0.00  0.00    -0.150 OA
ATOM      3  O   LIG    1       25.803 -18.519   2.138  0.00  0.00    -0.150 OA
ENDROOT
BRANCH   1   7
ATOM      4  C   LIG    1       28.264 -20.457   6.190  0.00  0.00    +0.025 A 
ATOM      5  C   LIG    1       28.776 -19.242   5.724  0.00  0.00    +0.024 A 
ATOM      6  C   LIG    1       28.009 -18.407   4.901  0.00  0.00    +0.030 A 
ATOM      7  C   LIG    1       26.696 -18.765   4.595  0.00  0.00    +0.109 A 
ATOM      8  C   LIG    1       26.144 -19.935   5.127  0.00  0.00    +0.030 A 
ATOM      9  C   LIG    1       26.921 -20.759   5.945  0.00  0.00    +0.024 A 
BRANCH   4  10
ATOM     10  N   LIG    1       29.016 -21.256   7.062  0.00  0.00    -0.358 N 
ATOM     11  H   LIG    1       28.514 -21.512   7.906  0.00  0.00    +0.142 HD
ATOM     12  H   LIG    1       29.930 -20.866   7.276  0.00  0.00    +0.142 HD
ENDBRANCH   4  10
ENDBRANCH   1   7
BRANCH   1  13
ATOM     13  N   LIG    1       26.598 -16.355   3.311  0.00  0.00    -0.200 N 
ATOM     14  H   LIG    1       27.212 -16.365   2.500  0.00  0.00    +0.175 HD
BRANCH  13  15
ATOM     15  C   LIG    1       25.773 -15.215   3.212  0.00  0.00    +0.138 A 
ATOM     16  N   LIG    1       26.066 -14.420   2.172  0.00  0.00    -0.239 NA
ATOM     17  C   LIG    1       25.308 -13.305   2.054  0.00  0.00    +0.113 A 
ATOM     18  C   LIG    1       24.294 -12.956   2.937  0.00  0.00    +0.020 A 
ATOM     19  C   LIG    1       24.026 -13.809   4.002  0.00  0.00    +0.005 A 
ATOM     20  C   LIG    1       24.774 -14.974   4.140  0.00  0.00    +0.045 A 
ENDBRANCH  13  15
ENDBRANCH   1  13
TORSDOF 4
ENDMDL
MODEL 9
REMARK VINA RESULT:      -2.4      2.140      6.156
REMARK  Name = *****
REMARK                            x       y       z     vdW  Elec       q    Type
REMARK                         _______ _______ _______ _____ _____    ______ ____
ROOT
ATOM      1  S   LIG    1       22.777 -15.796   4.463  0.00  0.00    +0.073 S 
ATOM      2  O   LIG    1       21.985 -15.690   5.674  0.00  0.00    -0.150 OA
ATOM      3  O   LIG    1       22.263 -15.308   3.204  0.00  0.00    -0.150 OA
ENDROOT
BRANCH   1   7
ATOM      4  C   LIG    1       23.957 -20.219   4.288  0.00  0.00    +0.025 A 
ATOM      5  C   LIG    1       22.703 -19.845   4.783  0.00  0.00    +0.024 A 
ATOM      6  C   LIG    1       22.312 -18.500   4.809  0.00  0.00    +0.030 A 
ATOM      7  C   LIG    1       23.161 -17.530   4.277  0.00  0.00    +0.109 A 
ATOM      8  C   LIG    1       24.379 -17.901   3.699  0.00  0.00    +0.030 A 
ATOM      9  C   LIG    1       24.757 -19.247   3.682  0.00  0.00    +0.024 A 
BRANCH   4  10
ATOM     10  N   LIG    1       24.313 -21.572   4.210  0.00  0.00    -0.358 N 
ATOM     11  H   LIG    1       23.753 -22.170   4.809  0.00  0.00    +0.142 HD
ATOM     12  H   LIG    1       25.307 -21.735   4.345  0.00  0.00    +0.142 HD
ENDBRANCH   4  10
ENDBRANCH   1   7
BRANCH   1  13
ATOM     13  N   LIG    1       24.277 -15.094   4.813  0.00  0.00    -0.200 N 
ATOM     14  H   LIG    1       24.996 -15.813   4.821  0.00  0.00    +0.175 HD
BRANCH  13  15
ATOM     15  C   LIG    1       24.681 -14.094   3.903  0.00  0.00    +0.138 A 
ATOM     16  N   LIG    1       23.896 -13.005   3.907  0.00  0.00    -0.239 NA
ATOM     17  C   LIG    1       24.241 -12.031   3.033  0.00  0.00    +0.113 A 
ATOM     18  C   LIG    1       25.316 -12.114   2.159  0.00  0.00    +0.020 A 
ATOM     19  C   LIG    1       26.102 -13.262   2.188  0.00  0.00    +0.005 A 
ATOM     20  C   LIG    1       25.787 -14.273   3.089  0.00  0.00    +0.045 A 
ENDBRANCH  13  15
ENDBRANCH   1  13
TORSDOF 4
ENDMDL
