MODEL 1
REMARK VINA RESULT:      -6.9      0.000      0.000
REMARK  Name = *****
REMARK                            x       y       z     vdW  Elec       q    Type
REMARK                         _______ _______ _______ _____ _____    ______ ____
ROOT
ATOM      1  C   LIG    1       30.313 -19.817   7.136  0.00  0.00    +0.120 A 
ATOM      2  C   LIG    1       29.467 -19.254   6.180  0.00  0.00    +0.046 A 
ATOM      3  C   LIG    1       28.164 -19.740   6.022  0.00  0.00    +0.012 A 
ATOM      4  C   LIG    1       27.692 -20.789   6.822  0.00  0.00    -0.011 A 
ATOM      5  C   LIG    1       28.545 -21.354   7.776  0.00  0.00    +0.012 A 
ATOM      6  C   LIG    1       29.845 -20.867   7.930  0.00  0.00    +0.046 A 
ENDROOT
BRANCH   4   7
ATOM      7  C   LIG    1       26.337 -21.306   6.637  0.00  0.00    +0.028 A 
ATOM      8  S   LIG    1       25.988 -22.876   7.257  0.00  0.00    -0.051 S 
ATOM      9  S   LIG    1       24.047 -22.854   6.622  0.00  0.00    -0.044 S 
ATOM     10  C   LIG    1       24.058 -21.240   5.923  0.00  0.00    +0.064 A 
ATOM     11  S   LIG    1       22.709 -20.540   5.231  0.00  0.00    -0.044 S 
ATOM     12  C   LIG    1       25.383 -20.597   6.024  0.00  0.00    +0.039 A 
ENDBRANCH   4   7
BRANCH   1  14
ATOM     13  C   LIG    1       31.791 -18.366   8.305  0.00  0.00    +0.277 C 
ATOM     14  O   LIG    1       31.603 -19.438   7.391  0.00  0.00    -0.495 OA
ENDBRANCH   1  14
TORSDOF 2
ENDMDL
MODEL 2
REMARK VINA RESULT:      -6.9      3.901      6.238
REMARK  Name = *****
REMARK                            x       y       z     vdW  Elec       q    Type
REMARK                         _______ _______ _______ _____ _____    ______ ____
ROOT
ATOM      1  C   LIG    1       24.130 -20.630   6.030  0.00  0.00    +0.120 A 
ATOM      2  C   LIG    1       24.564 -20.801   7.345  0.00  0.00    +0.046 A 
ATOM      3  C   LIG    1       25.924 -20.681   7.658  0.00  0.00    +0.012 A 
ATOM      4  C   LIG    1       26.861 -20.384   6.660  0.00  0.00    -0.011 A 
ATOM      5  C   LIG    1       26.422 -20.219   5.342  0.00  0.00    +0.012 A 
ATOM      6  C   LIG    1       25.066 -20.340   5.034  0.00  0.00    +0.046 A 
ENDROOT
BRANCH   4   7
ATOM      7  C   LIG    1       28.282 -20.282   6.989  0.00  0.00    +0.028 A 
ATOM      8  S   LIG    1       29.191 -19.028   6.233  0.00  0.00    -0.051 S 
ATOM      9  S   LIG    1       30.943 -19.549   7.146  0.00  0.00    -0.044 S 
ATOM     10  C   LIG    1       30.310 -20.882   8.102  0.00  0.00    +0.064 A 
ATOM     11  S   LIG    1       31.249 -21.769   9.161  0.00  0.00    -0.044 S 
ATOM     12  C   LIG    1       28.872 -21.113   7.855  0.00  0.00    +0.039 A 
ENDBRANCH   4   7
BRANCH   1  14
ATOM     13  C   LIG    1       22.321 -19.607   4.874  0.00  0.00    +0.277 C 
ATOM     14  O   LIG    1       22.838 -20.720   5.592  0.00  0.00    -0.495 OA
ENDBRANCH   1  14
TORSDOF 2
ENDMDL
MODEL 3
REMARK VINA RESULT:      -6.8      3.928      6.123
REMARK  Name = *****
REMARK                            x       y       z     vdW  Elec       q    Type
REMARK                         _______ _______ _______ _____ _____    ______ ____
ROOT
ATOM      1  C   LIG    1       24.274 -20.516   5.672  0.00  0.00    +0.120 A 
ATOM      2  C   LIG    1       25.255 -20.136   4.756  0.00  0.00    +0.046 A 
ATOM      3  C   LIG    1       26.595 -20.057   5.153  0.00  0.00    +0.012 A 
ATOM      4  C   LIG    1       26.967 -20.363   6.469  0.00  0.00    -0.011 A 
ATOM      5  C   LIG    1       25.980 -20.738   7.386  0.00  0.00    +0.012 A 
ATOM      6  C   LIG    1       24.644 -20.815   6.985  0.00  0.00    +0.046 A 
ENDROOT
BRANCH   4   7
ATOM      7  C   LIG    1       28.366 -20.257   6.884  0.00  0.00    +0.028 A 
ATOM      8  S   LIG    1       29.302 -18.970   6.223  0.00  0.00    -0.051 S 
ATOM      9  S   LIG    1       31.004 -19.501   7.220  0.00  0.00    -0.044 S 
ATOM     10  C   LIG    1       30.332 -20.871   8.094  0.00  0.00    +0.064 A 
ATOM     11  S   LIG    1       31.219 -21.783   9.177  0.00  0.00    -0.044 S 
ATOM     12  C   LIG    1       28.914 -21.110   7.756  0.00  0.00    +0.039 A 
ENDBRANCH   4   7
BRANCH   1  14
ATOM     13  C   LIG    1       22.281 -19.488   4.879  0.00  0.00    +0.277 C 
ATOM     14  O   LIG    1       22.936 -20.632   5.414  0.00  0.00    -0.495 OA
ENDBRANCH   1  14
TORSDOF 2
ENDMDL
MODEL 4
REMARK VINA RESULT:      -6.7      1.078      1.625
REMARK  Name = *****
REMARK                            x       y       z     vdW  Elec       q    Type
REMARK                         _______ _______ _______ _____ _____    ______ ____
ROOT
ATOM      1  C   LIG    1       30.402 -19.555   7.100  0.00  0.00    +0.120 A 
ATOM      2  C   LIG    1       29.744 -18.901   6.057  0.00  0.00    +0.046 A 
ATOM      3  C   LIG    1       28.446 -19.279   5.698  0.00  0.00    +0.012 A 
ATOM      4  C   LIG    1       27.789 -20.312   6.380  0.00  0.00    -0.011 A 
ATOM      5  C   LIG    1       28.453 -20.969   7.421  0.00  0.00    +0.012 A 
ATOM      6  C   LIG    1       29.750 -20.589   7.776  0.00  0.00    +0.046 A 
ENDROOT
BRANCH   4   7
ATOM      7  C   LIG    1       26.441 -20.717   5.985  0.00  0.00    +0.028 A 
ATOM      8  S   LIG    1       25.752 -19.962   4.598  0.00  0.00    -0.051 S 
ATOM      9  S   LIG    1       23.994 -20.995   4.729  0.00  0.00    -0.044 S 
ATOM     10  C   LIG    1       24.411 -21.969   6.132  0.00  0.00    +0.064 A 
ATOM     11  S   LIG    1       23.385 -23.117   6.780  0.00  0.00    -0.044 S 
ATOM     12  C   LIG    1       25.755 -21.650   6.655  0.00  0.00    +0.039 A 
ENDBRANCH   4   7
BRANCH   1  14
ATOM     13  C   LIG    1       31.780 -18.409   8.663  0.00  0.00    +0.277 C 
ATOM     14  O   LIG    1       31.665 -19.286   7.549  0.00  0.00    -0.495 OA
ENDBRANCH   1  14
TORSDOF 2
ENDMDL
MODEL 5
REMARK VINA RESULT:      -6.6      1.434      1.988
REMARK  Name = *****
REMARK                            x       y       z     vdW  Elec       q    Type
REMARK                         _______ _______ _______ _____ _____    ______ ____
ROOT
ATOM      1  C   LIG    1       29.347 -19.203   6.699  0.00  0.00    +0.120 A 
ATOM      2  C   LIG    1       28.536 -19.278   5.566  0.00  0.00    +0.046 A 
ATOM      3  C   LIG    1       27.362 -20.038   5.591  0.00  0.00    +0.012 A 
ATOM      4  C   LIG    1       26.984 -20.728   6.750  0.00  0.00    -0.011 A 
ATOM      5  C   LIG    1       27.802 -20.655   7.883  0.00  0.00    +0.012 A 
ATOM      6  C   LIG    1       28.973 -19.896   7.853  0.00  0.00    +0.046 A 
ENDROOT
BRANCH   4   7
ATOM      7  C   LIG    1       25.767 -21.539   6.763  0.00  0.00    +0.028 A 
ATOM      8  S   LIG    1       24.273 -20.736   7.067  0.00  0.00    -0.051 S 
ATOM      9  S   LIG    1       23.161 -22.445   6.938  0.00  0.00    -0.044 S 
ATOM     10  C   LIG    1       24.482 -23.544   6.564  0.00  0.00    +0.064 A 
ATOM     11  S   LIG    1       24.256 -25.174   6.278  0.00  0.00    -0.044 S 
ATOM     12  C   LIG    1       25.789 -22.857   6.535  0.00  0.00    +0.039 A 
ENDBRANCH   4   7
BRANCH   1  14
ATOM     13  C   LIG    1       31.394 -18.867   7.863  0.00  0.00    +0.277 C 
ATOM     14  O   LIG    1       30.515 -18.500   6.807  0.00  0.00    -0.495 OA
ENDBRANCH   1  14
TORSDOF 2
ENDMDL
MODEL 6
REMARK VINA RESULT:      -6.3      3.828      6.020
REMARK  Name = *****
REMARK                            x       y       z     vdW  Elec       q    Type
REMARK                         _______ _______ _______ _____ _____    ______ ____
ROOT
ATOM      1  C   LIG    1       24.718 -20.721   6.472  0.00  0.00    +0.120 A 
ATOM      2  C   LIG    1       25.755 -20.474   5.572  0.00  0.00    +0.046 A 
ATOM      3  C   LIG    1       27.063 -20.296   6.037  0.00  0.00    +0.012 A 
ATOM      4  C   LIG    1       27.348 -20.368   7.407  0.00  0.00    -0.011 A 
ATOM      5  C   LIG    1       26.306 -20.610   8.307  0.00  0.00    +0.012 A 
ATOM      6  C   LIG    1       25.002 -20.787   7.839  0.00  0.00    +0.046 A 
ENDROOT
BRANCH   4   7
ATOM      7  C   LIG    1       28.713 -20.159   7.889  0.00  0.00    +0.028 A 
ATOM      8  S   LIG    1       29.711 -21.548   8.093  0.00  0.00    -0.051 S 
ATOM      9  S   LIG    1       31.319 -20.475   8.754  0.00  0.00    -0.044 S 
ATOM     10  C   LIG    1       30.595 -18.879   8.617  0.00  0.00    +0.064 A 
ATOM     11  S   LIG    1       31.419 -17.471   8.978  0.00  0.00    -0.044 S 
ATOM     12  C   LIG    1       29.194 -18.939   8.152  0.00  0.00    +0.039 A 
ENDBRANCH   4   7
BRANCH   1  14
ATOM     13  C   LIG    1       22.752 -19.862   5.447  0.00  0.00    +0.277 C 
ATOM     14  O   LIG    1       23.403 -20.912   6.151  0.00  0.00    -0.495 OA
ENDBRANCH   1  14
TORSDOF 2
ENDMDL
MODEL 7
REMARK VINA RESULT:      -6.1      5.421      7.223
REMARK  Name = *****
REMARK                            x       y       z     vdW  Elec       q    Type
REMARK                         _______ _______ _______ _____ _____    ______ ____
ROOT
ATOM      1  C   LIG    1       25.509 -27.840   5.572  0.00  0.00    +0.120 A 
ATOM      2  C   LIG    1       26.582 -26.975   5.793  0.00  0.00    +0.046 A 
ATOM      3  C   LIG    1       26.351 -25.653   6.190  0.00  0.00    +0.012 A 
ATOM      4  C   LIG    1       25.044 -25.184   6.375  0.00  0.00    -0.011 A 
ATOM      5  C   LIG    1       23.970 -26.051   6.147  0.00  0.00    +0.012 A 
ATOM      6  C   LIG    1       24.206 -27.369   5.750  0.00  0.00    +0.046 A 
ENDROOT
BRANCH   4   7
ATOM      7  C   LIG    1       24.807 -23.795   6.768  0.00  0.00    +0.028 A 
ATOM      8  S   LIG    1       23.197 -23.193   6.651  0.00  0.00    -0.051 S 
ATOM      9  S   LIG    1       23.690 -21.328   7.320  0.00  0.00    -0.044 S 
ATOM     10  C   LIG    1       25.400 -21.633   7.595  0.00  0.00    +0.064 A 
ATOM     11  S   LIG    1       26.443 -20.482   8.210  0.00  0.00    -0.044 S 
ATOM     12  C   LIG    1       25.789 -23.008   7.220  0.00  0.00    +0.039 A 
ENDBRANCH   4   7
BRANCH   1  14
ATOM     13  C   LIG    1       24.713 -30.068   5.810  0.00  0.00    +0.277 C 
ATOM     14  O   LIG    1       25.598 -29.147   5.183  0.00  0.00    -0.495 OA
ENDBRANCH   1  14
TORSDOF 2
ENDMDL
MODEL 8
REMARK VINA RESULT:      -6.0      5.209      6.847
REMARK  Name = *****
REMARK                            x       y       z     vdW  Elec       q    Type
REMARK                         _______ _______ _______ _____ _____    ______ ____
ROOT
ATOM      1  C   LIG    1       25.419 -27.515   5.808  0.00  0.00    +0.120 A 
ATOM      2  C   LIG    1       26.522 -26.717   6.114  0.00  0.00    +0.046 A 
ATOM      3  C   LIG    1       26.352 -25.354   6.380  0.00  0.00    +0.012 A 
ATOM      4  C   LIG    1       25.077 -24.775   6.346  0.00  0.00    -0.011 A 
ATOM      5  C   LIG    1       23.974 -25.577   6.033  0.00  0.00    +0.012 A 
ATOM      6  C   LIG    1       24.148 -26.937   5.768  0.00  0.00    +0.046 A 
ENDROOT
BRANCH   4   7
ATOM      7  C   LIG    1       24.908 -23.345   6.602  0.00  0.00    +0.028 A 
ATOM      8  S   LIG    1       25.982 -22.601   7.725  0.00  0.00    -0.051 S 
ATOM      9  S   LIG    1       25.132 -20.753   7.536  0.00  0.00    -0.044 S 
ATOM     10  C   LIG    1       23.925 -21.184   6.331  0.00  0.00    +0.064 A 
ATOM     11  S   LIG    1       22.864 -20.077   5.670  0.00  0.00    -0.044 S 
ATOM     12  C   LIG    1       23.969 -22.619   5.985  0.00  0.00    +0.039 A 
ENDBRANCH   4   7
BRANCH   1  14
ATOM     13  C   LIG    1       24.624 -29.696   6.326  0.00  0.00    +0.277 C 
ATOM     14  O   LIG    1       25.448 -28.854   5.530  0.00  0.00    -0.495 OA
ENDBRANCH   1  14
TORSDOF 2
ENDMDL
MODEL 9
REMARK VINA RESULT:      -6.0      3.905      6.152
REMARK  Name = *****
REMARK                            x       y       z     vdW  Elec       q    Type
REMARK                         _______ _______ _______ _____ _____    ______ ____
ROOT
ATOM      1  C   LIG    1       24.382 -22.826   6.880  0.00  0.00    +0.120 A 
ATOM      2  C   LIG    1       24.261 -21.476   6.549  0.00  0.00    +0.046 A 
ATOM      3  C   LIG    1       25.390 -20.648   6.547  0.00  0.00    +0.012 A 
ATOM      4  C   LIG    1       26.652 -21.164   6.872  0.00  0.00    -0.011 A 
ATOM      5  C   LIG    1       26.768 -22.516   7.209  0.00  0.00    +0.012 A 
ATOM      6  C   LIG    1       25.639 -23.338   7.210  0.00  0.00    +0.046 A 
ENDROOT
BRANCH   4   7
ATOM      7  C   LIG    1       27.824 -20.290   6.890  0.00  0.00    +0.028 A 
ATOM      8  S   LIG    1       28.212 -19.440   5.442  0.00  0.00    -0.051 S 
ATOM      9  S   LIG    1       29.856 -18.531   6.243  0.00  0.00    -0.044 S 
ATOM     10  C   LIG    1       29.717 -19.203   7.862  0.00  0.00    +0.064 A 
ATOM     11  S   LIG    1       30.772 -18.821   9.099  0.00  0.00    -0.044 S 
ATOM     12  C   LIG    1       28.573 -20.129   7.986  0.00  0.00    +0.039 A 
ENDBRANCH   4   7
BRANCH   1  14
ATOM     13  C   LIG    1       23.643 -25.038   6.417  0.00  0.00    +0.277 C 
ATOM     14  O   LIG    1       23.364 -23.738   6.920  0.00  0.00    -0.495 OA
ENDBRANCH   1  14
TORSDOF 2
ENDMDL
