MODEL 1
REMARK VINA RESULT:      -5.9      0.000      0.000
REMARK  Name = *****
REMARK                            x       y       z     vdW  Elec       q    Type
REMARK                         _______ _______ _______ _____ _____    ______ ____
ROOT
ATOM      1  C   LIG    1       26.255 -13.507   3.145  0.00  0.00    +0.027 A 
ATOM      2  C   LIG    1       26.360 -14.899   3.032  0.00  0.00    +0.051 A 
ATOM      3  C   LIG    1       25.354 -15.759   3.459  0.00  0.00    +0.073 A 
ATOM      4  C   LIG    1       24.177 -15.192   3.981  0.00  0.00    +0.001 A 
ATOM      5  C   LIG    1       23.162 -16.057   4.399  0.00  0.00    +0.020 A 
ATOM      6  C   LIG    1       23.326 -17.440   4.283  0.00  0.00    +0.001 A 
ATOM      7  C   LIG    1       24.536 -17.917   3.748  0.00  0.00    +0.073 A 
ATOM      8  C   LIG    1       24.696 -19.294   3.619  0.00  0.00    +0.051 A 
ATOM      9  C   LIG    1       23.719 -20.205   4.038  0.00  0.00    +0.027 A 
ATOM     10  C   LIG    1       22.507 -19.711   4.516  0.00  0.00    +0.023 A 
ATOM     11  C   LIG    1       22.316 -18.337   4.661  0.00  0.00    +0.012 A 
ATOM     12  C   LIG    1       24.034 -13.798   4.052  0.00  0.00    +0.012 A 
ATOM     13  N   LIG    1       25.523 -17.091   3.351  0.00  0.00    -0.247 NA
ATOM     14  C   LIG    1       25.061 -12.964   3.612  0.00  0.00    +0.023 A 
ENDROOT
BRANCH   1  15
ATOM     15  N   LIG    1       27.230 -12.675   2.580  0.00  0.00    -0.358 N 
ATOM     16  H   LIG    1       27.876 -13.159   1.963  0.00  0.00    +0.142 HD
ATOM     17  H   LIG    1       27.709 -12.082   3.250  0.00  0.00    +0.142 HD
ENDBRANCH   1  15
BRANCH   9  18
ATOM     18  N   LIG    1       23.859 -21.571   3.764  0.00  0.00    -0.358 N 
ATOM     19  H   LIG    1       24.644 -21.790   3.157  0.00  0.00    +0.142 HD
ATOM     20  H   LIG    1       23.833 -22.164   4.587  0.00  0.00    +0.142 HD
ENDBRANCH   9  18
TORSDOF 2
ENDMDL
MODEL 2
REMARK VINA RESULT:      -5.5      1.383      2.309
REMARK  Name = *****
REMARK                            x       y       z     vdW  Elec       q    Type
REMARK                         _______ _______ _______ _____ _____    ______ ____
ROOT
ATOM      1  C   LIG    1       24.521 -13.550   3.781  0.00  0.00    +0.027 A 
ATOM      2  C   LIG    1       23.655 -14.593   4.131  0.00  0.00    +0.051 A 
ATOM      3  C   LIG    1       24.007 -15.931   3.991  0.00  0.00    +0.073 A 
ATOM      4  C   LIG    1       25.298 -16.230   3.520  0.00  0.00    +0.001 A 
ATOM      5  C   LIG    1       25.654 -17.576   3.391  0.00  0.00    +0.020 A 
ATOM      6  C   LIG    1       24.744 -18.579   3.736  0.00  0.00    +0.001 A 
ATOM      7  C   LIG    1       23.475 -18.187   4.198  0.00  0.00    +0.073 A 
ATOM      8  C   LIG    1       22.572 -19.183   4.556  0.00  0.00    +0.051 A 
ATOM      9  C   LIG    1       22.871 -20.546   4.429  0.00  0.00    +0.027 A 
ATOM     10  C   LIG    1       24.150 -20.913   4.019  0.00  0.00    +0.023 A 
ATOM     11  C   LIG    1       25.077 -19.939   3.651  0.00  0.00    +0.012 A 
ATOM     12  C   LIG    1       26.197 -15.197   3.214  0.00  0.00    +0.012 A 
ATOM     13  N   LIG    1       23.121 -16.892   4.318  0.00  0.00    -0.247 NA
ATOM     14  C   LIG    1       25.814 -13.866   3.369  0.00  0.00    +0.023 A 
ENDROOT
BRANCH   1  15
ATOM     15  N   LIG    1       24.181 -12.221   4.064  0.00  0.00    -0.358 N 
ATOM     16  H   LIG    1       23.256 -11.956   3.739  0.00  0.00    +0.142 HD
ATOM     17  H   LIG    1       24.890 -11.545   3.798  0.00  0.00    +0.142 HD
ENDBRANCH   1  15
BRANCH   9  18
ATOM     18  N   LIG    1       21.990 -21.514   4.928  0.00  0.00    -0.358 N 
ATOM     19  H   LIG    1       21.957 -21.556   5.942  0.00  0.00    +0.142 HD
ATOM     20  H   LIG    1       21.063 -21.483   4.514  0.00  0.00    +0.142 HD
ENDBRANCH   9  18
TORSDOF 2
ENDMDL
MODEL 3
REMARK VINA RESULT:      -5.4      1.353      6.062
REMARK  Name = *****
REMARK                            x       y       z     vdW  Elec       q    Type
REMARK                         _______ _______ _______ _____ _____    ______ ____
ROOT
ATOM      1  C   LIG    1       22.915 -20.456   4.522  0.00  0.00    +0.027 A 
ATOM      2  C   LIG    1       22.604 -19.092   4.581  0.00  0.00    +0.051 A 
ATOM      3  C   LIG    1       23.515 -18.104   4.224  0.00  0.00    +0.073 A 
ATOM      4  C   LIG    1       24.775 -18.508   3.749  0.00  0.00    +0.001 A 
ATOM      5  C   LIG    1       25.686 -17.513   3.380  0.00  0.00    +0.020 A 
ATOM      6  C   LIG    1       25.331 -16.165   3.477  0.00  0.00    +0.001 A 
ATOM      7  C   LIG    1       24.049 -15.855   3.962  0.00  0.00    +0.073 A 
ATOM      8  C   LIG    1       23.688 -14.514   4.047  0.00  0.00    +0.051 A 
ATOM      9  C   LIG    1       24.568 -13.478   3.708  0.00  0.00    +0.027 A 
ATOM     10  C   LIG    1       25.813 -13.807   3.180  0.00  0.00    +0.023 A 
ATOM     11  C   LIG    1       26.207 -15.142   3.085  0.00  0.00    +0.012 A 
ATOM     12  C   LIG    1       25.085 -19.871   3.633  0.00  0.00    +0.012 A 
ATOM     13  N   LIG    1       23.168 -16.807   4.328  0.00  0.00    -0.247 NA
ATOM     14  C   LIG    1       24.147 -20.836   3.996  0.00  0.00    +0.023 A 
ENDROOT
BRANCH   1  15
ATOM     15  N   LIG    1       21.927 -21.420   4.759  0.00  0.00    -0.358 N 
ATOM     16  H   LIG    1       21.864 -21.714   5.729  0.00  0.00    +0.142 HD
ATOM     17  H   LIG    1       21.953 -22.208   4.119  0.00  0.00    +0.142 HD
ENDBRANCH   1  15
BRANCH   9  18
ATOM     18  N   LIG    1       24.121 -12.151   3.675  0.00  0.00    -0.358 N 
ATOM     19  H   LIG    1       24.586 -11.544   4.344  0.00  0.00    +0.142 HD
ATOM     20  H   LIG    1       24.091 -11.746   2.744  0.00  0.00    +0.142 HD
ENDBRANCH   9  18
TORSDOF 2
ENDMDL
MODEL 4
REMARK VINA RESULT:      -5.1      0.358      5.643
REMARK  Name = *****
REMARK                            x       y       z     vdW  Elec       q    Type
REMARK                         _______ _______ _______ _____ _____    ______ ____
ROOT
ATOM      1  C   LIG    1       23.665 -20.182   3.953  0.00  0.00    +0.027 A 
ATOM      2  C   LIG    1       24.747 -19.346   3.652  0.00  0.00    +0.051 A 
ATOM      3  C   LIG    1       24.660 -17.960   3.727  0.00  0.00    +0.073 A 
ATOM      4  C   LIG    1       23.448 -17.396   4.164  0.00  0.00    +0.001 A 
ATOM      5  C   LIG    1       23.365 -16.003   4.250  0.00  0.00    +0.020 A 
ATOM      6  C   LIG    1       24.469 -15.213   3.918  0.00  0.00    +0.001 A 
ATOM      7  C   LIG    1       25.641 -15.863   3.491  0.00  0.00    +0.073 A 
ATOM      8  C   LIG    1       26.746 -15.080   3.173  0.00  0.00    +0.051 A 
ATOM      9  C   LIG    1       26.712 -13.680   3.225  0.00  0.00    +0.027 A 
ATOM     10  C   LIG    1       25.560 -13.058   3.699  0.00  0.00    +0.023 A 
ATOM     11  C   LIG    1       24.434 -13.815   4.023  0.00  0.00    +0.012 A 
ATOM     12  C   LIG    1       22.370 -18.221   4.520  0.00  0.00    +0.012 A 
ATOM     13  N   LIG    1       25.726 -17.205   3.398  0.00  0.00    -0.247 NA
ATOM     14  C   LIG    1       22.492 -19.608   4.437  0.00  0.00    +0.023 A 
ENDROOT
BRANCH   1  15
ATOM     15  N   LIG    1       23.835 -21.572   3.997  0.00  0.00    -0.358 N 
ATOM     16  H   LIG    1       23.129 -22.088   3.480  0.00  0.00    +0.142 HD
ATOM     17  H   LIG    1       23.975 -21.944   4.931  0.00  0.00    +0.142 HD
ENDBRANCH   1  15
BRANCH   9  18
ATOM     18  N   LIG    1       27.883 -12.936   3.032  0.00  0.00    -0.358 N 
ATOM     19  H   LIG    1       27.781 -11.947   3.244  0.00  0.00    +0.142 HD
ATOM     20  H   LIG    1       28.706 -13.339   3.466  0.00  0.00    +0.142 HD
ENDBRANCH   9  18
TORSDOF 2
ENDMDL
