MODEL 1
REMARK VINA RESULT:      -5.7      0.000      0.000
REMARK  Name = *****
REMARK                            x       y       z     vdW  Elec       q    Type
REMARK                         _______ _______ _______ _____ _____    ______ ____
ROOT
ATOM      1  C   LIG    1       26.616 -29.072  11.259  0.00  0.00    +0.129 C 
ATOM      2  C   LIG    1       25.289 -29.707  11.796  0.00  0.00    +0.061 C 
ATOM      3  C   LIG    1       25.561 -30.729  12.915  0.00  0.00    +0.190 C 
ATOM      4  C   LIG    1       24.287 -31.195  13.588  0.00  0.00    +0.141 C 
ATOM      5  C   LIG    1       23.140 -30.489  13.548  0.00  0.00    +0.047 C 
ATOM      6  C   LIG    1       22.990 -29.155  12.855  0.00  0.00    +0.062 C 
ATOM      7  C   LIG    1       22.204 -28.165  13.792  0.00  0.00    +0.097 C 
ATOM      8  C   LIG    1       22.325 -26.724  13.278  0.00  0.00    +0.047 C 
ATOM      9  C   LIG    1       20.795 -28.745  14.012  0.00  0.00    +0.017 A 
ATOM     10  C   LIG    1       20.714 -30.144  14.281  0.00  0.00    +0.071 A 
ATOM     11  C   LIG    1       19.486 -30.767  14.580  0.00  0.00    +0.128 A 
ATOM     12  C   LIG    1       18.310 -30.040  14.594  0.00  0.00    +0.047 A 
ATOM     13  C   LIG    1       18.355 -28.681  14.318  0.00  0.00    +0.024 A 
ATOM     14  C   LIG    1       19.573 -28.034  14.034  0.00  0.00    +0.048 A 
ATOM     15 CL   LIG    1       19.381 -26.347  13.711  0.00  0.00    -0.083 Cl
ATOM     16  C   LIG    1       21.926 -31.005  14.238  0.00  0.00    +0.197 C 
ATOM     17  O   LIG    1       21.903 -32.141  14.713  0.00  0.00    -0.287 OA
ATOM     18  C   LIG    1       26.464 -30.000  13.931  0.00  0.00    +0.210 C 
ATOM     19  O   LIG    1       26.049 -29.508  14.982  0.00  0.00    -0.288 OA
ATOM     20  C   LIG    1       27.825 -29.678  13.431  0.00  0.00    +0.121 C 
ATOM     21  C   LIG    1       24.340 -28.605  12.326  0.00  0.00    +0.020 C 
ATOM     22  C   LIG    1       27.851 -29.234  12.158  0.00  0.00    +0.127 C 
ENDROOT
BRANCH  20  23
ATOM     23  C   LIG    1       28.995 -29.884  14.316  0.00  0.00    +0.248 C 
ATOM     24  O   LIG    1       29.127 -30.890  15.003  0.00  0.00    -0.270 OA
ATOM     25  N   LIG    1       29.940 -28.907  14.322  0.00  0.00    -0.325 N 
ATOM     26  H   LIG    1       29.906 -28.157  13.639  0.00  0.00    +0.145 HD
ATOM     27  H   LIG    1       30.784 -29.058  14.854  0.00  0.00    +0.145 HD
ENDBRANCH  20  23
BRANCH   1  29
ATOM     28  C   LIG    1       26.444 -28.461   8.892  0.00  0.00    +0.105 C 
ATOM     29  N   LIG    1       27.008 -29.406   9.860  0.00  0.00    -0.298 NA
ATOM     30  C   LIG    1       26.677 -30.782   9.465  0.00  0.00    +0.105 C 
ENDBRANCH   1  29
BRANCH   3  31
ATOM     31  O   LIG    1       26.192 -31.880  12.361  0.00  0.00    -0.373 OA
ATOM     32  H   LIG    1       26.851 -32.157  13.034  0.00  0.00    +0.211 HD
ENDBRANCH   3  31
BRANCH   4  33
ATOM     33  O   LIG    1       24.407 -32.437  14.199  0.00  0.00    -0.507 OA
ATOM     34  H   LIG    1       25.353 -32.710  14.165  0.00  0.00    +0.292 HD
ENDBRANCH   4  33
BRANCH   7  35
ATOM     35  O   LIG    1       22.791 -28.159  15.103  0.00  0.00    -0.384 OA
ATOM     36  H   LIG    1       23.656 -28.608  15.094  0.00  0.00    +0.211 HD
ENDBRANCH   7  35
BRANCH  11  37
ATOM     37  O   LIG    1       19.355 -32.102  14.860  0.00  0.00    -0.506 OA
ATOM     38  H   LIG    1       18.482 -32.243  15.288  0.00  0.00    +0.292 HD
ENDBRANCH  11  37
BRANCH  22  39
ATOM     39  O   LIG    1       29.046 -28.910  11.518  0.00  0.00    -0.509 OA
ATOM     40  H   LIG    1       29.739 -29.358  12.058  0.00  0.00    +0.292 HD
ENDBRANCH  22  39
TORSDOF 7
ENDMDL
MODEL 2
REMARK VINA RESULT:      -5.1      4.013      6.020
REMARK  Name = *****
REMARK                            x       y       z     vdW  Elec       q    Type
REMARK                         _______ _______ _______ _____ _____    ______ ____
ROOT
ATOM      1  C   LIG    1       24.443 -31.876   6.489  0.00  0.00    +0.129 C 
ATOM      2  C   LIG    1       24.750 -32.191   7.992  0.00  0.00    +0.061 C 
ATOM      3  C   LIG    1       25.728 -31.167   8.598  0.00  0.00    +0.190 C 
ATOM      4  C   LIG    1       25.871 -31.328  10.096  0.00  0.00    +0.141 C 
ATOM      5  C   LIG    1       24.946 -31.948  10.856  0.00  0.00    +0.047 C 
ATOM      6  C   LIG    1       23.660 -32.530  10.317  0.00  0.00    +0.062 C 
ATOM      7  C   LIG    1       22.467 -32.119  11.257  0.00  0.00    +0.097 C 
ATOM      8  C   LIG    1       21.122 -32.397  10.574  0.00  0.00    +0.047 C 
ATOM      9  C   LIG    1       22.724 -32.739  12.642  0.00  0.00    +0.017 A 
ATOM     10  C   LIG    1       24.054 -32.641  13.150  0.00  0.00    +0.071 A 
ATOM     11  C   LIG    1       24.386 -33.100  14.441  0.00  0.00    +0.128 A 
ATOM     12  C   LIG    1       23.430 -33.687  15.248  0.00  0.00    +0.047 A 
ATOM     13  C   LIG    1       22.133 -33.814  14.774  0.00  0.00    +0.024 A 
ATOM     14  C   LIG    1       21.774 -33.348  13.495  0.00  0.00    +0.048 A 
ATOM     15 CL   LIG    1       20.110 -33.623  13.118  0.00  0.00    -0.083 Cl
ATOM     16  C   LIG    1       25.150 -32.065  12.326  0.00  0.00    +0.197 C 
ATOM     17  O   LIG    1       26.222 -31.748  12.843  0.00  0.00    -0.287 OA
ATOM     18  C   LIG    1       25.137 -29.782   8.265  0.00  0.00    +0.210 C 
ATOM     19  O   LIG    1       24.499 -29.102   9.072  0.00  0.00    -0.288 OA
ATOM     20  C   LIG    1       25.139 -29.437   6.821  0.00  0.00    +0.121 C 
ATOM     21  C   LIG    1       23.441 -32.201   8.818  0.00  0.00    +0.020 C 
ATOM     22  C   LIG    1       24.798 -30.460   6.012  0.00  0.00    +0.127 C 
ENDROOT
BRANCH  20  23
ATOM     23  C   LIG    1       25.525 -28.070   6.399  0.00  0.00    +0.248 C 
ATOM     24  O   LIG    1       25.179 -27.594   5.324  0.00  0.00    -0.270 OA
ATOM     25  N   LIG    1       26.275 -27.347   7.272  0.00  0.00    -0.325 N 
ATOM     26  H   LIG    1       26.424 -27.681   8.219  0.00  0.00    +0.145 HD
ATOM     27  H   LIG    1       26.484 -26.385   7.045  0.00  0.00    +0.145 HD
ENDBRANCH  20  23
BRANCH   1  29
ATOM     28  C   LIG    1       23.854 -33.586   4.834  0.00  0.00    +0.105 C 
ATOM     29  N   LIG    1       24.947 -32.850   5.478  0.00  0.00    -0.298 NA
ATOM     30  C   LIG    1       25.940 -33.794   6.008  0.00  0.00    +0.105 C 
ENDBRANCH   1  29
BRANCH   3  31
ATOM     31  O   LIG    1       27.020 -31.353   8.027  0.00  0.00    -0.373 OA
ATOM     32  H   LIG    1       26.861 -31.839   7.189  0.00  0.00    +0.211 HD
ENDBRANCH   3  31
BRANCH   4  33
ATOM     33  O   LIG    1       27.067 -30.825  10.595  0.00  0.00    -0.507 OA
ATOM     34  H   LIG    1       27.694 -30.715   9.844  0.00  0.00    +0.292 HD
ENDBRANCH   4  33
BRANCH   7  35
ATOM     35  O   LIG    1       22.495 -30.702  11.495  0.00  0.00    -0.384 OA
ATOM     36  H   LIG    1       21.628 -30.392  11.816  0.00  0.00    +0.211 HD
ENDBRANCH   7  35
BRANCH  11  37
ATOM     37  O   LIG    1       25.641 -33.016  14.982  0.00  0.00    -0.506 OA
ATOM     38  H   LIG    1       26.160 -33.794  14.682  0.00  0.00    +0.292 HD
ENDBRANCH  11  37
BRANCH  22  39
ATOM     39  O   LIG    1       24.775 -30.322   4.625  0.00  0.00    -0.509 OA
ATOM     40  H   LIG    1       24.943 -31.234   4.288  0.00  0.00    +0.292 HD
ENDBRANCH  22  39
TORSDOF 7
ENDMDL
MODEL 3
REMARK VINA RESULT:      -4.9      2.799      4.897
REMARK  Name = *****
REMARK                            x       y       z     vdW  Elec       q    Type
REMARK                         _______ _______ _______ _____ _____    ______ ____
ROOT
ATOM      1  C   LIG    1       24.124 -31.734  13.266  0.00  0.00    +0.129 C 
ATOM      2  C   LIG    1       23.049 -30.684  13.708  0.00  0.00    +0.061 C 
ATOM      3  C   LIG    1       23.111 -29.410  12.846  0.00  0.00    +0.190 C 
ATOM      4  C   LIG    1       21.950 -28.477  13.118  0.00  0.00    +0.141 C 
ATOM      5  C   LIG    1       20.794 -28.892  13.672  0.00  0.00    +0.047 C 
ATOM      6  C   LIG    1       20.509 -30.323  14.065  0.00  0.00    +0.062 C 
ATOM      7  C   LIG    1       19.067 -30.720  13.579  0.00  0.00    +0.097 C 
ATOM      8  C   LIG    1       18.872 -32.241  13.654  0.00  0.00    +0.047 C 
ATOM      9  C   LIG    1       18.057 -29.818  14.311  0.00  0.00    +0.017 A 
ATOM     10  C   LIG    1       18.386 -28.432  14.401  0.00  0.00    +0.071 A 
ATOM     11  C   LIG    1       17.499 -27.500  14.976  0.00  0.00    +0.128 A 
ATOM     12  C   LIG    1       16.286 -27.909  15.498  0.00  0.00    +0.047 A 
ATOM     13  C   LIG    1       15.947 -29.254  15.442  0.00  0.00    +0.024 A 
ATOM     14  C   LIG    1       16.810 -30.200  14.857  0.00  0.00    +0.048 A 
ATOM     15 CL   LIG    1       16.183 -31.809  14.913  0.00  0.00    -0.083 Cl
ATOM     16  C   LIG    1       19.691 -27.920  13.905  0.00  0.00    +0.197 C 
ATOM     17  O   LIG    1       19.869 -26.711  13.748  0.00  0.00    -0.287 OA
ATOM     18  C   LIG    1       23.072 -29.897  11.383  0.00  0.00    +0.210 C 
ATOM     19  O   LIG    1       22.055 -29.880  10.687  0.00  0.00    -0.288 OA
ATOM     20  C   LIG    1       24.272 -30.656  10.950  0.00  0.00    +0.121 C 
ATOM     21  C   LIG    1       21.630 -31.296  13.619  0.00  0.00    +0.020 C 
ATOM     22  C   LIG    1       24.736 -31.522  11.873  0.00  0.00    +0.127 C 
ENDROOT
BRANCH  20  23
ATOM     23  C   LIG    1       24.856 -30.396   9.613  0.00  0.00    +0.248 C 
ATOM     24  O   LIG    1       26.020 -30.666   9.343  0.00  0.00    -0.270 OA
ATOM     25  N   LIG    1       24.031 -29.853   8.679  0.00  0.00    -0.325 N 
ATOM     26  H   LIG    1       23.034 -29.779   8.856  0.00  0.00    +0.145 HD
ATOM     27  H   LIG    1       24.380 -29.740   7.738  0.00  0.00    +0.145 HD
ENDBRANCH  20  23
BRANCH   1  29
ATOM     28  C   LIG    1       25.261 -33.423  14.629  0.00  0.00    +0.105 C 
ATOM     29  N   LIG    1       25.230 -32.014  14.226  0.00  0.00    -0.298 NA
ATOM     30  C   LIG    1       25.213 -31.154  15.416  0.00  0.00    +0.105 C 
ENDBRANCH   1  29
BRANCH   3  31
ATOM     31  O   LIG    1       24.307 -28.695  13.144  0.00  0.00    -0.373 OA
ATOM     32  H   LIG    1       24.088 -28.149  13.930  0.00  0.00    +0.211 HD
ENDBRANCH   3  31
BRANCH   4  33
ATOM     33  O   LIG    1       22.216 -27.153  12.790  0.00  0.00    -0.507 OA
ATOM     34  H   LIG    1       21.379 -26.639  12.872  0.00  0.00    +0.292 HD
ENDBRANCH   4  33
BRANCH   7  35
ATOM     35  O   LIG    1       18.904 -30.378  12.193  0.00  0.00    -0.384 OA
ATOM     36  H   LIG    1       18.956 -29.412  12.070  0.00  0.00    +0.211 HD
ENDBRANCH   7  35
BRANCH  11  37
ATOM     37  O   LIG    1       17.758 -26.159  15.073  0.00  0.00    -0.506 OA
ATOM     38  H   LIG    1       18.273 -25.885  14.283  0.00  0.00    +0.292 HD
ENDBRANCH  11  37
BRANCH  22  39
ATOM     39  O   LIG    1       25.872 -32.298  11.646  0.00  0.00    -0.509 OA
ATOM     40  H   LIG    1       26.043 -32.201  10.679  0.00  0.00    +0.292 HD
ENDBRANCH  22  39
TORSDOF 7
ENDMDL
MODEL 4
REMARK VINA RESULT:      -4.7      2.630      3.723
REMARK  Name = *****
REMARK                            x       y       z     vdW  Elec       q    Type
REMARK                         _______ _______ _______ _____ _____    ______ ____
ROOT
ATOM      1  C   LIG    1       27.250 -26.951  14.486  0.00  0.00    +0.129 C 
ATOM      2  C   LIG    1       26.229 -27.606  13.495  0.00  0.00    +0.061 C 
ATOM      3  C   LIG    1       26.908 -28.648  12.588  0.00  0.00    +0.190 C 
ATOM      4  C   LIG    1       25.907 -29.440  11.775  0.00  0.00    +0.141 C 
ATOM      5  C   LIG    1       24.610 -29.554  12.123  0.00  0.00    +0.047 C 
ATOM      6  C   LIG    1       24.009 -28.934  13.363  0.00  0.00    +0.062 C 
ATOM      7  C   LIG    1       23.089 -29.988  14.082  0.00  0.00    +0.097 C 
ATOM      8  C   LIG    1       22.737 -29.520  15.500  0.00  0.00    +0.047 C 
ATOM      9  C   LIG    1       21.938 -30.341  13.123  0.00  0.00    +0.017 A 
ATOM     10  C   LIG    1       22.289 -30.564  11.757  0.00  0.00    +0.071 A 
ATOM     11  C   LIG    1       21.331 -30.972  10.808  0.00  0.00    +0.128 A 
ATOM     12  C   LIG    1       20.008 -31.145  11.169  0.00  0.00    +0.047 A 
ATOM     13  C   LIG    1       19.634 -30.917  12.485  0.00  0.00    +0.024 A 
ATOM     14  C   LIG    1       20.576 -30.525  13.454  0.00  0.00    +0.048 A 
ATOM     15 CL   LIG    1       19.878 -30.290  15.018  0.00  0.00    -0.083 Cl
ATOM     16  C   LIG    1       23.681 -30.354  11.279  0.00  0.00    +0.197 C 
ATOM     17  O   LIG    1       24.037 -30.785  10.181  0.00  0.00    -0.287 OA
ATOM     18  C   LIG    1       27.681 -29.585  13.540  0.00  0.00    +0.210 C 
ATOM     19  O   LIG    1       27.269 -30.693  13.887  0.00  0.00    -0.288 OA
ATOM     20  C   LIG    1       28.826 -28.950  14.240  0.00  0.00    +0.121 C 
ATOM     21  C   LIG    1       25.076 -28.280  14.278  0.00  0.00    +0.020 C 
ATOM     22  C   LIG    1       28.576 -27.701  14.679  0.00  0.00    +0.127 C 
ENDROOT
BRANCH  20  23
ATOM     23  C   LIG    1       30.102 -29.692  14.372  0.00  0.00    +0.248 C 
ATOM     24  O   LIG    1       30.223 -30.662  15.111  0.00  0.00    -0.270 OA
ATOM     25  N   LIG    1       31.145 -29.259  13.615  0.00  0.00    -0.325 N 
ATOM     26  H   LIG    1       30.998 -28.561  12.892  0.00  0.00    +0.145 HD
ATOM     27  H   LIG    1       32.001 -29.794  13.625  0.00  0.00    +0.145 HD
ENDBRANCH  20  23
BRANCH   1  29
ATOM     28  C   LIG    1       27.317 -24.720  15.500  0.00  0.00    +0.105 C 
ATOM     29  N   LIG    1       27.554 -25.505  14.284  0.00  0.00    -0.298 NA
ATOM     30  C   LIG    1       26.838 -24.901  13.153  0.00  0.00    +0.105 C 
ENDBRANCH   1  29
BRANCH   3  31
ATOM     31  O   LIG    1       27.770 -27.984  11.669  0.00  0.00    -0.373 OA
ATOM     32  H   LIG    1       28.353 -27.424  12.226  0.00  0.00    +0.211 HD
ENDBRANCH   3  31
BRANCH   4  33
ATOM     33  O   LIG    1       26.444 -29.987  10.616  0.00  0.00    -0.507 OA
ATOM     34  H   LIG    1       26.099 -30.904  10.517  0.00  0.00    +0.292 HD
ENDBRANCH   4  33
BRANCH   7  35
ATOM     35  O   LIG    1       23.800 -31.226  14.249  0.00  0.00    -0.384 OA
ATOM     36  H   LIG    1       23.343 -31.950  13.781  0.00  0.00    +0.211 HD
ENDBRANCH   7  35
BRANCH  11  37
ATOM     37  O   LIG    1       21.617 -31.214   9.490  0.00  0.00    -0.506 OA
ATOM     38  H   LIG    1       20.802 -31.545   9.052  0.00  0.00    +0.292 HD
ENDBRANCH  11  37
BRANCH  22  39
ATOM     39  O   LIG    1       29.547 -26.945  15.334  0.00  0.00    -0.509 OA
ATOM     40  H   LIG    1       30.382 -27.149  14.849  0.00  0.00    +0.292 HD
ENDBRANCH  22  39
TORSDOF 7
ENDMDL
MODEL 5
REMARK VINA RESULT:      -4.6      3.651      5.780
REMARK  Name = *****
REMARK                            x       y       z     vdW  Elec       q    Type
REMARK                         _______ _______ _______ _____ _____    ______ ____
ROOT
ATOM      1  C   LIG    1       25.548 -29.436   6.663  0.00  0.00    +0.129 C 
ATOM      2  C   LIG    1       24.854 -29.545   8.062  0.00  0.00    +0.061 C 
ATOM      3  C   LIG    1       24.372 -30.979   8.347  0.00  0.00    +0.190 C 
ATOM      4  C   LIG    1       23.893 -31.150   9.773  0.00  0.00    +0.141 C 
ATOM      5  C   LIG    1       24.261 -30.324  10.772  0.00  0.00    +0.047 C 
ATOM      6  C   LIG    1       25.202 -29.155  10.599  0.00  0.00    +0.062 C 
ATOM      7  C   LIG    1       26.248 -29.149  11.774  0.00  0.00    +0.097 C 
ATOM      8  C   LIG    1       27.410 -28.198  11.457  0.00  0.00    +0.047 C 
ATOM      9  C   LIG    1       25.477 -28.946  13.091  0.00  0.00    +0.017 A 
ATOM     10  C   LIG    1       24.277 -29.703  13.253  0.00  0.00    +0.071 A 
ATOM     11  C   LIG    1       23.535 -29.660  14.449  0.00  0.00    +0.128 A 
ATOM     12  C   LIG    1       23.936 -28.856  15.500  0.00  0.00    +0.047 A 
ATOM     13  C   LIG    1       25.087 -28.095  15.365  0.00  0.00    +0.024 A 
ATOM     14  C   LIG    1       25.854 -28.135  14.185  0.00  0.00    +0.048 A 
ATOM     15 CL   LIG    1       27.235 -27.096  14.243  0.00  0.00    -0.083 Cl
ATOM     16  C   LIG    1       23.754 -30.555  12.152  0.00  0.00    +0.197 C 
ATOM     17  O   LIG    1       22.879 -31.394  12.372  0.00  0.00    -0.287 OA
ATOM     18  C   LIG    1       25.593 -31.886   8.083  0.00  0.00    +0.210 C 
ATOM     19  O   LIG    1       26.310 -32.339   8.977  0.00  0.00    -0.288 OA
ATOM     20  C   LIG    1       26.022 -31.950   6.664  0.00  0.00    +0.121 C 
ATOM     21  C   LIG    1       25.826 -29.098   9.181  0.00  0.00    +0.020 C 
ATOM     22  C   LIG    1       25.992 -30.762   6.027  0.00  0.00    +0.127 C 
ENDROOT
BRANCH  20  23
ATOM     23  C   LIG    1       26.406 -33.255   6.076  0.00  0.00    +0.248 C 
ATOM     24  O   LIG    1       25.743 -33.800   5.202  0.00  0.00    -0.270 OA
ATOM     25  N   LIG    1       27.549 -33.825   6.541  0.00  0.00    -0.325 N 
ATOM     26  H   LIG    1       28.174 -33.300   7.145  0.00  0.00    +0.145 HD
ATOM     27  H   LIG    1       27.876 -34.674   6.103  0.00  0.00    +0.145 HD
ENDBRANCH  20  23
BRANCH   1  29
ATOM     28  C   LIG    1       24.641 -27.243   6.051  0.00  0.00    +0.105 C 
ATOM     29  N   LIG    1       24.848 -28.629   5.622  0.00  0.00    -0.298 NA
ATOM     30  C   LIG    1       23.574 -29.211   5.179  0.00  0.00    +0.105 C 
ENDBRANCH   1  29
BRANCH   3  31
ATOM     31  O   LIG    1       23.277 -31.289   7.491  0.00  0.00    -0.373 OA
ATOM     32  H   LIG    1       22.753 -30.460   7.439  0.00  0.00    +0.211 HD
ENDBRANCH   3  31
BRANCH   4  33
ATOM     33  O   LIG    1       23.001 -32.204   9.933  0.00  0.00    -0.507 OA
ATOM     34  H   LIG    1       22.101 -31.829  10.081  0.00  0.00    +0.292 HD
ENDBRANCH   4  33
BRANCH   7  35
ATOM     35  O   LIG    1       26.841 -30.451  11.910  0.00  0.00    -0.384 OA
ATOM     36  H   LIG    1       27.485 -30.460  12.642  0.00  0.00    +0.211 HD
ENDBRANCH   7  35
BRANCH  11  37
ATOM     37  O   LIG    1       22.387 -30.377  14.662  0.00  0.00    -0.506 OA
ATOM     38  H   LIG    1       22.132 -30.809  13.818  0.00  0.00    +0.292 HD
ENDBRANCH  11  37
BRANCH  22  39
ATOM     39  O   LIG    1       26.336 -30.642   4.682  0.00  0.00    -0.509 OA
ATOM     40  H   LIG    1       27.247 -31.016   4.630  0.00  0.00    +0.292 HD
ENDBRANCH  22  39
TORSDOF 7
ENDMDL
MODEL 6
REMARK VINA RESULT:      -4.5      3.727      7.612
REMARK  Name = *****
REMARK                            x       y       z     vdW  Elec       q    Type
REMARK                         _______ _______ _______ _____ _____    ______ ____
ROOT
ATOM      1  C   LIG    1       18.604 -30.449  13.592  0.00  0.00    +0.129 C 
ATOM      2  C   LIG    1       20.092 -30.891  13.797  0.00  0.00    +0.061 C 
ATOM      3  C   LIG    1       20.525 -31.931  12.748  0.00  0.00    +0.190 C 
ATOM      4  C   LIG    1       22.011 -32.212  12.798  0.00  0.00    +0.141 C 
ATOM      5  C   LIG    1       22.898 -31.356  13.342  0.00  0.00    +0.047 C 
ATOM      6  C   LIG    1       22.527 -30.020  13.942  0.00  0.00    +0.062 C 
ATOM      7  C   LIG    1       23.539 -28.924  13.443  0.00  0.00    +0.097 C 
ATOM      8  C   LIG    1       23.005 -27.517  13.749  0.00  0.00    +0.047 C 
ATOM      9  C   LIG    1       24.937 -29.303  13.961  0.00  0.00    +0.017 A 
ATOM     10  C   LIG    1       25.312 -30.676  13.846  0.00  0.00    +0.071 A 
ATOM     11  C   LIG    1       26.597 -31.121  14.212  0.00  0.00    +0.128 A 
ATOM     12  C   LIG    1       27.532 -30.240  14.721  0.00  0.00    +0.047 A 
ATOM     13  C   LIG    1       27.191 -28.902  14.861  0.00  0.00    +0.024 A 
ATOM     14  C   LIG    1       25.919 -28.431  14.487  0.00  0.00    +0.048 A 
ATOM     15 CL   LIG    1       25.719 -26.737  14.763  0.00  0.00    -0.083 Cl
ATOM     16  C   LIG    1       24.348 -31.695  13.352  0.00  0.00    +0.197 C 
ATOM     17  O   LIG    1       24.739 -32.813  13.014  0.00  0.00    -0.287 OA
ATOM     18  C   LIG    1       20.143 -31.324  11.382  0.00  0.00    +0.210 C 
ATOM     19  O   LIG    1       20.950 -30.770  10.633  0.00  0.00    -0.288 OA
ATOM     20  C   LIG    1       18.683 -31.195  11.147  0.00  0.00    +0.121 C 
ATOM     21  C   LIG    1       21.034 -29.665  13.724  0.00  0.00    +0.020 C 
ATOM     22  C   LIG    1       17.989 -30.771  12.222  0.00  0.00    +0.127 C 
ENDROOT
BRANCH  20  23
ATOM     23  C   LIG    1       18.123 -31.553   9.822  0.00  0.00    +0.248 C 
ATOM     24  O   LIG    1       18.206 -32.684   9.359  0.00  0.00    -0.270 OA
ATOM     25  N   LIG    1       17.489 -30.564   9.137  0.00  0.00    -0.325 N 
ATOM     26  H   LIG    1       17.284 -29.678   9.588  0.00  0.00    +0.145 HD
ATOM     27  H   LIG    1       17.029 -30.800   8.269  0.00  0.00    +0.145 HD
ENDBRANCH  20  23
BRANCH   1  29
ATOM     28  C   LIG    1       17.228 -29.709  15.480  0.00  0.00    +0.105 C 
ATOM     29  N   LIG    1       17.629 -30.846  14.648  0.00  0.00    -0.298 NA
ATOM     30  C   LIG    1       18.094 -31.949  15.499  0.00  0.00    +0.105 C 
ENDBRANCH   1  29
BRANCH   3  31
ATOM     31  O   LIG    1       19.853 -33.162  12.997  0.00  0.00    -0.373 OA
ATOM     32  H   LIG    1       20.200 -33.783  12.320  0.00  0.00    +0.211 HD
ENDBRANCH   3  31
BRANCH   4  33
ATOM     33  O   LIG    1       22.358 -33.453  12.278  0.00  0.00    -0.507 OA
ATOM     34  H   LIG    1       21.539 -33.996  12.199  0.00  0.00    +0.292 HD
ENDBRANCH   4  33
BRANCH   7  35
ATOM     35  O   LIG    1       23.664 -28.986  12.012  0.00  0.00    -0.384 OA
ATOM     36  H   LIG    1       23.718 -29.913  11.713  0.00  0.00    +0.211 HD
ENDBRANCH   7  35
BRANCH  11  37
ATOM     37  O   LIG    1       27.012 -32.423  14.108  0.00  0.00    -0.506 OA
ATOM     38  H   LIG    1       26.710 -32.908  14.906  0.00  0.00    +0.292 HD
ENDBRANCH  11  37
BRANCH  22  39
ATOM     39  O   LIG    1       16.604 -30.619  12.189  0.00  0.00    -0.509 OA
ATOM     40  H   LIG    1       16.463 -29.779  11.692  0.00  0.00    +0.292 HD
ENDBRANCH  22  39
TORSDOF 7
ENDMDL
MODEL 7
REMARK VINA RESULT:      -4.4      3.580      6.965
REMARK  Name = *****
REMARK                            x       y       z     vdW  Elec       q    Type
REMARK                         _______ _______ _______ _____ _____    ______ ____
ROOT
ATOM      1  C   LIG    1       25.700 -28.501  12.881  0.00  0.00    +0.129 C 
ATOM      2  C   LIG    1       26.059 -29.470  11.704  0.00  0.00    +0.061 C 
ATOM      3  C   LIG    1       25.607 -30.912  12.000  0.00  0.00    +0.190 C 
ATOM      4  C   LIG    1       25.752 -31.816  10.794  0.00  0.00    +0.141 C 
ATOM      5  C   LIG    1       25.817 -31.347   9.532  0.00  0.00    +0.047 C 
ATOM      6  C   LIG    1       25.731 -29.883   9.168  0.00  0.00    +0.062 C 
ATOM      7  C   LIG    1       24.757 -29.706   7.946  0.00  0.00    +0.097 C 
ATOM      8  C   LIG    1       24.382 -28.228   7.764  0.00  0.00    +0.047 C 
ATOM      9  C   LIG    1       25.364 -30.457   6.747  0.00  0.00    +0.017 A 
ATOM     10  C   LIG    1       25.896 -31.756   7.009  0.00  0.00    +0.071 A 
ATOM     11  C   LIG    1       26.401 -32.567   5.974  0.00  0.00    +0.128 A 
ATOM     12  C   LIG    1       26.421 -32.115   4.668  0.00  0.00    +0.047 A 
ATOM     13  C   LIG    1       25.928 -30.849   4.386  0.00  0.00    +0.024 A 
ATOM     14  C   LIG    1       25.402 -30.028   5.400  0.00  0.00    +0.048 A 
ATOM     15 CL   LIG    1       24.860 -28.495   4.814  0.00  0.00    -0.083 Cl
ATOM     16  C   LIG    1       25.954 -32.296   8.394  0.00  0.00    +0.197 C 
ATOM     17  O   LIG    1       26.169 -33.493   8.589  0.00  0.00    -0.287 OA
ATOM     18  C   LIG    1       24.124 -30.806  12.410  0.00  0.00    +0.210 C 
ATOM     19  O   LIG    1       23.187 -31.056  11.649  0.00  0.00    -0.288 OA
ATOM     20  C   LIG    1       23.885 -30.107  13.698  0.00  0.00    +0.121 C 
ATOM     21  C   LIG    1       25.403 -28.986  10.389  0.00  0.00    +0.020 C 
ATOM     22  C   LIG    1       24.652 -29.013  13.879  0.00  0.00    +0.127 C 
ENDROOT
BRANCH  20  23
ATOM     23  C   LIG    1       22.892 -30.655  14.652  0.00  0.00    +0.248 C 
ATOM     24  O   LIG    1       22.333 -29.957  15.489  0.00  0.00    -0.270 OA
ATOM     25  N   LIG    1       22.608 -31.981  14.548  0.00  0.00    -0.325 N 
ATOM     26  H   LIG    1       22.951 -32.518  13.757  0.00  0.00    +0.145 HD
ATOM     27  H   LIG    1       21.877 -32.362  15.131  0.00  0.00    +0.145 HD
ENDBRANCH  20  23
BRANCH   1  29
ATOM     28  C   LIG    1       27.046 -26.506  13.348  0.00  0.00    +0.105 C 
ATOM     29  N   LIG    1       26.839 -27.925  13.653  0.00  0.00    -0.298 NA
ATOM     30  C   LIG    1       28.099 -28.660  13.486  0.00  0.00    +0.105 C 
ENDBRANCH   1  29
BRANCH   3  31
ATOM     31  O   LIG    1       26.415 -31.457  13.038  0.00  0.00    -0.373 OA
ATOM     32  H   LIG    1       25.943 -31.238  13.870  0.00  0.00    +0.211 HD
ENDBRANCH   3  31
BRANCH   4  33
ATOM     33  O   LIG    1       25.865 -33.162  11.123  0.00  0.00    -0.507 OA
ATOM     34  H   LIG    1       25.322 -33.683  10.487  0.00  0.00    +0.292 HD
ENDBRANCH   4  33
BRANCH   7  35
ATOM     35  O   LIG    1       23.519 -30.390   8.200  0.00  0.00    -0.384 OA
ATOM     36  H   LIG    1       23.601 -31.337   7.985  0.00  0.00    +0.211 HD
ENDBRANCH   7  35
BRANCH  11  37
ATOM     37  O   LIG    1       26.908 -33.825   6.168  0.00  0.00    -0.506 OA
ATOM     38  H   LIG    1       26.419 -34.244   6.909  0.00  0.00    +0.292 HD
ENDBRANCH  11  37
BRANCH  22  39
ATOM     39  O   LIG    1       24.580 -28.251  15.044  0.00  0.00    -0.509 OA
ATOM     40  H   LIG    1       23.613 -28.173  15.224  0.00  0.00    +0.292 HD
ENDBRANCH  22  39
TORSDOF 7
ENDMDL
MODEL 8
REMARK VINA RESULT:      -4.4      3.662      6.336
REMARK  Name = *****
REMARK                            x       y       z     vdW  Elec       q    Type
REMARK                         _______ _______ _______ _____ _____    ______ ____
ROOT
ATOM      1  C   LIG    1       25.421 -31.353  10.914  0.00  0.00    +0.129 C 
ATOM      2  C   LIG    1       25.345 -29.882  11.446  0.00  0.00    +0.061 C 
ATOM      3  C   LIG    1       23.972 -29.576  12.072  0.00  0.00    +0.190 C 
ATOM      4  C   LIG    1       23.950 -28.236  12.777  0.00  0.00    +0.141 C 
ATOM      5  C   LIG    1       25.068 -27.617  13.204  0.00  0.00    +0.047 C 
ATOM      6  C   LIG    1       26.460 -28.184  13.054  0.00  0.00    +0.062 C 
ATOM      7  C   LIG    1       27.245 -28.008  14.405  0.00  0.00    +0.097 C 
ATOM      8  C   LIG    1       28.521 -28.861  14.404  0.00  0.00    +0.047 C 
ATOM      9  C   LIG    1       27.375 -26.500  14.682  0.00  0.00    +0.017 A 
ATOM     10  C   LIG    1       26.209 -25.706  14.465  0.00  0.00    +0.071 A 
ATOM     11  C   LIG    1       26.189 -24.329  14.763  0.00  0.00    +0.128 A 
ATOM     12  C   LIG    1       27.315 -23.696  15.253  0.00  0.00    +0.047 A 
ATOM     13  C   LIG    1       28.470 -24.438  15.456  0.00  0.00    +0.024 A 
ATOM     14  C   LIG    1       28.509 -25.818  15.182  0.00  0.00    +0.048 A 
ATOM     15 CL   LIG    1       30.053 -26.526  15.500  0.00  0.00    -0.083 Cl
ATOM     16  C   LIG    1       24.971 -26.302  13.896  0.00  0.00    +0.197 C 
ATOM     17  O   LIG    1       23.902 -25.692  13.947  0.00  0.00    -0.287 OA
ATOM     18  C   LIG    1       23.713 -30.713  13.081  0.00  0.00    +0.210 C 
ATOM     19  O   LIG    1       23.885 -30.598  14.296  0.00  0.00    -0.288 OA
ATOM     20  C   LIG    1       23.514 -32.051  12.469  0.00  0.00    +0.121 C 
ATOM     21  C   LIG    1       26.455 -29.630  12.495  0.00  0.00    +0.020 C 
ATOM     22  C   LIG    1       24.350 -32.317  11.446  0.00  0.00    +0.127 C 
ENDROOT
BRANCH  20  23
ATOM     23  C   LIG    1       22.444 -32.937  12.986  0.00  0.00    +0.248 C 
ATOM     24  O   LIG    1       21.554 -33.377  12.269  0.00  0.00    -0.270 OA
ATOM     25  N   LIG    1       22.501 -33.263  14.305  0.00  0.00    -0.325 N 
ATOM     26  H   LIG    1       23.322 -33.029  14.856  0.00  0.00    +0.145 HD
ATOM     27  H   LIG    1       21.832 -33.928  14.665  0.00  0.00    +0.145 HD
ENDBRANCH  20  23
BRANCH   1  29
ATOM     28  C   LIG    1       26.882 -31.886   9.019  0.00  0.00    +0.105 C 
ATOM     29  N   LIG    1       25.521 -31.534   9.438  0.00  0.00    -0.298 NA
ATOM     30  C   LIG    1       25.045 -30.378   8.666  0.00  0.00    +0.105 C 
ENDBRANCH   1  29
BRANCH   3  31
ATOM     31  O   LIG    1       22.984 -29.531  11.046  0.00  0.00    -0.373 OA
ATOM     32  H   LIG    1       22.126 -29.599  11.517  0.00  0.00    +0.211 HD
ENDBRANCH   3  31
BRANCH   4  33
ATOM     33  O   LIG    1       22.676 -27.692  12.890  0.00  0.00    -0.507 OA
ATOM     34  H   LIG    1       22.698 -26.992  13.583  0.00  0.00    +0.292 HD
ENDBRANCH   4  33
BRANCH   7  35
ATOM     35  O   LIG    1       26.453 -28.499  15.500  0.00  0.00    -0.384 OA
ATOM     36  H   LIG    1       26.995 -28.576  16.307  0.00  0.00    +0.211 HD
ENDBRANCH   7  35
BRANCH  11  37
ATOM     37  O   LIG    1       25.093 -23.526  14.588  0.00  0.00    -0.506 OA
ATOM     38  H   LIG    1       25.382 -22.700  14.144  0.00  0.00    +0.292 HD
ENDBRANCH  11  37
BRANCH  22  39
ATOM     39  O   LIG    1       24.286 -33.516  10.738  0.00  0.00    -0.509 OA
ATOM     40  H   LIG    1       24.822 -33.347   9.927  0.00  0.00    +0.292 HD
ENDBRANCH  22  39
TORSDOF 7
ENDMDL
MODEL 9
REMARK VINA RESULT:      -4.3      3.661      5.380
REMARK  Name = *****
REMARK                            x       y       z     vdW  Elec       q    Type
REMARK                         _______ _______ _______ _____ _____    ______ ____
ROOT
ATOM      1  C   LIG    1       28.258 -28.930  13.913  0.00  0.00    +0.129 C 
ATOM      2  C   LIG    1       26.947 -29.657  13.460  0.00  0.00    +0.061 C 
ATOM      3  C   LIG    1       25.694 -28.824  13.786  0.00  0.00    +0.190 C 
ATOM      4  C   LIG    1       24.441 -29.408  13.170  0.00  0.00    +0.141 C 
ATOM      5  C   LIG    1       24.468 -30.249  12.117  0.00  0.00    +0.047 C 
ATOM      6  C   LIG    1       25.733 -30.690  11.418  0.00  0.00    +0.062 C 
ATOM      7  C   LIG    1       25.525 -30.607   9.861  0.00  0.00    +0.097 C 
ATOM      8  C   LIG    1       26.870 -30.716   9.131  0.00  0.00    +0.047 C 
ATOM      9  C   LIG    1       24.406 -31.593   9.482  0.00  0.00    +0.017 A 
ATOM     10  C   LIG    1       23.252 -31.606  10.322  0.00  0.00    +0.071 A 
ATOM     11  C   LIG    1       22.133 -32.408  10.024  0.00  0.00    +0.128 A 
ATOM     12  C   LIG    1       22.131 -33.234   8.916  0.00  0.00    +0.047 A 
ATOM     13  C   LIG    1       23.246 -33.257   8.091  0.00  0.00    +0.024 A 
ATOM     14  C   LIG    1       24.369 -32.452   8.359  0.00  0.00    +0.048 A 
ATOM     15 CL   LIG    1       25.638 -32.658   7.204  0.00  0.00    -0.083 Cl
ATOM     16  C   LIG    1       23.195 -30.781  11.559  0.00  0.00    +0.197 C 
ATOM     17  O   LIG    1       22.123 -30.594  12.137  0.00  0.00    -0.287 OA
ATOM     18  C   LIG    1       25.968 -27.420  13.207  0.00  0.00    +0.210 C 
ATOM     19  O   LIG    1       25.507 -27.024  12.135  0.00  0.00    -0.288 OA
ATOM     20  C   LIG    1       27.057 -26.672  13.884  0.00  0.00    +0.121 C 
ATOM     21  C   LIG    1       26.990 -29.948  11.941  0.00  0.00    +0.020 C 
ATOM     22  C   LIG    1       28.129 -27.426  14.197  0.00  0.00    +0.127 C 
ENDROOT
BRANCH  20  23
ATOM     23  C   LIG    1       26.879 -25.230  14.175  0.00  0.00    +0.248 C 
ATOM     24  O   LIG    1       27.783 -24.416  14.031  0.00  0.00    -0.270 OA
ATOM     25  N   LIG    1       25.647 -24.837  14.597  0.00  0.00    -0.325 N 
ATOM     26  H   LIG    1       24.864 -25.481  14.562  0.00  0.00    +0.145 HD
ATOM     27  H   LIG    1       25.476 -23.850  14.725  0.00  0.00    +0.145 HD
ENDBRANCH  20  23
BRANCH   1  29
ATOM     28  C   LIG    1       30.439 -29.732  14.691  0.00  0.00    +0.105 C 
ATOM     29  N   LIG    1       29.025 -29.553  15.030  0.00  0.00    -0.298 NA
ATOM     30  C   LIG    1       28.459 -30.825  15.500  0.00  0.00    +0.105 C 
ENDBRANCH   1  29
BRANCH   3  31
ATOM     31  O   LIG    1       25.499 -28.795  15.197  0.00  0.00    -0.373 OA
ATOM     32  H   LIG    1       24.808 -28.113  15.344  0.00  0.00    +0.211 HD
ENDBRANCH   3  31
BRANCH   4  33
ATOM     33  O   LIG    1       23.275 -29.034  13.827  0.00  0.00    -0.507 OA
ATOM     34  H   LIG    1       22.507 -29.397  13.328  0.00  0.00    +0.292 HD
ENDBRANCH   4  33
BRANCH   7  35
ATOM     35  O   LIG    1       24.995 -29.320   9.504  0.00  0.00    -0.384 OA
ATOM     36  H   LIG    1       25.184 -28.666  10.202  0.00  0.00    +0.211 HD
ENDBRANCH   7  35
BRANCH  11  37
ATOM     37  O   LIG    1       20.996 -32.445  10.787  0.00  0.00    -0.506 OA
ATOM     38  H   LIG    1       21.248 -32.304  11.726  0.00  0.00    +0.292 HD
ENDBRANCH  11  37
BRANCH  22  39
ATOM     39  O   LIG    1       29.233 -26.893  14.861  0.00  0.00    -0.509 OA
ATOM     40  H   LIG    1       29.700 -27.682  15.227  0.00  0.00    +0.292 HD
ENDBRANCH  22  39
TORSDOF 7
ENDMDL
