MODEL 1
REMARK VINA RESULT:      -9.9      0.000      0.000
REMARK  Name = *****
REMARK                            x       y       z     vdW  Elec       q    Type
REMARK                         _______ _______ _______ _____ _____    ______ ____
ROOT
ATOM      1  C   LIG    1       28.922 -20.110   7.390  0.00  0.00    +0.124 A 
ATOM      2  C   LIG    1       28.793 -19.534   6.127  0.00  0.00    +0.067 A 
ATOM      3 CL   LIG    1       30.037 -18.637   5.332  0.00  0.00    -0.082 Cl
ATOM      4  C   LIG    1       27.585 -19.668   5.439  0.00  0.00    +0.022 A 
ATOM      5  C   LIG    1       26.514 -20.368   6.005  0.00  0.00    +0.010 A 
ATOM      6  C   LIG    1       26.618 -20.950   7.280  0.00  0.00    +0.009 A 
ATOM      7  C   LIG    1       27.846 -20.824   7.957  0.00  0.00    +0.038 A 
ENDROOT
BRANCH   6   8
ATOM      8  C   LIG    1       25.450 -21.708   7.897  0.00  0.00    +0.187 C 
ATOM      9  C   LIG    1       25.239 -23.086   7.340  0.00  0.00    +0.019 A 
ATOM     10  C   LIG    1       23.992 -23.148   6.714  0.00  0.00    +0.045 A 
ATOM     11  C   LIG    1       23.524 -24.280   6.074  0.00  0.00    +0.013 A 
ATOM     12  C   LIG    1       24.351 -25.404   6.083  0.00  0.00    +0.001 A 
ATOM     13  C   LIG    1       25.600 -25.370   6.731  0.00  0.00    +0.001 A 
ATOM     14  C   LIG    1       23.346 -21.843   6.878  0.00  0.00    +0.247 C 
ATOM     15  O   LIG    1       22.277 -21.506   6.410  0.00  0.00    -0.270 OA
ATOM     16  C   LIG    1       26.052 -24.208   7.369  0.00  0.00    +0.009 A 
ATOM     17  N   LIG    1       24.189 -21.072   7.644  0.00  0.00    -0.276 N 
ATOM     18  H   LIG    1       24.030 -20.082   7.763  0.00  0.00    +0.152 HD
BRANCH   8  19
ATOM     19  O   LIG    1       25.555 -21.761   9.299  0.00  0.00    -0.364 OA
ATOM     20  H   LIG    1       25.436 -22.703   9.504  0.00  0.00    +0.213 HD
ENDBRANCH   8  19
ENDBRANCH   6   8
BRANCH   1  21
ATOM     21  S   LIG    1       30.417 -19.971   8.320  0.00  0.00    +0.057 S 
ATOM     22  O   LIG    1       31.539 -19.995   7.410  0.00  0.00    -0.153 OA
ATOM     23  O   LIG    1       30.270 -18.933   9.313  0.00  0.00    -0.153 OA
BRANCH  21  24
ATOM     24  N   LIG    1       30.504 -21.435   9.136  0.00  0.00    -0.203 NA
ATOM     25  H   LIG    1       29.970 -22.147   8.638  0.00  0.00    +0.144 HD
ATOM     26  H   LIG    1       31.481 -21.685   9.297  0.00  0.00    +0.144 HD
ENDBRANCH  21  24
ENDBRANCH   1  21
TORSDOF 4
ENDMDL
MODEL 2
REMARK VINA RESULT:      -8.8      2.157      3.051
REMARK  Name = *****
REMARK                            x       y       z     vdW  Elec       q    Type
REMARK                         _______ _______ _______ _____ _____    ______ ____
ROOT
ATOM      1  C   LIG    1       29.510 -20.738   7.864  0.00  0.00    +0.124 A 
ATOM      2  C   LIG    1       29.892 -19.673   7.049  0.00  0.00    +0.067 A 
ATOM      3 CL   LIG    1       31.371 -18.798   7.218  0.00  0.00    -0.082 Cl
ATOM      4  C   LIG    1       29.036 -19.260   6.025  0.00  0.00    +0.022 A 
ATOM      5  C   LIG    1       27.811 -19.900   5.816  0.00  0.00    +0.010 A 
ATOM      6  C   LIG    1       27.401 -20.970   6.630  0.00  0.00    +0.009 A 
ATOM      7  C   LIG    1       28.279 -21.389   7.647  0.00  0.00    +0.038 A 
ENDROOT
BRANCH   6   8
ATOM      8  C   LIG    1       26.063 -21.663   6.404  0.00  0.00    +0.187 C 
ATOM      9  C   LIG    1       25.140 -20.943   5.464  0.00  0.00    +0.019 A 
ATOM     10  C   LIG    1       23.987 -20.556   6.151  0.00  0.00    +0.045 A 
ATOM     11  C   LIG    1       22.961 -19.842   5.562  0.00  0.00    +0.013 A 
ATOM     12  C   LIG    1       23.104 -19.521   4.212  0.00  0.00    +0.001 A 
ATOM     13  C   LIG    1       24.246 -19.924   3.494  0.00  0.00    +0.001 A 
ATOM     14  C   LIG    1       24.106 -21.040   7.529  0.00  0.00    +0.247 C 
ATOM     15  O   LIG    1       23.321 -20.837   8.433  0.00  0.00    -0.270 OA
ATOM     16  C   LIG    1       25.273 -20.644   4.117  0.00  0.00    +0.009 A 
ATOM     17  N   LIG    1       25.282 -21.751   7.604  0.00  0.00    -0.276 N 
ATOM     18  H   LIG    1       25.656 -22.052   8.493  0.00  0.00    +0.152 HD
BRANCH   8  19
ATOM     19  O   LIG    1       26.239 -22.995   5.988  0.00  0.00    -0.364 OA
ATOM     20  H   LIG    1       26.523 -22.913   5.062  0.00  0.00    +0.213 HD
ENDBRANCH   8  19
ENDBRANCH   6   8
BRANCH   1  21
ATOM     21  S   LIG    1       30.537 -21.306   9.183  0.00  0.00    +0.057 S 
ATOM     22  O   LIG    1       30.996 -20.167   9.944  0.00  0.00    -0.153 OA
ATOM     23  O   LIG    1       29.915 -22.442   9.821  0.00  0.00    -0.153 OA
BRANCH  21  24
ATOM     24  N   LIG    1       31.908 -21.866   8.393  0.00  0.00    -0.203 NA
ATOM     25  H   LIG    1       32.747 -21.497   8.842  0.00  0.00    +0.144 HD
ATOM     26  H   LIG    1       31.884 -22.885   8.334  0.00  0.00    +0.144 HD
ENDBRANCH  21  24
ENDBRANCH   1  21
TORSDOF 4
ENDMDL
MODEL 3
REMARK VINA RESULT:      -8.6      3.915      5.696
REMARK  Name = *****
REMARK                            x       y       z     vdW  Elec       q    Type
REMARK                         _______ _______ _______ _____ _____    ______ ____
ROOT
ATOM      1  C   LIG    1       25.372 -22.974   7.135  0.00  0.00    +0.124 A 
ATOM      2  C   LIG    1       24.001 -22.920   6.886  0.00  0.00    +0.067 A 
ATOM      3 CL   LIG    1       23.050 -21.481   6.974  0.00  0.00    -0.082 Cl
ATOM      4  C   LIG    1       23.324 -24.095   6.551  0.00  0.00    +0.022 A 
ATOM      5  C   LIG    1       24.006 -25.313   6.465  0.00  0.00    +0.010 A 
ATOM      6  C   LIG    1       25.386 -25.393   6.719  0.00  0.00    +0.009 A 
ATOM      7  C   LIG    1       26.061 -24.201   7.039  0.00  0.00    +0.038 A 
ENDROOT
BRANCH   6   8
ATOM      8  C   LIG    1       26.127 -26.722   6.629  0.00  0.00    +0.187 C 
ATOM      9  C   LIG    1       25.251 -27.903   6.328  0.00  0.00    +0.019 A 
ATOM     10  C   LIG    1       25.290 -28.796   7.402  0.00  0.00    +0.045 A 
ATOM     11  C   LIG    1       24.557 -29.967   7.437  0.00  0.00    +0.013 A 
ATOM     12  C   LIG    1       23.763 -30.254   6.326  0.00  0.00    +0.001 A 
ATOM     13  C   LIG    1       23.730 -29.381   5.222  0.00  0.00    +0.001 A 
ATOM     14  C   LIG    1       26.209 -28.249   8.403  0.00  0.00    +0.247 C 
ATOM     15  O   LIG    1       26.446 -28.722   9.497  0.00  0.00    -0.270 OA
ATOM     16  C   LIG    1       24.480 -28.197   5.215  0.00  0.00    +0.009 A 
ATOM     17  N   LIG    1       26.737 -27.093   7.874  0.00  0.00    -0.276 N 
ATOM     18  H   LIG    1       27.280 -26.459   8.441  0.00  0.00    +0.152 HD
BRANCH   8  19
ATOM     19  O   LIG    1       27.189 -26.657   5.710  0.00  0.00    -0.364 OA
ATOM     20  H   LIG    1       27.486 -27.579   5.634  0.00  0.00    +0.213 HD
ENDBRANCH   8  19
ENDBRANCH   6   8
BRANCH   1  21
ATOM     21  S   LIG    1       26.289 -21.531   7.574  0.00  0.00    +0.057 S 
ATOM     22  O   LIG    1       27.687 -21.879   7.682  0.00  0.00    -0.153 OA
ATOM     23  O   LIG    1       25.846 -20.417   6.769  0.00  0.00    -0.153 OA
BRANCH  21  24
ATOM     24  N   LIG    1       25.806 -21.230   9.153  0.00  0.00    -0.203 NA
ATOM     25  H   LIG    1       26.245 -20.376   9.498  0.00  0.00    +0.144 HD
ATOM     26  H   LIG    1       24.787 -21.225   9.210  0.00  0.00    +0.144 HD
ENDBRANCH  21  24
ENDBRANCH   1  21
TORSDOF 4
ENDMDL
MODEL 4
REMARK VINA RESULT:      -7.9      2.579      3.686
REMARK  Name = *****
REMARK                            x       y       z     vdW  Elec       q    Type
REMARK                         _______ _______ _______ _____ _____    ______ ____
ROOT
ATOM      1  C   LIG    1       28.776 -19.878   6.621  0.00  0.00    +0.124 A 
ATOM      2  C   LIG    1       29.367 -20.515   7.711  0.00  0.00    +0.067 A 
ATOM      3 CL   LIG    1       30.891 -20.071   8.391  0.00  0.00    -0.082 Cl
ATOM      4  C   LIG    1       28.709 -21.594   8.306  0.00  0.00    +0.022 A 
ATOM      5  C   LIG    1       27.474 -22.035   7.820  0.00  0.00    +0.010 A 
ATOM      6  C   LIG    1       26.863 -21.414   6.717  0.00  0.00    +0.009 A 
ATOM      7  C   LIG    1       27.526 -20.317   6.136  0.00  0.00    +0.038 A 
ENDROOT
BRANCH   6   8
ATOM      8  C   LIG    1       25.520 -21.898   6.185  0.00  0.00    +0.187 C 
ATOM      9  C   LIG    1       24.756 -20.872   5.399  0.00  0.00    +0.019 A 
ATOM     10  C   LIG    1       23.559 -20.580   6.055  0.00  0.00    +0.045 A 
ATOM     11  C   LIG    1       22.653 -19.645   5.593  0.00  0.00    +0.013 A 
ATOM     12  C   LIG    1       22.968 -18.989   4.402  0.00  0.00    +0.001 A 
ATOM     13  C   LIG    1       24.158 -19.287   3.711  0.00  0.00    +0.001 A 
ATOM     14  C   LIG    1       23.489 -21.424   7.251  0.00  0.00    +0.247 C 
ATOM     15  O   LIG    1       22.619 -21.400   8.099  0.00  0.00    -0.270 OA
ATOM     16  C   LIG    1       25.061 -20.237   4.205  0.00  0.00    +0.009 A 
ATOM     17  N   LIG    1       24.603 -22.232   7.237  0.00  0.00    -0.276 N 
ATOM     18  H   LIG    1       24.853 -22.793   8.039  0.00  0.00    +0.152 HD
BRANCH   8  19
ATOM     19  O   LIG    1       25.660 -23.080   5.437  0.00  0.00    -0.364 OA
ATOM     20  H   LIG    1       25.635 -23.783   6.107  0.00  0.00    +0.213 HD
ENDBRANCH   8  19
ENDBRANCH   6   8
BRANCH   1  21
ATOM     21  S   LIG    1       29.556 -18.516   5.813  0.00  0.00    +0.057 S 
ATOM     22  O   LIG    1       29.611 -17.398   6.727  0.00  0.00    -0.153 OA
ATOM     23  O   LIG    1       30.731 -18.980   5.114  0.00  0.00    -0.153 OA
BRANCH  21  24
ATOM     24  N   LIG    1       28.433 -18.057   4.654  0.00  0.00    -0.203 NA
ATOM     25  H   LIG    1       27.509 -18.413   4.899  0.00  0.00    +0.144 HD
ATOM     26  H   LIG    1       28.466 -17.045   4.519  0.00  0.00    +0.144 HD
ENDBRANCH  21  24
ENDBRANCH   1  21
TORSDOF 4
ENDMDL
MODEL 5
REMARK VINA RESULT:      -7.6      5.551      7.728
REMARK  Name = *****
REMARK                            x       y       z     vdW  Elec       q    Type
REMARK                         _______ _______ _______ _____ _____    ______ ____
ROOT
ATOM      1  C   LIG    1       25.035 -28.810   7.024  0.00  0.00    +0.124 A 
ATOM      2  C   LIG    1       25.960 -28.791   8.067  0.00  0.00    +0.067 A 
ATOM      3 CL   LIG    1       26.433 -30.182   8.976  0.00  0.00    -0.082 Cl
ATOM      4  C   LIG    1       26.552 -27.579   8.428  0.00  0.00    +0.022 A 
ATOM      5  C   LIG    1       26.225 -26.396   7.758  0.00  0.00    +0.010 A 
ATOM      6  C   LIG    1       25.290 -26.389   6.710  0.00  0.00    +0.009 A 
ATOM      7  C   LIG    1       24.713 -27.619   6.342  0.00  0.00    +0.038 A 
ENDROOT
BRANCH   6   8
ATOM      8  C   LIG    1       24.931 -25.098   5.983  0.00  0.00    +0.187 C 
ATOM      9  C   LIG    1       25.349 -23.846   6.697  0.00  0.00    +0.019 A 
ATOM     10  C   LIG    1       24.216 -23.104   7.036  0.00  0.00    +0.045 A 
ATOM     11  C   LIG    1       24.274 -21.912   7.733  0.00  0.00    +0.013 A 
ATOM     12  C   LIG    1       25.540 -21.444   8.088  0.00  0.00    +0.001 A 
ATOM     13  C   LIG    1       26.697 -22.164   7.733  0.00  0.00    +0.001 A 
ATOM     14  C   LIG    1       23.045 -23.821   6.525  0.00  0.00    +0.247 C 
ATOM     15  O   LIG    1       21.882 -23.507   6.686  0.00  0.00    -0.270 OA
ATOM     16  C   LIG    1       26.609 -23.371   7.029  0.00  0.00    +0.009 A 
ATOM     17  N   LIG    1       23.514 -24.923   5.847  0.00  0.00    -0.276 N 
ATOM     18  H   LIG    1       22.888 -25.652   5.537  0.00  0.00    +0.152 HD
BRANCH   8  19
ATOM     19  O   LIG    1       25.425 -25.096   4.666  0.00  0.00    -0.364 OA
ATOM     20  H   LIG    1       25.761 -24.192   4.547  0.00  0.00    +0.213 HD
ENDBRANCH   8  19
ENDBRANCH   6   8
BRANCH   1  21
ATOM     21  S   LIG    1       24.240 -30.304   6.521  0.00  0.00    +0.057 S 
ATOM     22  O   LIG    1       25.177 -31.101   5.764  0.00  0.00    -0.153 OA
ATOM     23  O   LIG    1       23.505 -30.855   7.635  0.00  0.00    -0.153 OA
BRANCH  21  24
ATOM     24  N   LIG    1       23.116 -29.784   5.388  0.00  0.00    -0.203 NA
ATOM     25  H   LIG    1       23.505 -29.859   4.448  0.00  0.00    +0.144 HD
ATOM     26  H   LIG    1       22.237 -30.287   5.515  0.00  0.00    +0.144 HD
ENDBRANCH  21  24
ENDBRANCH   1  21
TORSDOF 4
ENDMDL
MODEL 6
REMARK VINA RESULT:      -7.2      2.996      6.919
REMARK  Name = *****
REMARK                            x       y       z     vdW  Elec       q    Type
REMARK                         _______ _______ _______ _____ _____    ______ ____
ROOT
ATOM      1  C   LIG    1       26.195 -20.810   7.241  0.00  0.00    +0.124 A 
ATOM      2  C   LIG    1       26.106 -20.287   5.952  0.00  0.00    +0.067 A 
ATOM      3 CL   LIG    1       24.660 -20.255   5.009  0.00  0.00    -0.082 Cl
ATOM      4  C   LIG    1       27.252 -19.754   5.355  0.00  0.00    +0.022 A 
ATOM      5  C   LIG    1       28.474 -19.745   6.034  0.00  0.00    +0.010 A 
ATOM      6  C   LIG    1       28.589 -20.274   7.331  0.00  0.00    +0.009 A 
ATOM      7  C   LIG    1       27.425 -20.792   7.930  0.00  0.00    +0.038 A 
ENDROOT
BRANCH   6   8
ATOM      8  C   LIG    1       29.922 -20.267   8.069  0.00  0.00    +0.187 C 
ATOM      9  C   LIG    1       30.197 -19.011   8.844  0.00  0.00    +0.019 A 
ATOM     10  C   LIG    1       31.325 -18.378   8.316  0.00  0.00    +0.045 A 
ATOM     11  C   LIG    1       31.810 -17.177   8.797  0.00  0.00    +0.013 A 
ATOM     12  C   LIG    1       31.131 -16.601   9.872  0.00  0.00    +0.001 A 
ATOM     13  C   LIG    1       30.008 -17.237  10.435  0.00  0.00    +0.001 A 
ATOM     14  C   LIG    1       31.833 -19.210   7.223  0.00  0.00    +0.247 C 
ATOM     15  O   LIG    1       32.766 -18.946   6.492  0.00  0.00    -0.270 OA
ATOM     16  C   LIG    1       29.535 -18.452   9.925  0.00  0.00    +0.009 A 
ATOM     17  N   LIG    1       31.043 -20.336   7.175  0.00  0.00    -0.276 N 
ATOM     18  H   LIG    1       31.104 -20.986   6.405  0.00  0.00    +0.152 HD
BRANCH   8  19
ATOM     19  O   LIG    1       30.054 -21.392   8.902  0.00  0.00    -0.364 OA
ATOM     20  H   LIG    1       29.662 -21.104   9.743  0.00  0.00    +0.213 HD
ENDBRANCH   8  19
ENDBRANCH   6   8
BRANCH   1  21
ATOM     21  S   LIG    1       24.791 -21.508   8.053  0.00  0.00    +0.057 S 
ATOM     22  O   LIG    1       25.182 -21.946   9.373  0.00  0.00    -0.153 OA
ATOM     23  O   LIG    1       23.644 -20.656   7.847  0.00  0.00    -0.153 OA
BRANCH  21  24
ATOM     24  N   LIG    1       24.517 -22.929   7.202  0.00  0.00    -0.203 NA
ATOM     25  H   LIG    1       25.380 -23.246   6.760  0.00  0.00    +0.144 HD
ATOM     26  H   LIG    1       24.085 -23.623   7.814  0.00  0.00    +0.144 HD
ENDBRANCH  21  24
ENDBRANCH   1  21
TORSDOF 4
ENDMDL
MODEL 7
REMARK VINA RESULT:      -7.2      3.053      3.795
REMARK  Name = *****
REMARK                            x       y       z     vdW  Elec       q    Type
REMARK                         _______ _______ _______ _____ _____    ______ ____
ROOT
ATOM      1  C   LIG    1       26.038 -19.930   4.929  0.00  0.00    +0.124 A 
ATOM      2  C   LIG    1       27.322 -19.543   5.309  0.00  0.00    +0.067 A 
ATOM      3 CL   LIG    1       28.248 -18.321   4.515  0.00  0.00    -0.082 Cl
ATOM      4  C   LIG    1       27.928 -20.178   6.396  0.00  0.00    +0.022 A 
ATOM      5  C   LIG    1       27.262 -21.188   7.097  0.00  0.00    +0.010 A 
ATOM      6  C   LIG    1       25.971 -21.600   6.726  0.00  0.00    +0.009 A 
ATOM      7  C   LIG    1       25.362 -20.942   5.641  0.00  0.00    +0.038 A 
ENDROOT
BRANCH   6   8
ATOM      8  C   LIG    1       25.248 -22.704   7.488  0.00  0.00    +0.187 C 
ATOM      9  C   LIG    1       25.371 -24.068   6.872  0.00  0.00    +0.019 A 
ATOM     10  C   LIG    1       24.107 -24.519   6.486  0.00  0.00    +0.045 A 
ATOM     11  C   LIG    1       23.897 -25.731   5.856  0.00  0.00    +0.013 A 
ATOM     12  C   LIG    1       25.019 -26.528   5.622  0.00  0.00    +0.001 A 
ATOM     13  C   LIG    1       26.298 -26.103   6.027  0.00  0.00    +0.001 A 
ATOM     14  C   LIG    1       23.132 -23.494   6.869  0.00  0.00    +0.247 C 
ATOM     15  O   LIG    1       21.940 -23.513   6.637  0.00  0.00    -0.270 OA
ATOM     16  C   LIG    1       26.483 -24.868   6.660  0.00  0.00    +0.009 A 
ATOM     17  N   LIG    1       23.827 -22.504   7.525  0.00  0.00    -0.276 N 
ATOM     18  H   LIG    1       23.394 -21.620   7.749  0.00  0.00    +0.152 HD
BRANCH   8  19
ATOM     19  O   LIG    1       25.644 -22.742   8.837  0.00  0.00    -0.364 OA
ATOM     20  H   LIG    1       25.259 -21.934   9.213  0.00  0.00    +0.213 HD
ENDBRANCH   8  19
ENDBRANCH   6   8
BRANCH   1  21
ATOM     21  S   LIG    1       25.215 -19.179   3.559  0.00  0.00    +0.057 S 
ATOM     22  O   LIG    1       25.753 -17.853   3.359  0.00  0.00    -0.153 OA
ATOM     23  O   LIG    1       25.121 -20.128   2.475  0.00  0.00    -0.153 OA
BRANCH  21  24
ATOM     24  N   LIG    1       23.660 -18.921   4.134  0.00  0.00    -0.203 NA
ATOM     25  H   LIG    1       23.121 -18.378   3.458  0.00  0.00    +0.144 HD
ATOM     26  H   LIG    1       23.230 -19.812   4.387  0.00  0.00    +0.144 HD
ENDBRANCH  21  24
ENDBRANCH   1  21
TORSDOF 4
ENDMDL
MODEL 8
REMARK VINA RESULT:      -7.1      3.663      6.553
REMARK  Name = *****
REMARK                            x       y       z     vdW  Elec       q    Type
REMARK                         _______ _______ _______ _____ _____    ______ ____
ROOT
ATOM      1  C   LIG    1       25.278 -20.465   5.834  0.00  0.00    +0.124 A 
ATOM      2  C   LIG    1       24.753 -20.755   7.093  0.00  0.00    +0.067 A 
ATOM      3 CL   LIG    1       23.083 -21.061   7.407  0.00  0.00    -0.082 Cl
ATOM      4  C   LIG    1       25.613 -20.799   8.193  0.00  0.00    +0.022 A 
ATOM      5  C   LIG    1       26.981 -20.554   8.042  0.00  0.00    +0.010 A 
ATOM      6  C   LIG    1       27.531 -20.251   6.784  0.00  0.00    +0.009 A 
ATOM      7  C   LIG    1       26.659 -20.228   5.680  0.00  0.00    +0.038 A 
ENDROOT
BRANCH   6   8
ATOM      8  C   LIG    1       29.022 -19.981   6.621  0.00  0.00    +0.187 C 
ATOM      9  C   LIG    1       29.884 -20.587   7.690  0.00  0.00    +0.019 A 
ATOM     10  C   LIG    1       30.528 -19.570   8.400  0.00  0.00    +0.045 A 
ATOM     11  C   LIG    1       31.366 -19.812   9.471  0.00  0.00    +0.013 A 
ATOM     12  C   LIG    1       31.575 -21.144   9.827  0.00  0.00    +0.001 A 
ATOM     13  C   LIG    1       30.957 -22.185   9.108  0.00  0.00    +0.001 A 
ATOM     14  C   LIG    1       30.139 -18.292   7.798  0.00  0.00    +0.247 C 
ATOM     15  O   LIG    1       30.455 -17.187   8.191  0.00  0.00    -0.270 OA
ATOM     16  C   LIG    1       30.108 -21.912   8.029  0.00  0.00    +0.009 A 
ATOM     17  N   LIG    1       29.338 -18.584   6.718  0.00  0.00    -0.276 N 
ATOM     18  H   LIG    1       28.824 -17.861   6.236  0.00  0.00    +0.152 HD
BRANCH   8  19
ATOM     19  O   LIG    1       29.478 -20.369   5.349  0.00  0.00    -0.364 OA
ATOM     20  H   LIG    1       29.864 -19.555   4.983  0.00  0.00    +0.213 HD
ENDBRANCH   8  19
ENDBRANCH   6   8
BRANCH   1  21
ATOM     21  S   LIG    1       24.249 -20.383   4.402  0.00  0.00    +0.057 S 
ATOM     22  O   LIG    1       23.976 -21.726   3.943  0.00  0.00    -0.153 OA
ATOM     23  O   LIG    1       23.188 -19.430   4.626  0.00  0.00    -0.153 OA
BRANCH  21  24
ATOM     24  N   LIG    1       25.263 -19.736   3.231  0.00  0.00    -0.203 NA
ATOM     25  H   LIG    1       25.488 -20.444   2.532  0.00  0.00    +0.144 HD
ATOM     26  H   LIG    1       24.850 -18.886   2.844  0.00  0.00    +0.144 HD
ENDBRANCH  21  24
ENDBRANCH   1  21
TORSDOF 4
ENDMDL
MODEL 9
REMARK VINA RESULT:      -7.0      3.465      6.767
REMARK  Name = *****
REMARK                            x       y       z     vdW  Elec       q    Type
REMARK                         _______ _______ _______ _____ _____    ______ ____
ROOT
ATOM      1  C   LIG    1       25.535 -20.768   6.281  0.00  0.00    +0.124 A 
ATOM      2  C   LIG    1       24.815 -21.072   7.436  0.00  0.00    +0.067 A 
ATOM      3 CL   LIG    1       23.103 -21.284   7.490  0.00  0.00    -0.082 Cl
ATOM      4  C   LIG    1       25.500 -21.210   8.646  0.00  0.00    +0.022 A 
ATOM      5  C   LIG    1       26.887 -21.045   8.706  0.00  0.00    +0.010 A 
ATOM      6  C   LIG    1       27.632 -20.731   7.557  0.00  0.00    +0.009 A 
ATOM      7  C   LIG    1       26.935 -20.611   6.339  0.00  0.00    +0.038 A 
ENDROOT
BRANCH   6   8
ATOM      8  C   LIG    1       29.143 -20.547   7.624  0.00  0.00    +0.187 C 
ATOM      9  C   LIG    1       29.592 -19.382   8.457  0.00  0.00    +0.019 A 
ATOM     10  C   LIG    1       30.256 -18.459   7.645  0.00  0.00    +0.045 A 
ATOM     11  C   LIG    1       30.758 -17.262   8.118  0.00  0.00    +0.013 A 
ATOM     12  C   LIG    1       30.594 -16.996   9.478  0.00  0.00    +0.001 A 
ATOM     13  C   LIG    1       29.951 -17.925  10.318  0.00  0.00    +0.001 A 
ATOM     14  C   LIG    1       30.294 -19.007   6.287  0.00  0.00    +0.247 C 
ATOM     15  O   LIG    1       30.737 -18.454   5.300  0.00  0.00    -0.270 OA
ATOM     16  C   LIG    1       29.448 -19.130   9.812  0.00  0.00    +0.009 A 
ATOM     17  N   LIG    1       29.717 -20.255   6.341  0.00  0.00    -0.276 N 
ATOM     18  H   LIG    1       29.491 -20.765   5.499  0.00  0.00    +0.152 HD
BRANCH   8  19
ATOM     19  O   LIG    1       29.785 -21.725   8.048  0.00  0.00    -0.364 OA
ATOM     20  H   LIG    1       29.330 -21.950   8.876  0.00  0.00    +0.213 HD
ENDBRANCH   8  19
ENDBRANCH   6   8
BRANCH   1  21
ATOM     21  S   LIG    1       24.735 -20.569   4.720  0.00  0.00    +0.057 S 
ATOM     22  O   LIG    1       24.442 -21.874   4.174  0.00  0.00    -0.153 OA
ATOM     23  O   LIG    1       23.719 -19.548   4.827  0.00  0.00    -0.153 OA
BRANCH  21  24
ATOM     24  N   LIG    1       25.951 -19.962   3.735  0.00  0.00    -0.203 NA
ATOM     25  H   LIG    1       26.692 -19.553   4.303  0.00  0.00    +0.144 HD
ATOM     26  H   LIG    1       26.272 -20.688   3.092  0.00  0.00    +0.144 HD
ENDBRANCH  21  24
ENDBRANCH   1  21
TORSDOF 4
ENDMDL
