MODEL 1
REMARK VINA RESULT:      -7.8      0.000      0.000
REMARK  Name = *****
REMARK                            x       y       z     vdW  Elec       q    Type
REMARK                         _______ _______ _______ _____ _____    ______ ____
ROOT
ATOM      1  C   LIG    1       24.844 -22.380   7.148  0.00  0.00    +0.132 A 
ATOM      2  C   LIG    1       23.583 -22.911   6.906  0.00  0.00    +0.048 A 
ATOM      3  C   LIG    1       23.440 -24.269   6.600  0.00  0.00    +0.027 A 
ATOM      4  C   LIG    1       24.558 -25.112   6.574  0.00  0.00    +0.034 A 
ATOM      5  C   LIG    1       25.804 -24.580   6.917  0.00  0.00    +0.027 A 
ATOM      6  C   LIG    1       25.954 -23.220   7.205  0.00  0.00    +0.048 A 
ENDROOT
BRANCH   4   7
ATOM      7  N   LIG    1       24.368 -26.453   6.174  0.00  0.00    -0.286 N 
ATOM      8  H   LIG    1       23.564 -26.929   6.564  0.00  0.00    +0.155 HD
ATOM      9  C   LIG    1       25.135 -27.150   5.253  0.00  0.00    +0.214 C 
ATOM     10  O   LIG    1       26.115 -26.734   4.647  0.00  0.00    -0.276 OA
ATOM     11  C   LIG    1       24.669 -28.566   5.046  0.00  0.00    +0.109 C 
ENDBRANCH   4   7
BRANCH   1  12
ATOM     12  O   LIG    1       25.086 -21.006   7.355  0.00  0.00    -0.425 OA
BRANCH  12  13
ATOM     13  C   LIG    1       26.103 -20.572   8.228  0.00  0.00    +0.327 C 
ATOM     14  O   LIG    1       26.032 -20.481   9.437  0.00  0.00    -0.249 OA
BRANCH  13  15
ATOM     15  C   LIG    1       27.344 -20.206   7.422  0.00  0.00    +0.206 C 
BRANCH  15  16
ATOM     16  N   LIG    1       28.612 -20.237   8.181  0.00  0.00    -0.293 NA
BRANCH  16  18
ATOM     17  C   LIG    1       30.669 -21.579   8.840  0.00  0.00    +0.020 C 
ATOM     18  C   LIG    1       29.409 -21.462   7.990  0.00  0.00    +0.081 C 
ENDBRANCH  16  18
BRANCH  16  19
ATOM     19  C   LIG    1       29.486 -19.064   7.969  0.00  0.00    +0.081 C 
ATOM     20  C   LIG    1       29.877 -18.780   6.523  0.00  0.00    +0.020 C 
ENDBRANCH  16  19
ENDBRANCH  15  16
ENDBRANCH  13  15
ENDBRANCH  12  13
ENDBRANCH   1  12
TORSDOF 7
ENDMDL
MODEL 2
REMARK VINA RESULT:      -7.7      2.651      8.076
REMARK  Name = *****
REMARK                            x       y       z     vdW  Elec       q    Type
REMARK                         _______ _______ _______ _____ _____    ______ ____
ROOT
ATOM      1  C   LIG    1       28.931 -20.857   7.463  0.00  0.00    +0.132 A 
ATOM      2  C   LIG    1       28.900 -19.578   6.920  0.00  0.00    +0.048 A 
ATOM      3  C   LIG    1       29.864 -18.634   7.291  0.00  0.00    +0.027 A 
ATOM      4  C   LIG    1       30.890 -18.978   8.179  0.00  0.00    +0.034 A 
ATOM      5  C   LIG    1       30.963 -20.297   8.638  0.00  0.00    +0.027 A 
ATOM      6  C   LIG    1       29.991 -21.238   8.285  0.00  0.00    +0.048 A 
ENDROOT
BRANCH   4   7
ATOM      7  N   LIG    1       31.784 -17.963   8.586  0.00  0.00    -0.286 N 
ATOM      8  H   LIG    1       32.723 -18.015   8.211  0.00  0.00    +0.155 HD
ATOM      9  C   LIG    1       31.478 -16.876   9.390  0.00  0.00    +0.214 C 
ATOM     10  O   LIG    1       30.394 -16.619   9.899  0.00  0.00    -0.276 OA
ATOM     11  C   LIG    1       32.656 -15.973   9.637  0.00  0.00    +0.109 C 
ENDBRANCH   4   7
BRANCH   1  12
ATOM     12  O   LIG    1       27.939 -21.830   7.227  0.00  0.00    -0.425 OA
BRANCH  12  13
ATOM     13  C   LIG    1       26.734 -21.828   7.957  0.00  0.00    +0.327 C 
ATOM     14  O   LIG    1       26.519 -21.247   9.002  0.00  0.00    -0.249 OA
BRANCH  13  15
ATOM     15  C   LIG    1       25.704 -22.695   7.243  0.00  0.00    +0.206 C 
BRANCH  15  16
ATOM     16  N   LIG    1       24.362 -22.089   7.110  0.00  0.00    -0.293 NA
BRANCH  16  18
ATOM     17  C   LIG    1       22.892 -20.431   5.864  0.00  0.00    +0.020 C 
ATOM     18  C   LIG    1       24.288 -20.974   6.151  0.00  0.00    +0.081 C 
ENDBRANCH  16  18
BRANCH  16  19
ATOM     19  C   LIG    1       23.280 -23.049   6.808  0.00  0.00    +0.081 C 
ATOM     20  C   LIG    1       23.722 -24.480   6.521  0.00  0.00    +0.020 C 
ENDBRANCH  16  19
ENDBRANCH  15  16
ENDBRANCH  13  15
ENDBRANCH  12  13
ENDBRANCH   1  12
TORSDOF 7
ENDMDL
MODEL 3
REMARK VINA RESULT:      -7.6      2.681      8.102
REMARK  Name = *****
REMARK                            x       y       z     vdW  Elec       q    Type
REMARK                         _______ _______ _______ _____ _____    ______ ____
ROOT
ATOM      1  C   LIG    1       29.174 -20.692   7.478  0.00  0.00    +0.132 A 
ATOM      2  C   LIG    1       29.185 -19.429   6.897  0.00  0.00    +0.048 A 
ATOM      3  C   LIG    1       30.127 -18.478   7.304  0.00  0.00    +0.027 A 
ATOM      4  C   LIG    1       31.090 -18.800   8.268  0.00  0.00    +0.034 A 
ATOM      5  C   LIG    1       31.126 -20.105   8.768  0.00  0.00    +0.027 A 
ATOM      6  C   LIG    1       30.175 -21.053   8.378  0.00  0.00    +0.048 A 
ENDROOT
BRANCH   4   7
ATOM      7  N   LIG    1       31.961 -17.776   8.704  0.00  0.00    -0.286 N 
ATOM      8  H   LIG    1       32.896 -17.785   8.315  0.00  0.00    +0.155 HD
ATOM      9  C   LIG    1       31.635 -16.731   9.554  0.00  0.00    +0.214 C 
ATOM     10  O   LIG    1       30.552 -16.526  10.087  0.00  0.00    -0.276 OA
ATOM     11  C   LIG    1       32.790 -15.804   9.822  0.00  0.00    +0.109 C 
ENDBRANCH   4   7
BRANCH   1  12
ATOM     12  O   LIG    1       28.194 -21.668   7.205  0.00  0.00    -0.425 OA
BRANCH  12  13
ATOM     13  C   LIG    1       27.020 -21.753   7.978  0.00  0.00    +0.327 C 
ATOM     14  O   LIG    1       26.677 -20.993   8.862  0.00  0.00    -0.249 OA
BRANCH  13  15
ATOM     15  C   LIG    1       26.216 -22.975   7.553  0.00  0.00    +0.206 C 
BRANCH  15  16
ATOM     16  N   LIG    1       25.096 -22.696   6.630  0.00  0.00    -0.293 NA
BRANCH  16  18
ATOM     17  C   LIG    1       23.889 -24.912   6.320  0.00  0.00    +0.020 C 
ATOM     18  C   LIG    1       24.758 -23.809   5.725  0.00  0.00    +0.081 C 
ENDBRANCH  16  18
BRANCH  16  19
ATOM     19  C   LIG    1       23.859 -22.225   7.287  0.00  0.00    +0.081 C 
ATOM     20  C   LIG    1       23.327 -20.876   6.814  0.00  0.00    +0.020 C 
ENDBRANCH  16  19
ENDBRANCH  15  16
ENDBRANCH  13  15
ENDBRANCH  12  13
ENDBRANCH   1  12
TORSDOF 7
ENDMDL
MODEL 4
REMARK VINA RESULT:      -7.5      3.588      5.662
REMARK  Name = *****
REMARK                            x       y       z     vdW  Elec       q    Type
REMARK                         _______ _______ _______ _____ _____    ______ ____
ROOT
ATOM      1  C   LIG    1       29.629 -20.227   7.163  0.00  0.00    +0.132 A 
ATOM      2  C   LIG    1       28.906 -19.520   6.211  0.00  0.00    +0.048 A 
ATOM      3  C   LIG    1       27.577 -19.863   5.941  0.00  0.00    +0.027 A 
ATOM      4  C   LIG    1       26.951 -20.893   6.653  0.00  0.00    +0.034 A 
ATOM      5  C   LIG    1       27.662 -21.527   7.676  0.00  0.00    +0.027 A 
ATOM      6  C   LIG    1       28.997 -21.200   7.936  0.00  0.00    +0.048 A 
ENDROOT
BRANCH   4   7
ATOM      7  N   LIG    1       25.637 -21.255   6.279  0.00  0.00    -0.286 N 
ATOM      8  H   LIG    1       25.535 -21.711   5.380  0.00  0.00    +0.155 HD
ATOM      9  C   LIG    1       24.496 -21.109   7.053  0.00  0.00    +0.214 C 
ATOM     10  O   LIG    1       24.425 -20.625   8.176  0.00  0.00    -0.276 OA
ATOM     11  C   LIG    1       23.249 -21.597   6.366  0.00  0.00    +0.109 C 
ENDBRANCH   4   7
BRANCH   1  12
ATOM     12  O   LIG    1       31.000 -20.018   7.418  0.00  0.00    -0.425 OA
BRANCH  12  13
ATOM     13  C   LIG    1       31.480 -19.879   8.735  0.00  0.00    +0.327 C 
ATOM     14  O   LIG    1       32.179 -20.668   9.339  0.00  0.00    -0.249 OA
BRANCH  13  15
ATOM     15  C   LIG    1       30.977 -18.568   9.325  0.00  0.00    +0.206 C 
BRANCH  15  16
ATOM     16  N   LIG    1       31.828 -17.994  10.389  0.00  0.00    -0.293 NA
BRANCH  16  18
ATOM     17  C   LIG    1       32.342 -15.679   9.471  0.00  0.00    +0.020 C 
ATOM     18  C   LIG    1       32.851 -17.049   9.908  0.00  0.00    +0.081 C 
ENDBRANCH  16  18
BRANCH  16  19
ATOM     19  C   LIG    1       31.085 -17.366  11.501  0.00  0.00    +0.081 C 
ATOM     20  C   LIG    1       31.926 -16.908  12.687  0.00  0.00    +0.020 C 
ENDBRANCH  16  19
ENDBRANCH  15  16
ENDBRANCH  13  15
ENDBRANCH  12  13
ENDBRANCH   1  12
TORSDOF 7
ENDMDL
MODEL 5
REMARK VINA RESULT:      -7.4      3.906      5.654
REMARK  Name = *****
REMARK                            x       y       z     vdW  Elec       q    Type
REMARK                         _______ _______ _______ _____ _____    ______ ____
ROOT
ATOM      1  C   LIG    1       29.490 -20.233   7.203  0.00  0.00    +0.132 A 
ATOM      2  C   LIG    1       28.738 -21.027   8.059  0.00  0.00    +0.048 A 
ATOM      3  C   LIG    1       27.355 -21.142   7.875  0.00  0.00    +0.027 A 
ATOM      4  C   LIG    1       26.724 -20.492   6.808  0.00  0.00    +0.034 A 
ATOM      5  C   LIG    1       27.512 -19.779   5.899  0.00  0.00    +0.027 A 
ATOM      6  C   LIG    1       28.891 -19.646   6.090  0.00  0.00    +0.048 A 
ENDROOT
BRANCH   4   7
ATOM      7  N   LIG    1       25.316 -20.571   6.721  0.00  0.00    -0.286 N 
ATOM      8  H   LIG    1       24.800 -20.337   7.560  0.00  0.00    +0.155 HD
ATOM      9  C   LIG    1       24.582 -20.870   5.584  0.00  0.00    +0.214 C 
ATOM     10  O   LIG    1       25.021 -21.135   4.472  0.00  0.00    -0.276 OA
ATOM     11  C   LIG    1       23.096 -20.871   5.824  0.00  0.00    +0.109 C 
ENDBRANCH   4   7
BRANCH   1  12
ATOM     12  O   LIG    1       30.865 -19.977   7.382  0.00  0.00    -0.425 OA
BRANCH  12  13
ATOM     13  C   LIG    1       31.411 -19.816   8.671  0.00  0.00    +0.327 C 
ATOM     14  O   LIG    1       32.068 -20.631   9.287  0.00  0.00    -0.249 OA
BRANCH  13  15
ATOM     15  C   LIG    1       31.042 -18.441   9.213  0.00  0.00    +0.206 C 
BRANCH  15  16
ATOM     16  N   LIG    1       31.852 -17.984  10.363  0.00  0.00    -0.293 NA
BRANCH  16  18
ATOM     17  C   LIG    1       32.364 -15.698   9.375  0.00  0.00    +0.020 C 
ATOM     18  C   LIG    1       32.875 -16.979  10.027  0.00  0.00    +0.081 C 
ENDBRANCH  16  18
BRANCH  16  19
ATOM     19  C   LIG    1       31.067 -17.497  11.515  0.00  0.00    +0.081 C 
ATOM     20  C   LIG    1       31.861 -16.798  12.613  0.00  0.00    +0.020 C 
ENDBRANCH  16  19
ENDBRANCH  15  16
ENDBRANCH  13  15
ENDBRANCH  12  13
ENDBRANCH   1  12
TORSDOF 7
ENDMDL
MODEL 6
REMARK VINA RESULT:      -7.3      3.542      7.855
REMARK  Name = *****
REMARK                            x       y       z     vdW  Elec       q    Type
REMARK                         _______ _______ _______ _____ _____    ______ ____
ROOT
ATOM      1  C   LIG    1       28.866 -20.704   7.269  0.00  0.00    +0.132 A 
ATOM      2  C   LIG    1       28.994 -19.472   6.640  0.00  0.00    +0.048 A 
ATOM      3  C   LIG    1       29.980 -18.570   7.058  0.00  0.00    +0.027 A 
ATOM      4  C   LIG    1       30.869 -18.915   8.083  0.00  0.00    +0.034 A 
ATOM      5  C   LIG    1       30.788 -20.197   8.636  0.00  0.00    +0.027 A 
ATOM      6  C   LIG    1       29.793 -21.094   8.234  0.00  0.00    +0.048 A 
ENDROOT
BRANCH   4   7
ATOM      7  N   LIG    1       31.787 -17.935   8.524  0.00  0.00    -0.286 N 
ATOM      8  H   LIG    1       32.726 -17.999   8.149  0.00  0.00    +0.155 HD
ATOM      9  C   LIG    1       31.505 -16.866   9.359  0.00  0.00    +0.214 C 
ATOM     10  O   LIG    1       30.426 -16.598   9.873  0.00  0.00    -0.276 OA
ATOM     11  C   LIG    1       32.704 -16.000   9.637  0.00  0.00    +0.109 C 
ENDBRANCH   4   7
BRANCH   1  12
ATOM     12  O   LIG    1       27.834 -21.622   6.984  0.00  0.00    -0.425 OA
BRANCH  12  13
ATOM     13  C   LIG    1       26.625 -21.602   7.707  0.00  0.00    +0.327 C 
ATOM     14  O   LIG    1       26.367 -22.242   8.707  0.00  0.00    -0.249 OA
BRANCH  13  15
ATOM     15  C   LIG    1       25.646 -20.648   7.036  0.00  0.00    +0.206 C 
BRANCH  15  16
ATOM     16  N   LIG    1       25.345 -20.955   5.621  0.00  0.00    -0.293 NA
BRANCH  16  18
ATOM     17  C   LIG    1       22.911 -20.431   6.135  0.00  0.00    +0.020 C 
ATOM     18  C   LIG    1       23.927 -21.251   5.349  0.00  0.00    +0.081 C 
ENDBRANCH  16  18
BRANCH  16  19
ATOM     19  C   LIG    1       25.811 -19.937   4.657  0.00  0.00    +0.081 C 
ATOM     20  C   LIG    1       24.980 -19.795   3.386  0.00  0.00    +0.020 C 
ENDBRANCH  16  19
ENDBRANCH  15  16
ENDBRANCH  13  15
ENDBRANCH  12  13
ENDBRANCH   1  12
TORSDOF 7
ENDMDL
MODEL 7
REMARK VINA RESULT:      -7.3      3.617      4.809
REMARK  Name = *****
REMARK                            x       y       z     vdW  Elec       q    Type
REMARK                         _______ _______ _______ _____ _____    ______ ____
ROOT
ATOM      1  C   LIG    1       25.285 -24.867   5.985  0.00  0.00    +0.132 A 
ATOM      2  C   LIG    1       25.708 -25.643   7.056  0.00  0.00    +0.048 A 
ATOM      3  C   LIG    1       25.915 -27.017   6.889  0.00  0.00    +0.027 A 
ATOM      4  C   LIG    1       25.736 -27.615   5.636  0.00  0.00    +0.034 A 
ATOM      5  C   LIG    1       25.406 -26.801   4.548  0.00  0.00    +0.027 A 
ATOM      6  C   LIG    1       25.180 -25.431   4.715  0.00  0.00    +0.048 A 
ENDROOT
BRANCH   4   7
ATOM      7  N   LIG    1       25.873 -29.018   5.544  0.00  0.00    -0.286 N 
ATOM      8  H   LIG    1       26.804 -29.366   5.349  0.00  0.00    +0.155 HD
ATOM      9  C   LIG    1       24.875 -29.954   5.762  0.00  0.00    +0.214 C 
ATOM     10  O   LIG    1       23.706 -29.731   6.049  0.00  0.00    -0.276 OA
ATOM     11  C   LIG    1       25.347 -31.373   5.587  0.00  0.00    +0.109 C 
ENDBRANCH   4   7
BRANCH   1  12
ATOM     12  O   LIG    1       24.949 -23.502   6.093  0.00  0.00    -0.425 OA
BRANCH  12  13
ATOM     13  C   LIG    1       23.665 -23.101   6.512  0.00  0.00    +0.327 C 
ATOM     14  O   LIG    1       22.726 -23.829   6.767  0.00  0.00    -0.249 OA
BRANCH  13  15
ATOM     15  C   LIG    1       23.605 -21.581   6.592  0.00  0.00    +0.206 C 
BRANCH  15  16
ATOM     16  N   LIG    1       23.139 -20.909   5.360  0.00  0.00    -0.293 NA
BRANCH  16  18
ATOM     17  C   LIG    1       22.263 -18.758   4.325  0.00  0.00    +0.020 C 
ATOM     18  C   LIG    1       22.544 -19.579   5.579  0.00  0.00    +0.081 C 
ENDBRANCH  16  18
BRANCH  16  19
ATOM     19  C   LIG    1       24.156 -20.804   4.293  0.00  0.00    +0.081 C 
ATOM     20  C   LIG    1       25.527 -20.297   4.728  0.00  0.00    +0.020 C 
ENDBRANCH  16  19
ENDBRANCH  15  16
ENDBRANCH  13  15
ENDBRANCH  12  13
ENDBRANCH   1  12
TORSDOF 7
ENDMDL
MODEL 8
REMARK VINA RESULT:      -7.3      2.984      4.355
REMARK  Name = *****
REMARK                            x       y       z     vdW  Elec       q    Type
REMARK                         _______ _______ _______ _____ _____    ______ ____
ROOT
ATOM      1  C   LIG    1       25.234 -24.814   5.888  0.00  0.00    +0.132 A 
ATOM      2  C   LIG    1       25.664 -25.552   6.984  0.00  0.00    +0.048 A 
ATOM      3  C   LIG    1       25.897 -26.926   6.857  0.00  0.00    +0.027 A 
ATOM      4  C   LIG    1       25.737 -27.562   5.620  0.00  0.00    +0.034 A 
ATOM      5  C   LIG    1       25.400 -26.785   4.507  0.00  0.00    +0.027 A 
ATOM      6  C   LIG    1       25.148 -25.415   4.634  0.00  0.00    +0.048 A 
ENDROOT
BRANCH   4   7
ATOM      7  N   LIG    1       25.900 -28.964   5.568  0.00  0.00    -0.286 N 
ATOM      8  H   LIG    1       26.840 -29.301   5.397  0.00  0.00    +0.155 HD
ATOM      9  C   LIG    1       24.915 -29.912   5.795  0.00  0.00    +0.214 C 
ATOM     10  O   LIG    1       23.738 -29.702   6.057  0.00  0.00    -0.276 OA
ATOM     11  C   LIG    1       25.415 -31.326   5.666  0.00  0.00    +0.109 C 
ENDBRANCH   4   7
BRANCH   1  12
ATOM     12  O   LIG    1       24.873 -23.452   5.957  0.00  0.00    -0.425 OA
BRANCH  12  13
ATOM     13  C   LIG    1       23.730 -23.040   6.671  0.00  0.00    +0.327 C 
ATOM     14  O   LIG    1       22.688 -23.653   6.789  0.00  0.00    -0.249 OA
BRANCH  13  15
ATOM     15  C   LIG    1       23.980 -21.668   7.284  0.00  0.00    +0.206 C 
BRANCH  15  16
ATOM     16  N   LIG    1       23.930 -20.539   6.330  0.00  0.00    -0.293 NA
BRANCH  16  18
ATOM     17  C   LIG    1       26.452 -20.401   6.044  0.00  0.00    +0.020 C 
ATOM     18  C   LIG    1       25.071 -20.474   5.401  0.00  0.00    +0.081 C 
ENDBRANCH  16  18
BRANCH  16  19
ATOM     19  C   LIG    1       22.677 -20.445   5.552  0.00  0.00    +0.081 C 
ATOM     20  C   LIG    1       22.466 -19.143   4.788  0.00  0.00    +0.020 C 
ENDBRANCH  16  19
ENDBRANCH  15  16
ENDBRANCH  13  15
ENDBRANCH  12  13
ENDBRANCH   1  12
TORSDOF 7
ENDMDL
MODEL 9
REMARK VINA RESULT:      -7.1      1.810      2.934
REMARK  Name = *****
REMARK                            x       y       z     vdW  Elec       q    Type
REMARK                         _______ _______ _______ _____ _____    ______ ____
ROOT
ATOM      1  C   LIG    1       24.732 -23.577   7.074  0.00  0.00    +0.132 A 
ATOM      2  C   LIG    1       25.987 -24.140   6.872  0.00  0.00    +0.048 A 
ATOM      3  C   LIG    1       26.100 -25.417   6.310  0.00  0.00    +0.027 A 
ATOM      4  C   LIG    1       24.958 -26.121   5.911  0.00  0.00    +0.034 A 
ATOM      5  C   LIG    1       23.712 -25.498   6.030  0.00  0.00    +0.027 A 
ATOM      6  C   LIG    1       23.593 -24.230   6.609  0.00  0.00    +0.048 A 
ENDROOT
BRANCH   4   7
ATOM      7  N   LIG    1       25.125 -27.439   5.430  0.00  0.00    -0.286 N 
ATOM      8  H   LIG    1       25.355 -27.534   4.449  0.00  0.00    +0.155 HD
ATOM      9  C   LIG    1       25.070 -28.599   6.187  0.00  0.00    +0.214 C 
ATOM     10  O   LIG    1       24.849 -28.685   7.388  0.00  0.00    -0.276 OA
ATOM     11  C   LIG    1       25.293 -29.846   5.374  0.00  0.00    +0.109 C 
ENDBRANCH   4   7
BRANCH   1  12
ATOM     12  O   LIG    1       24.525 -22.347   7.732  0.00  0.00    -0.425 OA
BRANCH  12  13
ATOM     13  C   LIG    1       25.612 -21.587   8.207  0.00  0.00    +0.327 C 
ATOM     14  O   LIG    1       26.299 -21.832   9.179  0.00  0.00    -0.249 OA
BRANCH  13  15
ATOM     15  C   LIG    1       25.809 -20.367   7.316  0.00  0.00    +0.206 C 
BRANCH  15  16
ATOM     16  N   LIG    1       26.537 -20.625   6.055  0.00  0.00    -0.293 NA
BRANCH  16  18
ATOM     17  C   LIG    1       24.328 -20.425   4.814  0.00  0.00    +0.020 C 
ATOM     18  C   LIG    1       25.833 -20.178   4.841  0.00  0.00    +0.081 C 
ENDBRANCH  16  18
BRANCH  16  19
ATOM     19  C   LIG    1       27.919 -20.102   6.023  0.00  0.00    +0.081 C 
ATOM     20  C   LIG    1       28.937 -20.863   6.866  0.00  0.00    +0.020 C 
ENDBRANCH  16  19
ENDBRANCH  15  16
ENDBRANCH  13  15
ENDBRANCH  12  13
ENDBRANCH   1  12
TORSDOF 7
ENDMDL
