MODEL 1
REMARK VINA RESULT:      -4.4      0.000      0.000
REMARK  Name = *****
REMARK                            x       y       z     vdW  Elec       q    Type
REMARK                         _______ _______ _______ _____ _____    ______ ____
ROOT
ATOM      1  C   LIG    1       26.212 -14.459   3.599  0.00  0.00    +0.176 C 
ENDROOT
BRANCH   1   2
ATOM      2  O   LIG    1       26.525 -14.319   2.201  0.00  0.00    -0.387 OA
ATOM      3  H   LIG    1       27.308 -14.880   2.049  0.00  0.00    +0.210 HD
ENDBRANCH   1   2
BRANCH   1   4
ATOM      4  C   LIG    1       27.442 -14.052   4.433  0.00  0.00    +0.171 C 
BRANCH   4   5
ATOM      5  O   LIG    1       27.058 -13.367   5.632  0.00  0.00    -0.387 OA
ATOM      6  H   LIG    1       26.083 -13.459   5.665  0.00  0.00    +0.210 HD
ENDBRANCH   4   5
BRANCH   4   7
ATOM      7  C   LIG    1       28.456 -13.191   3.675  0.00  0.00    +0.190 C 
BRANCH   7   8
ATOM      8  O   LIG    1       29.067 -12.291   4.609  0.00  0.00    -0.392 OA
ATOM      9  H   LIG    1       29.222 -12.810   5.419  0.00  0.00    +0.209 HD
ENDBRANCH   7   8
ENDBRANCH   4   7
ENDBRANCH   1   4
BRANCH   1  10
ATOM     10  C   LIG    1       24.902 -13.696   3.883  0.00  0.00    +0.176 C 
BRANCH  10  11
ATOM     11  O   LIG    1       23.806 -14.636   3.917  0.00  0.00    -0.387 OA
ATOM     12  H   LIG    1       23.298 -14.385   4.719  0.00  0.00    +0.210 HD
ENDBRANCH  10  11
BRANCH  10  13
ATOM     13  C   LIG    1       24.567 -12.552   2.913  0.00  0.00    +0.171 C 
BRANCH  13  14
ATOM     14  O   LIG    1       23.829 -13.128   1.812  0.00  0.00    -0.387 OA
ATOM     15  H   LIG    1       23.134 -13.667   2.242  0.00  0.00    +0.210 HD
ENDBRANCH  13  14
BRANCH  13  16
ATOM     16  C   LIG    1       23.724 -11.447   3.555  0.00  0.00    +0.190 C 
BRANCH  16  17
ATOM     17  O   LIG    1       23.656 -11.669   4.968  0.00  0.00    -0.392 OA
ATOM     18  H   LIG    1       23.956 -12.575   5.118  0.00  0.00    +0.209 HD
ENDBRANCH  16  17
ENDBRANCH  13  16
ENDBRANCH  10  13
ENDBRANCH   1  10
TORSDOF 11
ENDMDL
MODEL 2
REMARK VINA RESULT:      -4.3      1.206      2.119
REMARK  Name = *****
REMARK                            x       y       z     vdW  Elec       q    Type
REMARK                         _______ _______ _______ _____ _____    ______ ____
ROOT
ATOM      1  C   LIG    1       26.497 -13.267   4.832  0.00  0.00    +0.176 C 
ENDROOT
BRANCH   1   2
ATOM      2  O   LIG    1       26.827 -13.672   6.173  0.00  0.00    -0.387 OA
ATOM      3  H   LIG    1       26.346 -14.508   6.322  0.00  0.00    +0.210 HD
ENDBRANCH   1   2
BRANCH   1   4
ATOM      4  C   LIG    1       27.679 -13.601   3.901  0.00  0.00    +0.171 C 
BRANCH   4   5
ATOM      5  O   LIG    1       28.131 -14.948   4.090  0.00  0.00    -0.387 OA
ATOM      6  H   LIG    1       28.908 -15.031   3.499  0.00  0.00    +0.210 HD
ENDBRANCH   4   5
BRANCH   4   7
ATOM      7  C   LIG    1       28.874 -12.654   4.042  0.00  0.00    +0.190 C 
BRANCH   7   8
ATOM      8  O   LIG    1       28.839 -12.079   5.354  0.00  0.00    -0.392 OA
ATOM      9  H   LIG    1       29.577 -12.486   5.844  0.00  0.00    +0.209 HD
ENDBRANCH   7   8
ENDBRANCH   4   7
ENDBRANCH   1   4
BRANCH   1  10
ATOM     10  C   LIG    1       25.131 -13.881   4.461  0.00  0.00    +0.176 C 
BRANCH  10  11
ATOM     11  O   LIG    1       25.348 -15.083   3.691  0.00  0.00    -0.387 OA
ATOM     12  H   LIG    1       25.463 -15.786   4.367  0.00  0.00    +0.210 HD
ENDBRANCH  10  11
BRANCH  10  13
ATOM     13  C   LIG    1       24.162 -12.957   3.707  0.00  0.00    +0.171 C 
BRANCH  13  14
ATOM     14  O   LIG    1       23.914 -11.813   4.556  0.00  0.00    -0.387 OA
ATOM     15  H   LIG    1       22.950 -11.839   4.722  0.00  0.00    +0.210 HD
ENDBRANCH  13  14
BRANCH  13  16
ATOM     16  C   LIG    1       24.715 -12.471   2.366  0.00  0.00    +0.190 C 
BRANCH  16  17
ATOM     17  O   LIG    1       23.820 -11.499   1.812  0.00  0.00    -0.392 OA
ATOM     18  H   LIG    1       23.019 -11.525   2.353  0.00  0.00    +0.209 HD
ENDBRANCH  16  17
ENDBRANCH  13  16
ENDBRANCH  10  13
ENDBRANCH   1  10
TORSDOF 11
ENDMDL
MODEL 3
REMARK VINA RESULT:      -4.3      1.041      4.257
REMARK  Name = *****
REMARK                            x       y       z     vdW  Elec       q    Type
REMARK                         _______ _______ _______ _____ _____    ______ ____
ROOT
ATOM      1  C   LIG    1       25.096 -13.863   3.650  0.00  0.00    +0.176 C 
ENDROOT
BRANCH   1   2
ATOM      2  O   LIG    1       25.108 -13.991   5.083  0.00  0.00    -0.387 OA
ATOM      3  H   LIG    1       25.119 -13.079   5.429  0.00  0.00    +0.210 HD
ENDBRANCH   1   2
BRANCH   1   4
ATOM      4  C   LIG    1       23.937 -12.934   3.237  0.00  0.00    +0.171 C 
BRANCH   4   5
ATOM      5  O   LIG    1       23.859 -12.795   1.812  0.00  0.00    -0.387 OA
ATOM      6  H   LIG    1       22.997 -13.196   1.573  0.00  0.00    +0.210 HD
ENDBRANCH   4   5
BRANCH   4   7
ATOM      7  C   LIG    1       23.995 -11.540   3.867  0.00  0.00    +0.190 C 
BRANCH   7   8
ATOM      8  O   LIG    1       23.733 -11.670   5.270  0.00  0.00    -0.392 OA
ATOM      9  H   LIG    1       23.091 -12.398   5.357  0.00  0.00    +0.209 HD
ENDBRANCH   7   8
ENDBRANCH   4   7
ENDBRANCH   1   4
BRANCH   1  10
ATOM     10  C   LIG    1       26.508 -13.451   3.186  0.00  0.00    +0.176 C 
BRANCH  10  11
ATOM     11  O   LIG    1       26.788 -14.073   1.914  0.00  0.00    -0.387 OA
ATOM     12  H   LIG    1       25.902 -14.221   1.517  0.00  0.00    +0.210 HD
ENDBRANCH  10  11
BRANCH  10  13
ATOM     13  C   LIG    1       27.652 -13.753   4.167  0.00  0.00    +0.171 C 
BRANCH  13  14
ATOM     14  O   LIG    1       27.985 -15.151   4.018  0.00  0.00    -0.387 OA
ATOM     15  H   LIG    1       27.208 -15.625   4.378  0.00  0.00    +0.210 HD
ENDBRANCH  13  14
BRANCH  13  16
ATOM     16  C   LIG    1       28.904 -12.912   3.908  0.00  0.00    +0.190 C 
BRANCH  16  17
ATOM     17  O   LIG    1       29.050 -11.950   4.958  0.00  0.00    -0.392 OA
ATOM     18  H   LIG    1       29.801 -11.391   4.716  0.00  0.00    +0.209 HD
ENDBRANCH  16  17
ENDBRANCH  13  16
ENDBRANCH  10  13
ENDBRANCH   1  10
TORSDOF 11
ENDMDL
MODEL 4
REMARK VINA RESULT:      -4.0      0.855      3.953
REMARK  Name = *****
REMARK                            x       y       z     vdW  Elec       q    Type
REMARK                         _______ _______ _______ _____ _____    ______ ____
ROOT
ATOM      1  C   LIG    1       24.789 -13.667   3.922  0.00  0.00    +0.176 C 
ENDROOT
BRANCH   1   2
ATOM      2  O   LIG    1       23.674 -14.385   4.482  0.00  0.00    -0.387 OA
ATOM      3  H   LIG    1       22.904 -14.145   3.933  0.00  0.00    +0.210 HD
ENDBRANCH   1   2
BRANCH   1   4
ATOM      4  C   LIG    1       24.548 -12.154   4.087  0.00  0.00    +0.171 C 
BRANCH   4   5
ATOM      5  O   LIG    1       23.826 -11.867   5.292  0.00  0.00    -0.387 OA
ATOM      6  H   LIG    1       23.170 -12.592   5.363  0.00  0.00    +0.210 HD
ENDBRANCH   4   5
BRANCH   4   7
ATOM      7  C   LIG    1       23.819 -11.503   2.908  0.00  0.00    +0.190 C 
BRANCH   7   8
ATOM      8  O   LIG    1       23.823 -12.427   1.812  0.00  0.00    -0.392 OA
ATOM      9  H   LIG    1       23.282 -12.017   1.114  0.00  0.00    +0.209 HD
ENDBRANCH   7   8
ENDBRANCH   4   7
ENDBRANCH   1   4
BRANCH   1  10
ATOM     10  C   LIG    1       26.088 -14.230   4.535  0.00  0.00    +0.176 C 
BRANCH  10  11
ATOM     11  O   LIG    1       26.575 -13.309   5.535  0.00  0.00    -0.387 OA
ATOM     12  H   LIG    1       26.825 -12.508   5.024  0.00  0.00    +0.210 HD
ENDBRANCH  10  11
BRANCH  10  13
ATOM     13  C   LIG    1       27.215 -14.554   3.542  0.00  0.00    +0.171 C 
BRANCH  13  14
ATOM     14  O   LIG    1       26.666 -14.415   2.213  0.00  0.00    -0.387 OA
ATOM     15  H   LIG    1       26.789 -13.468   1.998  0.00  0.00    +0.210 HD
ENDBRANCH  13  14
BRANCH  13  16
ATOM     16  C   LIG    1       28.424 -13.627   3.682  0.00  0.00    +0.190 C 
BRANCH  16  17
ATOM     17  O   LIG    1       28.115 -12.360   3.089  0.00  0.00    -0.392 OA
ATOM     18  H   LIG    1       27.153 -12.318   3.017  0.00  0.00    +0.209 HD
ENDBRANCH  16  17
ENDBRANCH  13  16
ENDBRANCH  10  13
ENDBRANCH   1  10
TORSDOF 11
ENDMDL
MODEL 5
REMARK VINA RESULT:      -4.0      6.619      7.501
REMARK  Name = *****
REMARK                            x       y       z     vdW  Elec       q    Type
REMARK                         _______ _______ _______ _____ _____    ______ ____
ROOT
ATOM      1  C   LIG    1       27.170 -20.346   6.182  0.00  0.00    +0.176 C 
ENDROOT
BRANCH   1   2
ATOM      2  O   LIG    1       26.885 -21.449   7.062  0.00  0.00    -0.387 OA
ATOM      3  H   LIG    1       27.273 -21.206   7.923  0.00  0.00    +0.210 HD
ENDBRANCH   1   2
BRANCH   1   4
ATOM      4  C   LIG    1       28.692 -20.266   5.954  0.00  0.00    +0.171 C 
BRANCH   4   5
ATOM      5  O   LIG    1       29.403 -21.128   6.853  0.00  0.00    -0.387 OA
ATOM      6  H   LIG    1       29.946 -20.520   7.397  0.00  0.00    +0.210 HD
ENDBRANCH   4   5
BRANCH   4   7
ATOM      7  C   LIG    1       29.269 -18.852   6.067  0.00  0.00    +0.190 C 
BRANCH   7   8
ATOM      8  O   LIG    1       29.002 -18.159   4.842  0.00  0.00    -0.392 OA
ATOM      9  H   LIG    1       29.037 -18.833   4.139  0.00  0.00    +0.209 HD
ENDBRANCH   7   8
ENDBRANCH   4   7
ENDBRANCH   1   4
BRANCH   1  10
ATOM     10  C   LIG    1       26.291 -20.488   4.923  0.00  0.00    +0.176 C 
BRANCH  10  11
ATOM     11  O   LIG    1       26.194 -19.205   4.267  0.00  0.00    -0.387 OA
ATOM     12  H   LIG    1       26.395 -18.556   4.976  0.00  0.00    +0.210 HD
ENDBRANCH  10  11
BRANCH  10  13
ATOM     13  C   LIG    1       24.880 -21.057   5.149  0.00  0.00    +0.171 C 
BRANCH  13  14
ATOM     14  O   LIG    1       24.379 -20.480   6.376  0.00  0.00    -0.387 OA
ATOM     15  H   LIG    1       24.886 -19.649   6.477  0.00  0.00    +0.210 HD
ENDBRANCH  13  14
BRANCH  13  16
ATOM     16  C   LIG    1       23.911 -20.728   4.011  0.00  0.00    +0.190 C 
BRANCH  16  17
ATOM     17  O   LIG    1       23.350 -19.428   4.232  0.00  0.00    -0.392 OA
ATOM     18  H   LIG    1       24.076 -18.865   4.532  0.00  0.00    +0.209 HD
ENDBRANCH  16  17
ENDBRANCH  13  16
ENDBRANCH  10  13
ENDBRANCH   1  10
TORSDOF 11
ENDMDL
MODEL 6
REMARK VINA RESULT:      -4.0      1.339      4.116
REMARK  Name = *****
REMARK                            x       y       z     vdW  Elec       q    Type
REMARK                         _______ _______ _______ _____ _____    ______ ____
ROOT
ATOM      1  C   LIG    1       25.865 -14.679   3.164  0.00  0.00    +0.176 C 
ENDROOT
BRANCH   1   2
ATOM      2  O   LIG    1       25.733 -16.111   3.193  0.00  0.00    -0.387 OA
ATOM      3  H   LIG    1       26.159 -16.399   4.022  0.00  0.00    +0.210 HD
ENDBRANCH   1   2
BRANCH   1   4
ATOM      4  C   LIG    1       24.740 -14.053   4.010  0.00  0.00    +0.171 C 
BRANCH   4   5
ATOM      5  O   LIG    1       23.652 -14.968   4.194  0.00  0.00    -0.387 OA
ATOM      6  H   LIG    1       22.959 -14.653   3.576  0.00  0.00    +0.210 HD
ENDBRANCH   4   5
BRANCH   4   7
ATOM      7  C   LIG    1       24.190 -12.739   3.450  0.00  0.00    +0.190 C 
BRANCH   7   8
ATOM      8  O   LIG    1       23.851 -12.945   2.072  0.00  0.00    -0.392 OA
ATOM      9  H   LIG    1       24.454 -13.638   1.748  0.00  0.00    +0.209 HD
ENDBRANCH   7   8
ENDBRANCH   4   7
ENDBRANCH   1   4
BRANCH   1  10
ATOM     10  C   LIG    1       27.311 -14.315   3.560  0.00  0.00    +0.176 C 
BRANCH  10  11
ATOM     11  O   LIG    1       27.934 -15.464   4.175  0.00  0.00    -0.387 OA
ATOM     12  H   LIG    1       28.645 -15.718   3.547  0.00  0.00    +0.210 HD
ENDBRANCH  10  11
BRANCH  10  13
ATOM     13  C   LIG    1       27.469 -13.093   4.478  0.00  0.00    +0.171 C 
BRANCH  13  14
ATOM     14  O   LIG    1       27.270 -13.549   5.835  0.00  0.00    -0.387 OA
ATOM     15  H   LIG    1       27.889 -13.007   6.365  0.00  0.00    +0.210 HD
ENDBRANCH  13  14
BRANCH  13  16
ATOM     16  C   LIG    1       28.847 -12.435   4.371  0.00  0.00    +0.190 C 
BRANCH  16  17
ATOM     17  O   LIG    1       29.148 -11.772   5.604  0.00  0.00    -0.392 OA
ATOM     18  H   LIG    1       28.793 -12.330   6.309  0.00  0.00    +0.209 HD
ENDBRANCH  16  17
ENDBRANCH  13  16
ENDBRANCH  10  13
ENDBRANCH   1  10
TORSDOF 11
ENDMDL
MODEL 7
REMARK VINA RESULT:      -4.0      6.503      8.471
REMARK  Name = *****
REMARK                            x       y       z     vdW  Elec       q    Type
REMARK                         _______ _______ _______ _____ _____    ______ ____
ROOT
ATOM      1  C   LIG    1       24.740 -21.041   5.485  0.00  0.00    +0.176 C 
ENDROOT
BRANCH   1   2
ATOM      2  O   LIG    1       24.232 -20.895   6.824  0.00  0.00    -0.387 OA
ATOM      3  H   LIG    1       24.157 -21.801   7.178  0.00  0.00    +0.210 HD
ENDBRANCH   1   2
BRANCH   1   4
ATOM      4  C   LIG    1       23.575 -20.899   4.487  0.00  0.00    +0.171 C 
BRANCH   4   5
ATOM      5  O   LIG    1       23.866 -21.554   3.245  0.00  0.00    -0.387 OA
ATOM      6  H   LIG    1       24.275 -22.405   3.507  0.00  0.00    +0.210 HD
ENDBRANCH   4   5
BRANCH   4   7
ATOM      7  C   LIG    1       23.170 -19.451   4.198  0.00  0.00    +0.190 C 
BRANCH   7   8
ATOM      8  O   LIG    1       22.298 -19.011   5.247  0.00  0.00    -0.392 OA
ATOM      9  H   LIG    1       21.504 -18.658   4.805  0.00  0.00    +0.209 HD
ENDBRANCH   7   8
ENDBRANCH   4   7
ENDBRANCH   1   4
BRANCH   1  10
ATOM     10  C   LIG    1       25.925 -20.071   5.306  0.00  0.00    +0.176 C 
BRANCH  10  11
ATOM     11  O   LIG    1       26.433 -20.191   3.959  0.00  0.00    -0.387 OA
ATOM     12  H   LIG    1       25.992 -19.463   3.468  0.00  0.00    +0.210 HD
ENDBRANCH  10  11
BRANCH  10  13
ATOM     13  C   LIG    1       27.081 -20.230   6.306  0.00  0.00    +0.171 C 
BRANCH  13  14
ATOM     14  O   LIG    1       27.004 -21.571   6.839  0.00  0.00    -0.387 OA
ATOM     15  H   LIG    1       26.634 -21.454   7.737  0.00  0.00    +0.210 HD
ENDBRANCH  13  14
BRANCH  13  16
ATOM     16  C   LIG    1       28.458 -20.024   5.671  0.00  0.00    +0.190 C 
BRANCH  16  17
ATOM     17  O   LIG    1       28.572 -18.668   5.224  0.00  0.00    -0.392 OA
ATOM     18  H   LIG    1       29.369 -18.626   4.678  0.00  0.00    +0.209 HD
ENDBRANCH  16  17
ENDBRANCH  13  16
ENDBRANCH  10  13
ENDBRANCH   1  10
TORSDOF 11
ENDMDL
MODEL 8
REMARK VINA RESULT:      -3.9      1.304      4.332
REMARK  Name = *****
REMARK                            x       y       z     vdW  Elec       q    Type
REMARK                         _______ _______ _______ _____ _____    ______ ____
ROOT
ATOM      1  C   LIG    1       25.383 -13.382   4.184  0.00  0.00    +0.176 C 
ENDROOT
BRANCH   1   2
ATOM      2  O   LIG    1       25.890 -12.633   5.303  0.00  0.00    -0.387 OA
ATOM      3  H   LIG    1       25.593 -11.715   5.163  0.00  0.00    +0.210 HD
ENDBRANCH   1   2
BRANCH   1   4
ATOM      4  C   LIG    1       23.952 -12.904   3.867  0.00  0.00    +0.171 C 
BRANCH   4   5
ATOM      5  O   LIG    1       23.322 -13.748   2.894  0.00  0.00    -0.387 OA
ATOM      6  H   LIG    1       23.182 -13.166   2.118  0.00  0.00    +0.210 HD
ENDBRANCH   4   5
BRANCH   4   7
ATOM      7  C   LIG    1       23.868 -11.452   3.389  0.00  0.00    +0.190 C 
BRANCH   7   8
ATOM      8  O   LIG    1       23.810 -11.453   1.957  0.00  0.00    -0.392 OA
ATOM      9  H   LIG    1       23.643 -10.530   1.694  0.00  0.00    +0.209 HD
ENDBRANCH   7   8
ENDBRANCH   4   7
ENDBRANCH   1   4
BRANCH   1  10
ATOM     10  C   LIG    1       26.409 -13.296   3.036  0.00  0.00    +0.176 C 
BRANCH  10  11
ATOM     11  O   LIG    1       25.807 -13.804   1.825  0.00  0.00    -0.387 OA
ATOM     12  H   LIG    1       25.462 -14.688   2.079  0.00  0.00    +0.210 HD
ENDBRANCH  10  11
BRANCH  10  13
ATOM     13  C   LIG    1       27.750 -14.007   3.279  0.00  0.00    +0.171 C 
BRANCH  13  14
ATOM     14  O   LIG    1       28.549 -13.139   4.114  0.00  0.00    -0.387 OA
ATOM     15  H   LIG    1       28.045 -13.077   4.951  0.00  0.00    +0.210 HD
ENDBRANCH  13  14
BRANCH  13  16
ATOM     16  C   LIG    1       27.595 -15.362   3.974  0.00  0.00    +0.190 C 
BRANCH  16  17
ATOM     17  O   LIG    1       26.685 -16.174   3.223  0.00  0.00    -0.392 OA
ATOM     18  H   LIG    1       26.826 -15.955   2.292  0.00  0.00    +0.209 HD
ENDBRANCH  16  17
ENDBRANCH  13  16
ENDBRANCH  10  13
ENDBRANCH   1  10
TORSDOF 11
ENDMDL
MODEL 9
REMARK VINA RESULT:      -3.9      6.838      8.532
REMARK  Name = *****
REMARK                            x       y       z     vdW  Elec       q    Type
REMARK                         _______ _______ _______ _____ _____    ______ ____
ROOT
ATOM      1  C   LIG    1       25.426 -20.207   4.791  0.00  0.00    +0.176 C 
ENDROOT
BRANCH   1   2
ATOM      2  O   LIG    1       25.894 -20.175   3.430  0.00  0.00    -0.387 OA
ATOM      3  H   LIG    1       26.497 -19.410   3.377  0.00  0.00    +0.210 HD
ENDBRANCH   1   2
BRANCH   1   4
ATOM      4  C   LIG    1       24.177 -21.106   4.872  0.00  0.00    +0.171 C 
BRANCH   4   5
ATOM      5  O   LIG    1       23.745 -21.521   3.570  0.00  0.00    -0.387 OA
ATOM      6  H   LIG    1       22.785 -21.322   3.555  0.00  0.00    +0.210 HD
ENDBRANCH   4   5
BRANCH   4   7
ATOM      7  C   LIG    1       22.993 -20.469   5.605  0.00  0.00    +0.190 C 
BRANCH   7   8
ATOM      8  O   LIG    1       23.216 -20.598   7.015  0.00  0.00    -0.392 OA
ATOM      9  H   LIG    1       23.001 -19.730   7.401  0.00  0.00    +0.209 HD
ENDBRANCH   7   8
ENDBRANCH   4   7
ENDBRANCH   1   4
BRANCH   1  10
ATOM     10  C   LIG    1       26.610 -20.587   5.704  0.00  0.00    +0.176 C 
BRANCH  10  11
ATOM     11  O   LIG    1       26.300 -20.207   7.062  0.00  0.00    -0.387 OA
ATOM     12  H   LIG    1       25.735 -20.938   7.395  0.00  0.00    +0.210 HD
ENDBRANCH  10  11
BRANCH  10  13
ATOM     13  C   LIG    1       27.977 -20.008   5.307  0.00  0.00    +0.171 C 
BRANCH  13  14
ATOM     14  O   LIG    1       27.744 -18.678   4.791  0.00  0.00    -0.387 OA
ATOM     15  H   LIG    1       27.293 -18.826   3.935  0.00  0.00    +0.210 HD
ENDBRANCH  13  14
BRANCH  13  16
ATOM     16  C   LIG    1       28.956 -19.922   6.481  0.00  0.00    +0.190 C 
BRANCH  16  17
ATOM     17  O   LIG    1       29.351 -21.245   6.861  0.00  0.00    -0.392 OA
ATOM     18  H   LIG    1       28.882 -21.445   7.681  0.00  0.00    +0.209 HD
ENDBRANCH  16  17
ENDBRANCH  13  16
ENDBRANCH  10  13
ENDBRANCH   1  10
TORSDOF 11
ENDMDL
