MODEL 1
REMARK VINA RESULT:       4.1      0.000      0.000
REMARK  Name = *****
REMARK                            x       y       z     vdW  Elec       q    Type
REMARK                         _______ _______ _______ _____ _____    ______ ____
ROOT
ATOM      1  C   LIG    1       26.571 -20.033   5.661  0.00  0.00    +0.021 C 
ATOM      2  C   LIG    1       27.275 -21.250   4.964  0.00  0.00    +0.016 C 
ATOM      3  C   LIG    1       28.803 -21.106   4.868  0.00  0.00    +0.001 C 
ATOM      4  C   LIG    1       29.458 -20.885   6.224  0.00  0.00    +0.000 C 
ATOM      5  C   LIG    1       28.787 -19.795   7.050  0.00  0.00    +0.001 C 
ATOM      6  C   LIG    1       27.260 -19.893   7.061  0.00  0.00    +0.016 C 
ENDROOT
BRANCH   1  10
ATOM      7  C   LIG    1       26.697 -16.175   3.448  0.00  0.00    +0.122 A 
ATOM      8  C   LIG    1       25.576 -16.985   3.520  0.00  0.00    +0.046 A 
ATOM      9  C   LIG    1       25.618 -18.257   4.089  0.00  0.00    +0.008 A 
ATOM     10  C   LIG    1       26.729 -18.727   4.800  0.00  0.00    -0.037 A 
ATOM     11  C   LIG    1       27.857 -17.886   4.782  0.00  0.00    +0.008 A 
ATOM     12  C   LIG    1       27.856 -16.656   4.065  0.00  0.00    +0.046 A 
BRANCH   7  13
ATOM     13  O   LIG    1       26.753 -14.951   2.813  0.00  0.00    -0.475 OA
BRANCH  13  14
ATOM     14  C   LIG    1       26.819 -13.731   3.600  0.00  0.00    +0.203 C 
ATOM     15  C   LIG    1       26.352 -14.059   5.041  0.00  0.00    +0.068 C 
BRANCH  14  17
ATOM     16  C   LIG    1       24.455 -12.602   3.737  0.00  0.00    +0.008 C 
ATOM     17  C   LIG    1       25.812 -12.699   3.026  0.00  0.00    +0.056 C 
ENDBRANCH  14  17
BRANCH  14  18
ATOM     18  C   LIG    1       28.295 -13.206   3.845  0.00  0.00    +0.349 C 
ATOM     19  O   LIG    1       28.695 -12.707   4.866  0.00  0.00    -0.246 OA
BRANCH  18  20
ATOM     20  O   LIG    1       29.132 -13.342   2.768  0.00  0.00    -0.478 OA
ATOM     21  H   LIG    1       30.045 -13.073   2.875  0.00  0.00    +0.295 HD
ENDBRANCH  18  20
ENDBRANCH  14  18
ENDBRANCH  13  14
ENDBRANCH   7  13
ENDBRANCH   1  10
BRANCH   1  22
ATOM     22  C   LIG    1       25.033 -20.371   5.851  0.00  0.00    -0.033 A 
ATOM     23  C   LIG    1       24.036 -20.005   4.916  0.00  0.00    +0.050 A 
ATOM     24  C   LIG    1       22.698 -20.461   5.000  0.00  0.00    +0.122 A 
ATOM     25  C   LIG    1       22.332 -21.282   6.052  0.00  0.00    +0.045 A 
ATOM     26  C   LIG    1       23.250 -21.545   7.062  0.00  0.00    +0.004 A 
ATOM     27  C   LIG    1       24.567 -21.079   6.973  0.00  0.00    +0.005 A 
BRANCH  24  28
ATOM     28  O   LIG    1       21.869 -19.994   4.024  0.00  0.00    -0.475 OA
BRANCH  28  29
ATOM     29  C   LIG    1       21.704 -18.612   3.676  0.00  0.00    +0.203 C 
ATOM     30  C   LIG    1       22.902 -18.031   2.900  0.00  0.00    +0.068 C 
BRANCH  29  31
ATOM     31  C   LIG    1       20.399 -18.218   2.937  0.00  0.00    +0.349 C 
ATOM     32  O   LIG    1       20.242 -17.184   2.296  0.00  0.00    -0.246 OA
BRANCH  31  33
ATOM     33  O   LIG    1       19.363 -19.086   3.115  0.00  0.00    -0.478 OA
ATOM     34  H   LIG    1       18.534 -18.793   2.679  0.00  0.00    +0.295 HD
ENDBRANCH  31  33
ENDBRANCH  29  31
BRANCH  29  35
ATOM     35  C   LIG    1       21.618 -17.887   5.056  0.00  0.00    +0.056 C 
ATOM     36  C   LIG    1       22.240 -16.490   5.097  0.00  0.00    +0.008 C 
ENDBRANCH  29  35
ENDBRANCH  28  29
ENDBRANCH  24  28
ENDBRANCH   1  22
TORSDOF 12
ENDMDL
MODEL 2
REMARK VINA RESULT:       4.7      1.039      1.685
REMARK  Name = *****
REMARK                            x       y       z     vdW  Elec       q    Type
REMARK                         _______ _______ _______ _____ _____    ______ ____
ROOT
ATOM      1  C   LIG    1       26.554 -20.027   5.595  0.00  0.00    +0.021 C 
ATOM      2  C   LIG    1       27.292 -21.254   4.954  0.00  0.00    +0.016 C 
ATOM      3  C   LIG    1       28.821 -21.101   4.913  0.00  0.00    +0.001 C 
ATOM      4  C   LIG    1       29.422 -20.844   6.288  0.00  0.00    +0.000 C 
ATOM      5  C   LIG    1       28.713 -19.741   7.062  0.00  0.00    +0.001 C 
ATOM      6  C   LIG    1       27.187 -19.850   7.017  0.00  0.00    +0.016 C 
ENDROOT
BRANCH   1  10
ATOM      7  C   LIG    1       26.702 -16.247   3.252  0.00  0.00    +0.122 A 
ATOM      8  C   LIG    1       25.662 -17.159   3.178  0.00  0.00    +0.046 A 
ATOM      9  C   LIG    1       25.722 -18.402   3.806  0.00  0.00    +0.008 A 
ATOM     10  C   LIG    1       26.736 -18.740   4.711  0.00  0.00    -0.037 A 
ATOM     11  C   LIG    1       27.771 -17.796   4.837  0.00  0.00    +0.008 A 
ATOM     12  C   LIG    1       27.780 -16.595   4.072  0.00  0.00    +0.046 A 
BRANCH   7  13
ATOM     13  O   LIG    1       26.753 -15.044   2.578  0.00  0.00    -0.475 OA
BRANCH  13  14
ATOM     14  C   LIG    1       26.296 -13.830   3.231  0.00  0.00    +0.203 C 
ATOM     15  C   LIG    1       25.184 -14.212   4.239  0.00  0.00    +0.068 C 
BRANCH  14  17
ATOM     16  C   LIG    1       24.182 -13.196   1.813  0.00  0.00    +0.008 C 
ATOM     17  C   LIG    1       25.643 -12.898   2.175  0.00  0.00    +0.056 C 
ENDBRANCH  14  17
BRANCH  14  18
ATOM     18  C   LIG    1       27.381 -13.163   4.176  0.00  0.00    +0.349 C 
ATOM     19  O   LIG    1       28.492 -12.842   3.840  0.00  0.00    -0.246 OA
BRANCH  18  20
ATOM     20  O   LIG    1       26.970 -12.979   5.471  0.00  0.00    -0.478 OA
ATOM     21  H   LIG    1       27.302 -12.213   5.940  0.00  0.00    +0.295 HD
ENDBRANCH  18  20
ENDBRANCH  14  18
ENDBRANCH  13  14
ENDBRANCH   7  13
ENDBRANCH   1  10
BRANCH   1  22
ATOM     22  C   LIG    1       25.012 -20.373   5.734  0.00  0.00    -0.033 A 
ATOM     23  C   LIG    1       24.044 -20.009   4.767  0.00  0.00    +0.050 A 
ATOM     24  C   LIG    1       22.707 -20.471   4.807  0.00  0.00    +0.122 A 
ATOM     25  C   LIG    1       22.310 -21.296   5.844  0.00  0.00    +0.045 A 
ATOM     26  C   LIG    1       23.196 -21.556   6.883  0.00  0.00    +0.004 A 
ATOM     27  C   LIG    1       24.512 -21.085   6.839  0.00  0.00    +0.005 A 
BRANCH  24  28
ATOM     28  O   LIG    1       21.908 -20.006   3.805  0.00  0.00    -0.475 OA
BRANCH  28  29
ATOM     29  C   LIG    1       21.243 -18.734   3.805  0.00  0.00    +0.203 C 
ATOM     30  C   LIG    1       19.773 -18.815   4.262  0.00  0.00    +0.068 C 
BRANCH  29  31
ATOM     31  C   LIG    1       21.934 -17.574   4.567  0.00  0.00    +0.349 C 
ATOM     32  O   LIG    1       21.953 -17.450   5.787  0.00  0.00    -0.246 OA
BRANCH  31  33
ATOM     33  O   LIG    1       22.474 -16.612   3.765  0.00  0.00    -0.478 OA
ATOM     34  H   LIG    1       21.801 -16.014   3.373  0.00  0.00    +0.295 HD
ENDBRANCH  31  33
ENDBRANCH  29  31
BRANCH  29  35
ATOM     35  C   LIG    1       21.266 -18.300   2.306  0.00  0.00    +0.056 C 
ATOM     36  C   LIG    1       19.997 -17.601   1.812  0.00  0.00    +0.008 C 
ENDBRANCH  29  35
ENDBRANCH  28  29
ENDBRANCH  24  28
ENDBRANCH   1  22
TORSDOF 12
ENDMDL
MODEL 3
REMARK VINA RESULT:       6.2      2.313      5.252
REMARK  Name = *****
REMARK                            x       y       z     vdW  Elec       q    Type
REMARK                         _______ _______ _______ _____ _____    ______ ____
ROOT
ATOM      1  C   LIG    1       22.991 -18.417   4.170  0.00  0.00    +0.021 C 
ATOM      2  C   LIG    1       21.833 -17.699   4.951  0.00  0.00    +0.016 C 
ATOM      3  C   LIG    1       21.028 -16.713   4.089  0.00  0.00    +0.001 C 
ATOM      4  C   LIG    1       20.437 -17.365   2.848  0.00  0.00    +0.000 C 
ATOM      5  C   LIG    1       21.445 -18.191   2.060  0.00  0.00    +0.001 C 
ATOM      6  C   LIG    1       22.306 -19.100   2.938  0.00  0.00    +0.016 C 
ENDROOT
BRANCH   1  10
ATOM      7  C   LIG    1       26.080 -15.331   3.310  0.00  0.00    +0.122 A 
ATOM      8  C   LIG    1       24.791 -15.037   3.726  0.00  0.00    +0.046 A 
ATOM      9  C   LIG    1       23.807 -16.018   3.835  0.00  0.00    +0.008 A 
ATOM     10  C   LIG    1       24.091 -17.384   3.729  0.00  0.00    -0.037 A 
ATOM     11  C   LIG    1       25.413 -17.699   3.362  0.00  0.00    +0.008 A 
ATOM     12  C   LIG    1       26.374 -16.682   3.100  0.00  0.00    +0.046 A 
BRANCH   7  13
ATOM     13  O   LIG    1       27.074 -14.401   3.086  0.00  0.00    -0.475 OA
BRANCH  13  14
ATOM     14  C   LIG    1       26.955 -13.067   3.649  0.00  0.00    +0.203 C 
ATOM     15  C   LIG    1       25.996 -12.246   2.751  0.00  0.00    +0.068 C 
BRANCH  14  17
ATOM     16  C   LIG    1       29.097 -12.236   4.915  0.00  0.00    +0.008 C 
ATOM     17  C   LIG    1       28.338 -12.364   3.587  0.00  0.00    +0.056 C 
ENDBRANCH  14  17
BRANCH  14  18
ATOM     18  C   LIG    1       26.211 -13.025   5.048  0.00  0.00    +0.349 C 
ATOM     19  O   LIG    1       26.624 -13.514   6.069  0.00  0.00    -0.246 OA
BRANCH  18  20
ATOM     20  O   LIG    1       25.000 -12.384   5.029  0.00  0.00    -0.478 OA
ATOM     21  H   LIG    1       24.900 -11.601   5.572  0.00  0.00    +0.295 HD
ENDBRANCH  18  20
ENDBRANCH  14  18
ENDBRANCH  13  14
ENDBRANCH   7  13
ENDBRANCH   1  10
BRANCH   1  22
ATOM     22  C   LIG    1       23.633 -19.522   5.109  0.00  0.00    -0.033 A 
ATOM     23  C   LIG    1       24.936 -19.419   5.652  0.00  0.00    +0.050 A 
ATOM     24  C   LIG    1       25.436 -20.315   6.626  0.00  0.00    +0.122 A 
ATOM     25  C   LIG    1       24.634 -21.356   7.058  0.00  0.00    +0.045 A 
ATOM     26  C   LIG    1       23.405 -21.568   6.444  0.00  0.00    +0.004 A 
ATOM     27  C   LIG    1       22.926 -20.681   5.473  0.00  0.00    +0.005 A 
BRANCH  24  28
ATOM     28  O   LIG    1       26.719 -20.076   7.023  0.00  0.00    -0.475 OA
BRANCH  28  29
ATOM     29  C   LIG    1       27.873 -20.165   6.175  0.00  0.00    +0.203 C 
ATOM     30  C   LIG    1       28.507 -21.571   6.154  0.00  0.00    +0.068 C 
BRANCH  29  31
ATOM     31  C   LIG    1       27.718 -19.671   4.714  0.00  0.00    +0.349 C 
ATOM     32  O   LIG    1       28.296 -18.699   4.238  0.00  0.00    -0.246 OA
BRANCH  31  33
ATOM     33  O   LIG    1       26.802 -20.362   3.976  0.00  0.00    -0.478 OA
ATOM     34  H   LIG    1       26.796 -21.324   4.171  0.00  0.00    +0.295 HD
ENDBRANCH  31  33
ENDBRANCH  29  31
BRANCH  29  35
ATOM     35  C   LIG    1       28.892 -19.179   6.826  0.00  0.00    +0.056 C 
ATOM     36  C   LIG    1       29.328 -18.013   5.937  0.00  0.00    +0.008 C 
ENDBRANCH  29  35
ENDBRANCH  28  29
ENDBRANCH  24  28
ENDBRANCH   1  22
TORSDOF 12
ENDMDL
MODEL 4
REMARK VINA RESULT:       6.6      2.261      5.442
REMARK  Name = *****
REMARK                            x       y       z     vdW  Elec       q    Type
REMARK                         _______ _______ _______ _____ _____    ______ ____
ROOT
ATOM      1  C   LIG    1       22.090 -18.621   4.206  0.00  0.00    +0.021 C 
ATOM      2  C   LIG    1       20.619 -18.497   4.742  0.00  0.00    +0.016 C 
ATOM      3  C   LIG    1       19.702 -17.659   3.836  0.00  0.00    +0.001 C 
ATOM      4  C   LIG    1       19.651 -18.184   2.408  0.00  0.00    +0.000 C 
ATOM      5  C   LIG    1       21.026 -18.453   1.812  0.00  0.00    +0.001 C 
ATOM      6  C   LIG    1       21.963 -19.206   2.759  0.00  0.00    +0.016 C 
ENDROOT
BRANCH   1  10
ATOM      7  C   LIG    1       24.131 -14.691   4.640  0.00  0.00    +0.122 A 
ATOM      8  C   LIG    1       22.918 -14.999   5.234  0.00  0.00    +0.046 A 
ATOM      9  C   LIG    1       22.234 -16.180   4.950  0.00  0.00    +0.008 A 
ATOM     10  C   LIG    1       22.806 -17.222   4.210  0.00  0.00    -0.037 A 
ATOM     11  C   LIG    1       24.065 -16.942   3.649  0.00  0.00    +0.008 A 
ATOM     12  C   LIG    1       24.688 -15.672   3.814  0.00  0.00    +0.046 A 
BRANCH   7  13
ATOM     13  O   LIG    1       24.813 -13.502   4.797  0.00  0.00    -0.475 OA
BRANCH  13  14
ATOM     14  C   LIG    1       26.165 -13.371   4.281  0.00  0.00    +0.203 C 
ATOM     15  C   LIG    1       26.738 -14.793   4.058  0.00  0.00    +0.068 C 
BRANCH  14  17
ATOM     16  C   LIG    1       28.573 -12.804   5.153  0.00  0.00    +0.008 C 
ATOM     17  C   LIG    1       27.056 -12.692   5.356  0.00  0.00    +0.056 C 
ENDBRANCH  14  17
BRANCH  14  18
ATOM     18  C   LIG    1       26.238 -12.755   2.822  0.00  0.00    +0.349 C 
ATOM     19  O   LIG    1       25.288 -12.420   2.161  0.00  0.00    -0.246 OA
BRANCH  18  20
ATOM     20  O   LIG    1       27.507 -12.633   2.319  0.00  0.00    -0.478 OA
ATOM     21  H   LIG    1       27.826 -13.324   1.738  0.00  0.00    +0.295 HD
ENDBRANCH  18  20
ENDBRANCH  14  18
ENDBRANCH  13  14
ENDBRANCH   7  13
ENDBRANCH   1  10
BRANCH   1  22
ATOM     22  C   LIG    1       22.885 -19.637   5.128  0.00  0.00    -0.033 A 
ATOM     23  C   LIG    1       24.250 -19.473   5.469  0.00  0.00    +0.050 A 
ATOM     24  C   LIG    1       24.905 -20.280   6.430  0.00  0.00    +0.122 A 
ATOM     25  C   LIG    1       24.197 -21.293   7.053  0.00  0.00    +0.045 A 
ATOM     26  C   LIG    1       22.900 -21.571   6.639  0.00  0.00    +0.004 A 
ATOM     27  C   LIG    1       22.266 -20.773   5.680  0.00  0.00    +0.005 A 
BRANCH  24  28
ATOM     28  O   LIG    1       26.224 -19.993   6.619  0.00  0.00    -0.475 OA
BRANCH  28  29
ATOM     29  C   LIG    1       27.222 -19.992   5.588  0.00  0.00    +0.203 C 
ATOM     30  C   LIG    1       27.138 -21.217   4.656  0.00  0.00    +0.068 C 
BRANCH  29  31
ATOM     31  C   LIG    1       27.338 -18.715   4.715  0.00  0.00    +0.349 C 
ATOM     32  O   LIG    1       26.619 -18.455   3.756  0.00  0.00    -0.246 OA
BRANCH  31  33
ATOM     33  O   LIG    1       28.382 -17.900   5.039  0.00  0.00    -0.478 OA
ATOM     34  H   LIG    1       29.258 -18.313   4.875  0.00  0.00    +0.295 HD
ENDBRANCH  31  33
ENDBRANCH  29  31
BRANCH  29  35
ATOM     35  C   LIG    1       28.569 -20.066   6.372  0.00  0.00    +0.056 C 
ATOM     36  C   LIG    1       28.946 -21.456   6.889  0.00  0.00    +0.008 C 
ENDBRANCH  29  35
ENDBRANCH  28  29
ENDBRANCH  24  28
ENDBRANCH   1  22
TORSDOF 12
ENDMDL
