MODEL 1
REMARK VINA RESULT:       7.2      0.000      0.000
REMARK  Name = *****
REMARK                            x       y       z     vdW  Elec       q    Type
REMARK                         _______ _______ _______ _____ _____    ______ ____
ROOT
ATOM      1  C   LIG    1       22.789 -19.765   3.627  0.00  0.00    +0.201 C 
ATOM      2  C   LIG    1       21.981 -18.454   3.467  0.00  0.00    +0.042 C 
ATOM      3  C   LIG    1       21.965 -18.022   1.992  0.00  0.00    +0.025 C 
ATOM      4  C   LIG    1       20.532 -18.486   3.973  0.00  0.00    +0.025 C 
ATOM      5  S   LIG    1       22.874 -17.138   4.421  0.00  0.00    -0.127 S 
ATOM      6  C   LIG    1       24.381 -18.136   4.691  0.00  0.00    +0.169 C 
ATOM      7  C   LIG    1       25.631 -17.910   3.809  0.00  0.00    +0.223 C 
ATOM      8  C   LIG    1       25.083 -19.124   3.001  0.00  0.00    +0.244 C 
ATOM      9  O   LIG    1       25.255 -19.629   1.909  0.00  0.00    -0.273 OA
ATOM     10  N   LIG    1       24.155 -19.387   3.954  0.00  0.00    -0.270 N 
ENDROOT
BRANCH   1  11
ATOM     11  C   LIG    1       22.286 -20.726   4.705  0.00  0.00    +0.332 C 
ATOM     12  O   LIG    1       21.150 -20.700   5.162  0.00  0.00    -0.249 OA
BRANCH  11  13
ATOM     13  O   LIG    1       23.272 -21.564   5.121  0.00  0.00    -0.426 OA
BRANCH  13  14
ATOM     14  C   LIG    1       23.604 -21.524   6.505  0.00  0.00    +0.472 C 
BRANCH  14  15
ATOM     15  O   LIG    1       25.000 -21.536   6.786  0.00  0.00    -0.427 OA
BRANCH  15  16
ATOM     16  C   LIG    1       25.812 -21.282   5.729  0.00  0.00    +0.315 C 
ATOM     17  O   LIG    1       25.543 -21.545   4.564  0.00  0.00    -0.250 OA
BRANCH  16  19
ATOM     18  C   LIG    1       27.927 -21.566   6.987  0.00  0.00    +0.022 C 
ATOM     19  C   LIG    1       27.087 -20.569   6.181  0.00  0.00    +0.059 C 
ATOM     20  C   LIG    1       27.886 -20.052   4.973  0.00  0.00    +0.022 C 
ATOM     21  C   LIG    1       26.694 -19.373   7.062  0.00  0.00    +0.022 C 
ENDBRANCH  16  19
ENDBRANCH  15  16
ENDBRANCH  14  15
ENDBRANCH  13  14
ENDBRANCH  11  13
ENDBRANCH   1  11
BRANCH   7  22
ATOM     22  N   LIG    1       25.674 -16.634   3.070  0.00  0.00    -0.261 NA
ATOM     23  C   LIG    1       25.830 -15.632   3.868  0.00  0.00    +0.179 C 
BRANCH  23  24
ATOM     24  N   LIG    1       25.918 -14.300   3.550  0.00  0.00    -0.321 N 
ATOM     25  C   LIG    1       26.588 -13.348   4.424  0.00  0.00    +0.106 C 
ATOM     26  C   LIG    1       25.591 -12.556   5.274  0.00  0.00    +0.019 C 
ATOM     27  C   LIG    1       24.739 -11.580   4.459  0.00  0.00    +0.002 C 
ATOM     28  C   LIG    1       23.497 -12.186   3.804  0.00  0.00    +0.002 C 
ATOM     29  C   LIG    1       23.664 -13.502   3.044  0.00  0.00    +0.019 C 
ATOM     30  C   LIG    1       25.065 -13.756   2.497  0.00  0.00    +0.106 C 
ENDBRANCH  23  24
ENDBRANCH   7  22
TORSDOF 8
ENDMDL
MODEL 2
REMARK VINA RESULT:       7.3      0.940      1.667
REMARK  Name = *****
REMARK                            x       y       z     vdW  Elec       q    Type
REMARK                         _______ _______ _______ _____ _____    ______ ____
ROOT
ATOM      1  C   LIG    1       22.789 -19.714   3.615  0.00  0.00    +0.201 C 
ATOM      2  C   LIG    1       21.944 -18.424   3.485  0.00  0.00    +0.042 C 
ATOM      3  C   LIG    1       21.934 -17.946   2.024  0.00  0.00    +0.025 C 
ATOM      4  C   LIG    1       20.491 -18.515   3.971  0.00  0.00    +0.025 C 
ATOM      5  S   LIG    1       22.785 -17.112   4.491  0.00  0.00    -0.127 S 
ATOM      6  C   LIG    1       24.317 -18.072   4.751  0.00  0.00    +0.169 C 
ATOM      7  C   LIG    1       25.571 -17.781   3.893  0.00  0.00    +0.223 C 
ATOM      8  C   LIG    1       25.070 -18.985   3.040  0.00  0.00    +0.244 C 
ATOM      9  O   LIG    1       25.271 -19.450   1.936  0.00  0.00    -0.273 OA
ATOM     10  N   LIG    1       24.139 -19.306   3.973  0.00  0.00    -0.270 N 
ENDROOT
BRANCH   1  11
ATOM     11  C   LIG    1       22.302 -20.723   4.656  0.00  0.00    +0.332 C 
ATOM     12  O   LIG    1       21.161 -20.744   5.100  0.00  0.00    -0.249 OA
BRANCH  11  13
ATOM     13  O   LIG    1       23.308 -21.544   5.058  0.00  0.00    -0.426 OA
BRANCH  13  14
ATOM     14  C   LIG    1       23.624 -21.536   6.447  0.00  0.00    +0.472 C 
BRANCH  14  15
ATOM     15  O   LIG    1       25.017 -21.568   6.743  0.00  0.00    -0.427 OA
BRANCH  15  16
ATOM     16  C   LIG    1       25.843 -21.278   5.706  0.00  0.00    +0.315 C 
ATOM     17  O   LIG    1       25.602 -21.527   4.532  0.00  0.00    -0.250 OA
BRANCH  16  19
ATOM     18  C   LIG    1       27.923 -21.525   7.027  0.00  0.00    +0.022 C 
ATOM     19  C   LIG    1       27.091 -20.543   6.195  0.00  0.00    +0.059 C 
ATOM     20  C   LIG    1       27.917 -20.014   5.010  0.00  0.00    +0.022 C 
ATOM     21  C   LIG    1       26.653 -19.353   7.061  0.00  0.00    +0.022 C 
ENDBRANCH  16  19
ENDBRANCH  15  16
ENDBRANCH  14  15
ENDBRANCH  13  14
ENDBRANCH  11  13
ENDBRANCH   1  11
BRANCH   7  22
ATOM     22  N   LIG    1       25.584 -16.482   3.194  0.00  0.00    -0.261 NA
ATOM     23  C   LIG    1       26.310 -15.617   3.819  0.00  0.00    +0.179 C 
BRANCH  23  24
ATOM     24  N   LIG    1       26.562 -14.313   3.474  0.00  0.00    -0.321 N 
ATOM     25  C   LIG    1       27.603 -13.962   2.518  0.00  0.00    +0.106 C 
ATOM     26  C   LIG    1       28.881 -13.490   3.217  0.00  0.00    +0.019 C 
ATOM     27  C   LIG    1       28.727 -12.138   3.917  0.00  0.00    +0.002 C 
ATOM     28  C   LIG    1       28.136 -12.195   5.326  0.00  0.00    +0.002 C 
ATOM     29  C   LIG    1       26.883 -13.045   5.538  0.00  0.00    +0.019 C 
ATOM     30  C   LIG    1       26.018 -13.236   4.297  0.00  0.00    +0.106 C 
ENDBRANCH  23  24
ENDBRANCH   7  22
TORSDOF 8
ENDMDL
MODEL 3
REMARK VINA RESULT:       7.8      1.648      2.810
REMARK  Name = *****
REMARK                            x       y       z     vdW  Elec       q    Type
REMARK                         _______ _______ _______ _____ _____    ______ ____
ROOT
ATOM      1  C   LIG    1       23.152 -19.103   4.796  0.00  0.00    +0.201 C 
ATOM      2  C   LIG    1       23.943 -18.960   3.472  0.00  0.00    +0.042 C 
ATOM      3  C   LIG    1       25.200 -18.104   3.700  0.00  0.00    +0.025 C 
ATOM      4  C   LIG    1       24.369 -20.268   2.793  0.00  0.00    +0.025 C 
ATOM      5  S   LIG    1       22.856 -18.043   2.280  0.00  0.00    -0.127 S 
ATOM      6  C   LIG    1       21.620 -17.558   3.536  0.00  0.00    +0.169 C 
ATOM      7  C   LIG    1       21.639 -16.132   4.135  0.00  0.00    +0.223 C 
ATOM      8  C   LIG    1       22.424 -16.805   5.300  0.00  0.00    +0.244 C 
ATOM      9  O   LIG    1       23.126 -16.459   6.230  0.00  0.00    -0.273 OA
ATOM     10  N   LIG    1       22.156 -18.044   4.816  0.00  0.00    -0.270 N 
ENDROOT
BRANCH   1  11
ATOM     11  C   LIG    1       22.436 -20.439   4.997  0.00  0.00    +0.332 C 
ATOM     12  O   LIG    1       21.264 -20.633   4.698  0.00  0.00    -0.249 OA
BRANCH  11  13
ATOM     13  O   LIG    1       23.246 -21.350   5.598  0.00  0.00    -0.426 OA
BRANCH  13  14
ATOM     14  C   LIG    1       23.665 -21.057   6.927  0.00  0.00    +0.472 C 
BRANCH  14  15
ATOM     15  O   LIG    1       25.048 -20.744   7.062  0.00  0.00    -0.427 OA
BRANCH  15  16
ATOM     16  C   LIG    1       25.823 -21.037   5.987  0.00  0.00    +0.315 C 
ATOM     17  O   LIG    1       25.418 -21.567   4.960  0.00  0.00    -0.250 OA
BRANCH  16  19
ATOM     18  C   LIG    1       27.205 -19.200   6.908  0.00  0.00    +0.022 C 
ATOM     19  C   LIG    1       27.259 -20.561   6.206  0.00  0.00    +0.059 C 
ATOM     20  C   LIG    1       28.048 -21.570   7.058  0.00  0.00    +0.022 C 
ATOM     21  C   LIG    1       27.946 -20.427   4.839  0.00  0.00    +0.022 C 
ENDBRANCH  16  19
ENDBRANCH  15  16
ENDBRANCH  14  15
ENDBRANCH  13  14
ENDBRANCH  11  13
ENDBRANCH   1  11
BRANCH   7  22
ATOM     22  N   LIG    1       22.397 -15.124   3.371  0.00  0.00    -0.261 NA
ATOM     23  C   LIG    1       23.520 -14.845   3.941  0.00  0.00    +0.179 C 
BRANCH  23  24
ATOM     24  N   LIG    1       24.487 -13.964   3.527  0.00  0.00    -0.321 N 
ATOM     25  C   LIG    1       25.396 -14.284   2.435  0.00  0.00    +0.106 C 
ATOM     26  C   LIG    1       26.761 -14.750   2.949  0.00  0.00    +0.019 C 
ATOM     27  C   LIG    1       27.569 -13.637   3.620  0.00  0.00    +0.002 C 
ATOM     28  C   LIG    1       27.245 -13.393   5.095  0.00  0.00    +0.002 C 
ATOM     29  C   LIG    1       25.773 -13.289   5.492  0.00  0.00    +0.019 C 
ATOM     30  C   LIG    1       24.837 -12.831   4.379  0.00  0.00    +0.106 C 
ENDBRANCH  23  24
ENDBRANCH   7  22
TORSDOF 8
ENDMDL
MODEL 4
REMARK VINA RESULT:       8.5      3.021      6.918
REMARK  Name = *****
REMARK                            x       y       z     vdW  Elec       q    Type
REMARK                         _______ _______ _______ _____ _____    ______ ____
ROOT
ATOM      1  C   LIG    1       25.728 -13.087   3.459  0.00  0.00    +0.201 C 
ATOM      2  C   LIG    1       25.596 -13.216   4.996  0.00  0.00    +0.042 C 
ATOM      3  C   LIG    1       26.908 -12.788   5.674  0.00  0.00    +0.025 C 
ATOM      4  C   LIG    1       24.443 -12.437   5.644  0.00  0.00    +0.025 C 
ATOM      5  S   LIG    1       25.337 -15.013   5.376  0.00  0.00    -0.127 S 
ATOM      6  C   LIG    1       25.746 -15.590   3.691  0.00  0.00    +0.169 C 
ATOM      7  C   LIG    1       27.146 -16.175   3.389  0.00  0.00    +0.223 C 
ATOM      8  C   LIG    1       27.458 -14.738   2.873  0.00  0.00    +0.244 C 
ATOM      9  O   LIG    1       28.439 -14.072   2.606  0.00  0.00    -0.273 OA
ATOM     10  N   LIG    1       26.152 -14.384   2.955  0.00  0.00    -0.270 N 
ENDROOT
BRANCH   1  11
ATOM     11  C   LIG    1       24.454 -12.678   2.717  0.00  0.00    +0.332 C 
ATOM     12  O   LIG    1       24.152 -11.516   2.474  0.00  0.00    -0.249 OA
BRANCH  11  13
ATOM     13  O   LIG    1       23.686 -13.759   2.418  0.00  0.00    -0.426 OA
BRANCH  13  14
ATOM     14  C   LIG    1       23.008 -14.382   3.505  0.00  0.00    +0.472 C 
BRANCH  14  15
ATOM     15  O   LIG    1       22.930 -15.802   3.425  0.00  0.00    -0.427 OA
BRANCH  15  16
ATOM     16  C   LIG    1       22.441 -16.425   4.527  0.00  0.00    +0.315 C 
ATOM     17  O   LIG    1       22.051 -15.852   5.536  0.00  0.00    -0.250 OA
BRANCH  16  19
ATOM     18  C   LIG    1       21.068 -18.269   3.605  0.00  0.00    +0.022 C 
ATOM     19  C   LIG    1       22.385 -17.938   4.316  0.00  0.00    +0.059 C 
ATOM     20  C   LIG    1       23.580 -18.421   3.477  0.00  0.00    +0.022 C 
ATOM     21  C   LIG    1       22.435 -18.627   5.688  0.00  0.00    +0.022 C 
ENDBRANCH  16  19
ENDBRANCH  15  16
ENDBRANCH  14  15
ENDBRANCH  13  14
ENDBRANCH  11  13
ENDBRANCH   1  11
BRANCH   7  22
ATOM     22  N   LIG    1       27.930 -16.603   4.562  0.00  0.00    -0.261 NA
ATOM     23  C   LIG    1       27.675 -17.827   4.879  0.00  0.00    +0.179 C 
BRANCH  23  24
ATOM     24  N   LIG    1       28.209 -18.568   5.903  0.00  0.00    -0.321 N 
ATOM     25  C   LIG    1       29.474 -19.275   5.757  0.00  0.00    +0.106 C 
ATOM     26  C   LIG    1       29.263 -20.764   5.470  0.00  0.00    +0.019 C 
ATOM     27  C   LIG    1       28.689 -21.537   6.659  0.00  0.00    +0.002 C 
ATOM     28  C   LIG    1       27.167 -21.484   6.800  0.00  0.00    +0.002 C 
ATOM     29  C   LIG    1       26.488 -20.120   6.679  0.00  0.00    +0.019 C 
ATOM     30  C   LIG    1       27.369 -18.929   7.041  0.00  0.00    +0.106 C 
ENDBRANCH  23  24
ENDBRANCH   7  22
TORSDOF 8
ENDMDL
MODEL 5
REMARK VINA RESULT:       9.0      3.280      7.334
REMARK  Name = *****
REMARK                            x       y       z     vdW  Elec       q    Type
REMARK                         _______ _______ _______ _____ _____    ______ ____
ROOT
ATOM      1  C   LIG    1       24.593 -13.626   3.843  0.00  0.00    +0.201 C 
ATOM      2  C   LIG    1       24.135 -13.715   5.319  0.00  0.00    +0.042 C 
ATOM      3  C   LIG    1       25.164 -14.508   6.142  0.00  0.00    +0.025 C 
ATOM      4  C   LIG    1       23.878 -12.380   6.030  0.00  0.00    +0.025 C 
ATOM      5  S   LIG    1       22.547 -14.673   5.345  0.00  0.00    -0.127 S 
ATOM      6  C   LIG    1       22.674 -15.233   3.609  0.00  0.00    +0.169 C 
ATOM      7  C   LIG    1       23.170 -16.662   3.288  0.00  0.00    +0.223 C 
ATOM      8  C   LIG    1       24.544 -15.962   3.067  0.00  0.00    +0.244 C 
ATOM      9  O   LIG    1       25.714 -16.282   2.985  0.00  0.00    -0.273 OA
ATOM     10  N   LIG    1       23.972 -14.734   3.135  0.00  0.00    -0.270 N 
ENDROOT
BRANCH   1  11
ATOM     11  C   LIG    1       24.231 -12.330   3.115  0.00  0.00    +0.332 C 
ATOM     12  O   LIG    1       23.457 -11.493   3.561  0.00  0.00    -0.249 OA
BRANCH  11  13
ATOM     13  O   LIG    1       24.833 -12.261   1.898  0.00  0.00    -0.426 OA
BRANCH  13  14
ATOM     14  C   LIG    1       26.017 -11.474   1.813  0.00  0.00    +0.472 C 
BRANCH  14  15
ATOM     15  O   LIG    1       27.069 -11.881   2.683  0.00  0.00    -0.427 OA
BRANCH  15  16
ATOM     16  C   LIG    1       27.272 -13.219   2.772  0.00  0.00    +0.315 C 
ATOM     17  O   LIG    1       26.856 -14.042   1.966  0.00  0.00    -0.250 OA
BRANCH  16  19
ATOM     18  C   LIG    1       27.357 -13.187   5.247  0.00  0.00    +0.022 C 
ATOM     19  C   LIG    1       28.140 -13.559   3.983  0.00  0.00    +0.059 C 
ATOM     20  C   LIG    1       28.501 -15.054   3.999  0.00  0.00    +0.022 C 
ATOM     21  C   LIG    1       29.437 -12.739   3.903  0.00  0.00    +0.022 C 
ENDBRANCH  16  19
ENDBRANCH  15  16
ENDBRANCH  14  15
ENDBRANCH  13  14
ENDBRANCH  11  13
ENDBRANCH   1  11
BRANCH   7  22
ATOM     22  N   LIG    1       23.131 -17.623   4.407  0.00  0.00    -0.261 NA
ATOM     23  C   LIG    1       23.221 -18.839   3.987  0.00  0.00    +0.179 C 
BRANCH  23  24
ATOM     24  N   LIG    1       23.224 -19.994   4.728  0.00  0.00    -0.321 N 
ATOM     25  C   LIG    1       22.830 -20.005   6.130  0.00  0.00    +0.106 C 
ATOM     26  C   LIG    1       24.045 -20.009   7.062  0.00  0.00    +0.019 C 
ATOM     27  C   LIG    1       24.838 -21.317   7.022  0.00  0.00    +0.002 C 
ATOM     28  C   LIG    1       25.868 -21.423   5.896  0.00  0.00    +0.002 C 
ATOM     29  C   LIG    1       25.423 -21.032   4.487  0.00  0.00    +0.019 C 
ATOM     30  C   LIG    1       23.928 -21.169   4.222  0.00  0.00    +0.106 C 
ENDBRANCH  23  24
ENDBRANCH   7  22
TORSDOF 8
ENDMDL
MODEL 6
REMARK VINA RESULT:       9.7      2.671      6.806
REMARK  Name = *****
REMARK                            x       y       z     vdW  Elec       q    Type
REMARK                         _______ _______ _______ _____ _____    ______ ____
ROOT
ATOM      1  C   LIG    1       26.694 -18.254   4.868  0.00  0.00    +0.201 C 
ATOM      2  C   LIG    1       25.570 -17.851   3.883  0.00  0.00    +0.042 C 
ATOM      3  C   LIG    1       24.296 -17.481   4.660  0.00  0.00    +0.025 C 
ATOM      4  C   LIG    1       25.894 -16.703   2.918  0.00  0.00    +0.025 C 
ATOM      5  S   LIG    1       25.178 -19.346   2.856  0.00  0.00    -0.127 S 
ATOM      6  C   LIG    1       26.143 -20.503   3.890  0.00  0.00    +0.169 C 
ATOM      7  C   LIG    1       25.425 -21.407   4.921  0.00  0.00    +0.223 C 
ATOM      8  C   LIG    1       25.837 -20.300   5.937  0.00  0.00    +0.244 C 
ATOM      9  O   LIG    1       25.533 -19.954   7.062  0.00  0.00    -0.273 OA
ATOM     10  N   LIG    1       26.633 -19.699   5.018  0.00  0.00    -0.270 N 
ENDROOT
BRANCH   1  11
ATOM     11  C   LIG    1       28.113 -17.875   4.444  0.00  0.00    +0.332 C 
ATOM     12  O   LIG    1       29.099 -18.562   4.679  0.00  0.00    -0.249 OA
BRANCH  11  13
ATOM     13  O   LIG    1       28.140 -16.664   3.828  0.00  0.00    -0.426 OA
BRANCH  13  14
ATOM     14  C   LIG    1       27.844 -15.528   4.636  0.00  0.00    +0.472 C 
BRANCH  14  15
ATOM     15  O   LIG    1       27.177 -14.469   3.956  0.00  0.00    -0.427 OA
BRANCH  15  16
ATOM     16  C   LIG    1       26.461 -13.627   4.744  0.00  0.00    +0.315 C 
ATOM     17  O   LIG    1       26.835 -13.201   5.829  0.00  0.00    -0.250 OA
BRANCH  16  19
ATOM     18  C   LIG    1       24.163 -14.394   4.233  0.00  0.00    +0.022 C 
ATOM     19  C   LIG    1       25.149 -13.233   4.066  0.00  0.00    +0.059 C 
ATOM     20  C   LIG    1       24.572 -11.950   4.688  0.00  0.00    +0.022 C 
ATOM     21  C   LIG    1       25.422 -12.979   2.576  0.00  0.00    +0.022 C 
ENDBRANCH  16  19
ENDBRANCH  15  16
ENDBRANCH  14  15
ENDBRANCH  13  14
ENDBRANCH  11  13
ENDBRANCH   1  11
BRANCH   7  22
ATOM     22  N   LIG    1       23.973 -21.572   4.730  0.00  0.00    -0.261 NA
ATOM     23  C   LIG    1       23.316 -20.577   5.223  0.00  0.00    +0.179 C 
BRANCH  23  24
ATOM     24  N   LIG    1       21.958 -20.376   5.232  0.00  0.00    -0.321 N 
ATOM     25  C   LIG    1       21.030 -21.407   4.788  0.00  0.00    +0.106 C 
ATOM     26  C   LIG    1       20.544 -21.156   3.358  0.00  0.00    +0.019 C 
ATOM     27  C   LIG    1       19.630 -19.935   3.232  0.00  0.00    +0.002 C 
ATOM     28  C   LIG    1       20.349 -18.593   3.081  0.00  0.00    +0.002 C 
ATOM     29  C   LIG    1       21.503 -18.293   4.038  0.00  0.00    +0.019 C 
ATOM     30  C   LIG    1       21.435 -19.021   5.377  0.00  0.00    +0.106 C 
ENDBRANCH  23  24
ENDBRANCH   7  22
TORSDOF 8
ENDMDL
