MODEL 1
REMARK VINA RESULT:      -8.3      0.000      0.000
REMARK  Name = *****
REMARK                            x       y       z     vdW  Elec       q    Type
REMARK                         _______ _______ _______ _____ _____    ______ ____
ROOT
ATOM      1  C   LIG    1       29.558 -18.936   6.934  0.00  0.00    +0.081 C 
ENDROOT
BRANCH   1   2
ATOM      2  C   LIG    1       30.939 -18.880   7.565  0.00  0.00    +0.163 C 
ATOM      3  O   LIG    1       31.874 -19.523   7.117  0.00  0.00    -0.292 OA
BRANCH   2   4
ATOM      4  C   LIG    1       31.133 -18.047   8.809  0.00  0.00    +0.018 A 
ATOM      5  C   LIG    1       32.268 -17.239   9.023  0.00  0.00    +0.014 A 
ATOM      6  C   LIG    1       32.394 -16.492  10.194  0.00  0.00    +0.039 A 
ATOM      7  C   LIG    1       31.397 -16.547  11.158  0.00  0.00    +0.123 A 
ATOM      8  F   LIG    1       31.525 -15.829  12.280  0.00  0.00    -0.205 F 
ATOM      9  C   LIG    1       30.270 -17.340  10.972  0.00  0.00    +0.039 A 
ATOM     10  C   LIG    1       30.140 -18.086   9.799  0.00  0.00    +0.014 A 
ENDBRANCH   2   4
ENDBRANCH   1   2
BRANCH   1  11
ATOM     11  C   LIG    1       29.233 -20.341   6.429  0.00  0.00    +0.023 C 
BRANCH  11  12
ATOM     12  C   LIG    1       28.161 -21.043   7.277  0.00  0.00    +0.085 C 
BRANCH  12  17
ATOM     13  C   LIG    1       23.340 -21.821   7.339  0.00  0.00    +0.007 C 
ATOM     14  C   LIG    1       24.754 -22.410   7.340  0.00  0.00    -0.012 C 
ATOM     15  C   LIG    1       25.520 -21.995   6.076  0.00  0.00    +0.018 C 
ATOM     16  C   LIG    1       26.036 -20.555   6.162  0.00  0.00    +0.085 C 
ATOM     17  N   LIG    1       26.881 -20.311   7.346  0.00  0.00    -0.302 NA
ATOM     18  C   LIG    1       26.097 -20.599   8.555  0.00  0.00    +0.085 C 
ATOM     19  C   LIG    1       25.527 -22.018   8.609  0.00  0.00    +0.018 C 
ENDBRANCH  12  17
ENDBRANCH  11  12
ENDBRANCH   1  11
TORSDOF 5
ENDMDL
MODEL 2
REMARK VINA RESULT:      -8.3      0.061      1.110
REMARK  Name = *****
REMARK                            x       y       z     vdW  Elec       q    Type
REMARK                         _______ _______ _______ _____ _____    ______ ____
ROOT
ATOM      1  C   LIG    1       29.547 -18.957   6.899  0.00  0.00    +0.081 C 
ENDROOT
BRANCH   1   2
ATOM      2  C   LIG    1       30.915 -18.896   7.559  0.00  0.00    +0.163 C 
ATOM      3  O   LIG    1       31.866 -19.518   7.115  0.00  0.00    -0.292 OA
BRANCH   2   4
ATOM      4  C   LIG    1       31.073 -18.088   8.824  0.00  0.00    +0.018 A 
ATOM      5  C   LIG    1       30.095 -18.050   9.838  0.00  0.00    +0.014 A 
ATOM      6  C   LIG    1       30.296 -17.283  10.986  0.00  0.00    +0.039 A 
ATOM      7  C   LIG    1       31.465 -16.547  11.128  0.00  0.00    +0.123 A 
ATOM      8  F   LIG    1       31.649 -15.813  12.231  0.00  0.00    -0.205 F 
ATOM      9  C   LIG    1       32.442 -16.565  10.140  0.00  0.00    +0.039 A 
ATOM     10  C   LIG    1       32.245 -17.336   8.991  0.00  0.00    +0.014 A 
ENDBRANCH   2   4
ENDBRANCH   1   2
BRANCH   1  11
ATOM     11  C   LIG    1       29.220 -20.370   6.421  0.00  0.00    +0.023 C 
BRANCH  11  12
ATOM     12  C   LIG    1       28.152 -21.058   7.286  0.00  0.00    +0.085 C 
BRANCH  12  17
ATOM     13  C   LIG    1       23.323 -21.780   7.336  0.00  0.00    +0.007 C 
ATOM     14  C   LIG    1       24.730 -22.385   7.327  0.00  0.00    -0.012 C 
ATOM     15  C   LIG    1       25.501 -21.958   6.070  0.00  0.00    +0.018 C 
ATOM     16  C   LIG    1       26.033 -20.526   6.181  0.00  0.00    +0.085 C 
ATOM     17  N   LIG    1       26.881 -20.312   7.369  0.00  0.00    -0.302 NA
ATOM     18  C   LIG    1       26.094 -20.612   8.573  0.00  0.00    +0.085 C 
ATOM     19  C   LIG    1       25.507 -22.025   8.602  0.00  0.00    +0.018 C 
ENDBRANCH  12  17
ENDBRANCH  11  12
ENDBRANCH   1  11
TORSDOF 5
ENDMDL
MODEL 3
REMARK VINA RESULT:      -8.2      3.965      7.947
REMARK  Name = *****
REMARK                            x       y       z     vdW  Elec       q    Type
REMARK                         _______ _______ _______ _____ _____    ______ ____
ROOT
ATOM      1  C   LIG    1       26.351 -20.283   7.331  0.00  0.00    +0.081 C 
ENDROOT
BRANCH   1   2
ATOM      2  C   LIG    1       25.778 -21.382   8.209  0.00  0.00    +0.163 C 
ATOM      3  O   LIG    1       25.837 -21.324   9.426  0.00  0.00    -0.292 OA
BRANCH   2   4
ATOM      4  C   LIG    1       25.174 -22.597   7.547  0.00  0.00    +0.018 A 
ATOM      5  C   LIG    1       23.805 -22.696   7.226  0.00  0.00    +0.014 A 
ATOM      6  C   LIG    1       23.302 -23.844   6.616  0.00  0.00    +0.039 A 
ATOM      7  C   LIG    1       24.155 -24.901   6.327  0.00  0.00    +0.123 A 
ATOM      8  F   LIG    1       23.665 -26.001   5.743  0.00  0.00    -0.205 F 
ATOM      9  C   LIG    1       25.508 -24.830   6.637  0.00  0.00    +0.039 A 
ATOM     10  C   LIG    1       26.015 -23.679   7.245  0.00  0.00    +0.014 A 
ENDBRANCH   2   4
ENDBRANCH   1   2
BRANCH   1  11
ATOM     11  C   LIG    1       27.639 -20.732   6.644  0.00  0.00    +0.023 C 
BRANCH  11  12
ATOM     12  C   LIG    1       28.831 -20.812   7.610  0.00  0.00    +0.085 C 
BRANCH  12  17
ATOM     13  C   LIG    1       32.037 -17.383   8.958  0.00  0.00    +0.007 C 
ATOM     14  C   LIG    1       30.826 -18.248   9.321  0.00  0.00    -0.012 C 
ATOM     15  C   LIG    1       29.652 -17.971   8.371  0.00  0.00    +0.018 C 
ATOM     16  C   LIG    1       29.836 -18.659   7.014  0.00  0.00    +0.085 C 
ATOM     17  N   LIG    1       30.039 -20.116   7.125  0.00  0.00    -0.302 NA
ATOM     18  C   LIG    1       31.236 -20.366   7.941  0.00  0.00    +0.085 C 
ATOM     19  C   LIG    1       31.184 -19.742   9.337  0.00  0.00    +0.018 C 
ENDBRANCH  12  17
ENDBRANCH  11  12
ENDBRANCH   1  11
TORSDOF 5
ENDMDL
MODEL 4
REMARK VINA RESULT:      -8.1      1.036      1.557
REMARK  Name = *****
REMARK                            x       y       z     vdW  Elec       q    Type
REMARK                         _______ _______ _______ _____ _____    ______ ____
ROOT
ATOM      1  C   LIG    1       29.048 -19.671   7.891  0.00  0.00    +0.081 C 
ENDROOT
BRANCH   1   2
ATOM      2  C   LIG    1       30.161 -18.687   7.575  0.00  0.00    +0.163 C 
ATOM      3  O   LIG    1       30.600 -18.559   6.444  0.00  0.00    -0.292 OA
BRANCH   2   4
ATOM      4  C   LIG    1       30.770 -17.895   8.707  0.00  0.00    +0.018 A 
ATOM      5  C   LIG    1       32.066 -17.344   8.650  0.00  0.00    +0.014 A 
ATOM      6  C   LIG    1       32.576 -16.622   9.728  0.00  0.00    +0.039 A 
ATOM      7  C   LIG    1       31.805 -16.448  10.869  0.00  0.00    +0.123 A 
ATOM      8  F   LIG    1       32.302 -15.756  11.900  0.00  0.00    -0.205 F 
ATOM      9  C   LIG    1       30.525 -16.985  10.951  0.00  0.00    +0.039 A 
ATOM     10  C   LIG    1       30.010 -17.705   9.871  0.00  0.00    +0.014 A 
ENDBRANCH   2   4
ENDBRANCH   1   2
BRANCH   1  11
ATOM     11  C   LIG    1       28.211 -19.983   6.651  0.00  0.00    +0.023 C 
BRANCH  11  12
ATOM     12  C   LIG    1       26.735 -20.251   6.982  0.00  0.00    +0.085 C 
BRANCH  12  17
ATOM     13  C   LIG    1       22.790 -23.116   6.691  0.00  0.00    +0.007 C 
ATOM     14  C   LIG    1       23.564 -22.039   7.459  0.00  0.00    -0.012 C 
ATOM     15  C   LIG    1       24.947 -22.557   7.881  0.00  0.00    +0.018 C 
ATOM     16  C   LIG    1       25.942 -22.553   6.717  0.00  0.00    +0.085 C 
ATOM     17  N   LIG    1       26.090 -21.229   6.084  0.00  0.00    -0.302 NA
ATOM     18  C   LIG    1       24.780 -20.797   5.578  0.00  0.00    +0.085 C 
ATOM     19  C   LIG    1       23.684 -20.742   6.645  0.00  0.00    +0.018 C 
ENDBRANCH  12  17
ENDBRANCH  11  12
ENDBRANCH   1  11
TORSDOF 5
ENDMDL
MODEL 5
REMARK VINA RESULT:      -8.1      3.567      7.841
REMARK  Name = *****
REMARK                            x       y       z     vdW  Elec       q    Type
REMARK                         _______ _______ _______ _____ _____    ______ ____
ROOT
ATOM      1  C   LIG    1       27.733 -20.379   6.659  0.00  0.00    +0.081 C 
ENDROOT
BRANCH   1   2
ATOM      2  C   LIG    1       27.122 -21.308   7.694  0.00  0.00    +0.163 C 
ATOM      3  O   LIG    1       27.718 -21.609   8.715  0.00  0.00    -0.292 OA
BRANCH   2   4
ATOM      4  C   LIG    1       25.766 -21.911   7.415  0.00  0.00    +0.018 A 
ATOM      5  C   LIG    1       24.564 -21.183   7.527  0.00  0.00    +0.014 A 
ATOM      6  C   LIG    1       23.340 -21.793   7.258  0.00  0.00    +0.039 A 
ATOM      7  C   LIG    1       23.302 -23.129   6.883  0.00  0.00    +0.123 A 
ATOM      8  F   LIG    1       22.123 -23.708   6.628  0.00  0.00    -0.205 F 
ATOM      9  C   LIG    1       24.473 -23.869   6.770  0.00  0.00    +0.039 A 
ATOM     10  C   LIG    1       25.702 -23.259   7.035  0.00  0.00    +0.014 A 
ENDBRANCH   2   4
ENDBRANCH   1   2
BRANCH   1  11
ATOM     11  C   LIG    1       29.223 -20.162   6.915  0.00  0.00    +0.023 C 
BRANCH  11  12
ATOM     12  C   LIG    1       29.511 -18.865   7.687  0.00  0.00    +0.085 C 
BRANCH  12  17
ATOM     13  C   LIG    1       32.703 -16.826  10.769  0.00  0.00    +0.007 C 
ATOM     14  C   LIG    1       31.917 -16.732   9.458  0.00  0.00    -0.012 C 
ATOM     15  C   LIG    1       32.282 -17.890   8.518  0.00  0.00    +0.018 C 
ATOM     16  C   LIG    1       31.597 -19.198   8.925  0.00  0.00    +0.085 C 
ATOM     17  N   LIG    1       30.129 -19.083   9.010  0.00  0.00    -0.302 NA
ATOM     18  C   LIG    1       29.791 -18.052  10.001  0.00  0.00    +0.085 C 
ATOM     19  C   LIG    1       30.403 -16.680   9.710  0.00  0.00    +0.018 C 
ENDBRANCH  12  17
ENDBRANCH  11  12
ENDBRANCH   1  11
TORSDOF 5
ENDMDL
MODEL 6
REMARK VINA RESULT:      -8.0      3.476      5.042
REMARK  Name = *****
REMARK                            x       y       z     vdW  Elec       q    Type
REMARK                         _______ _______ _______ _____ _____    ______ ____
ROOT
ATOM      1  C   LIG    1       26.166 -22.931   7.628  0.00  0.00    +0.081 C 
ENDROOT
BRANCH   1   2
ATOM      2  C   LIG    1       26.608 -21.624   8.265  0.00  0.00    +0.163 C 
ATOM      3  O   LIG    1       25.957 -21.092   9.149  0.00  0.00    -0.292 OA
BRANCH   2   4
ATOM      4  C   LIG    1       27.855 -20.951   7.746  0.00  0.00    +0.018 A 
ATOM      5  C   LIG    1       27.840 -20.008   6.698  0.00  0.00    +0.014 A 
ATOM      6  C   LIG    1       29.025 -19.420   6.258  0.00  0.00    +0.039 A 
ATOM      7  C   LIG    1       30.230 -19.767   6.853  0.00  0.00    +0.123 A 
ATOM      8  F   LIG    1       31.363 -19.199   6.425  0.00  0.00    -0.205 F 
ATOM      9  C   LIG    1       30.272 -20.697   7.885  0.00  0.00    +0.039 A 
ATOM     10  C   LIG    1       29.086 -21.285   8.330  0.00  0.00    +0.014 A 
ENDBRANCH   2   4
ENDBRANCH   1   2
BRANCH   1  11
ATOM     11  C   LIG    1       24.866 -22.757   6.844  0.00  0.00    +0.023 C 
BRANCH  11  12
ATOM     12  C   LIG    1       25.033 -21.861   5.607  0.00  0.00    +0.085 C 
BRANCH  12  17
ATOM     13  C   LIG    1       21.722 -18.677   3.948  0.00  0.00    +0.007 C 
ATOM     14  C   LIG    1       23.010 -18.922   4.741  0.00  0.00    -0.012 C 
ATOM     15  C   LIG    1       22.749 -19.860   5.929  0.00  0.00    +0.018 C 
ATOM     16  C   LIG    1       22.646 -21.325   5.493  0.00  0.00    +0.085 C 
ATOM     17  N   LIG    1       23.832 -21.795   4.752  0.00  0.00    -0.302 NA
ATOM     18  C   LIG    1       24.001 -20.963   3.553  0.00  0.00    +0.085 C 
ATOM     19  C   LIG    1       24.131 -19.466   3.843  0.00  0.00    +0.018 C 
ENDBRANCH  12  17
ENDBRANCH  11  12
ENDBRANCH   1  11
TORSDOF 5
ENDMDL
MODEL 7
REMARK VINA RESULT:      -8.0      3.057      7.178
REMARK  Name = *****
REMARK                            x       y       z     vdW  Elec       q    Type
REMARK                         _______ _______ _______ _____ _____    ______ ____
ROOT
ATOM      1  C   LIG    1       29.780 -20.135   7.269  0.00  0.00    +0.081 C 
ENDROOT
BRANCH   1   2
ATOM      2  C   LIG    1       28.611 -19.770   6.369  0.00  0.00    +0.163 C 
ATOM      3  O   LIG    1       28.763 -19.089   5.368  0.00  0.00    -0.292 OA
BRANCH   2   4
ATOM      4  C   LIG    1       27.225 -20.220   6.764  0.00  0.00    +0.018 A 
ATOM      5  C   LIG    1       26.851 -20.475   8.098  0.00  0.00    +0.014 A 
ATOM      6  C   LIG    1       25.556 -20.891   8.403  0.00  0.00    +0.039 A 
ATOM      7  C   LIG    1       24.628 -21.061   7.384  0.00  0.00    +0.123 A 
ATOM      8  F   LIG    1       23.387 -21.462   7.684  0.00  0.00    -0.205 F 
ATOM      9  C   LIG    1       24.974 -20.820   6.060  0.00  0.00    +0.039 A 
ATOM     10  C   LIG    1       26.270 -20.399   5.752  0.00  0.00    +0.014 A 
ENDBRANCH   2   4
ENDBRANCH   1   2
BRANCH   1  11
ATOM     11  C   LIG    1       30.980 -19.222   7.023  0.00  0.00    +0.023 C 
BRANCH  11  12
ATOM     12  C   LIG    1       31.633 -18.736   8.326  0.00  0.00    +0.085 C 
BRANCH  12  17
ATOM     13  C   LIG    1       31.437 -15.833  12.248  0.00  0.00    +0.007 C 
ATOM     14  C   LIG    1       31.866 -17.171  11.639  0.00  0.00    -0.012 C 
ATOM     15  C   LIG    1       30.650 -17.944  11.106  0.00  0.00    +0.018 C 
ATOM     16  C   LIG    1       30.167 -17.397   9.759  0.00  0.00    +0.085 C 
ATOM     17  N   LIG    1       31.223 -17.377   8.728  0.00  0.00    -0.302 NA
ATOM     18  C   LIG    1       32.331 -16.537   9.202  0.00  0.00    +0.085 C 
ATOM     19  C   LIG    1       32.923 -16.979  10.542  0.00  0.00    +0.018 C 
ENDBRANCH  12  17
ENDBRANCH  11  12
ENDBRANCH   1  11
TORSDOF 5
ENDMDL
MODEL 8
REMARK VINA RESULT:      -7.9      4.477      7.740
REMARK  Name = *****
REMARK                            x       y       z     vdW  Elec       q    Type
REMARK                         _______ _______ _______ _____ _____    ______ ____
ROOT
ATOM      1  C   LIG    1       24.785 -24.053   6.638  0.00  0.00    +0.081 C 
ENDROOT
BRANCH   1   2
ATOM      2  C   LIG    1       23.476 -23.312   6.423  0.00  0.00    +0.163 C 
ATOM      3  O   LIG    1       22.408 -23.784   6.777  0.00  0.00    -0.292 OA
BRANCH   2   4
ATOM      4  C   LIG    1       23.504 -21.985   5.703  0.00  0.00    +0.018 A 
ATOM      5  C   LIG    1       22.712 -20.886   6.088  0.00  0.00    +0.014 A 
ATOM      6  C   LIG    1       22.779 -19.684   5.384  0.00  0.00    +0.039 A 
ATOM      7  C   LIG    1       23.629 -19.571   4.292  0.00  0.00    +0.123 A 
ATOM      8  F   LIG    1       23.687 -18.415   3.620  0.00  0.00    -0.205 F 
ATOM      9  C   LIG    1       24.418 -20.642   3.890  0.00  0.00    +0.039 A 
ATOM     10  C   LIG    1       24.355 -21.846   4.597  0.00  0.00    +0.014 A 
ENDBRANCH   2   4
ENDBRANCH   1   2
BRANCH   1  11
ATOM     11  C   LIG    1       25.627 -23.393   7.728  0.00  0.00    +0.023 C 
BRANCH  11  12
ATOM     12  C   LIG    1       26.852 -22.654   7.168  0.00  0.00    +0.085 C 
BRANCH  12  17
ATOM     13  C   LIG    1       29.521 -18.603   6.609  0.00  0.00    +0.007 C 
ATOM     14  C   LIG    1       29.083 -19.962   6.052  0.00  0.00    -0.012 C 
ATOM     15  C   LIG    1       29.472 -21.096   7.012  0.00  0.00    +0.018 C 
ATOM     16  C   LIG    1       28.518 -21.191   8.206  0.00  0.00    +0.085 C 
ATOM     17  N   LIG    1       27.106 -21.350   7.810  0.00  0.00    -0.302 NA
ATOM     18  C   LIG    1       26.712 -20.197   6.989  0.00  0.00    +0.085 C 
ATOM     19  C   LIG    1       27.578 -19.988   5.746  0.00  0.00    +0.018 C 
ENDBRANCH  12  17
ENDBRANCH  11  12
ENDBRANCH   1  11
TORSDOF 5
ENDMDL
MODEL 9
REMARK VINA RESULT:      -7.9      3.420      7.521
REMARK  Name = *****
REMARK                            x       y       z     vdW  Elec       q    Type
REMARK                         _______ _______ _______ _____ _____    ______ ____
ROOT
ATOM      1  C   LIG    1       28.571 -19.780   6.462  0.00  0.00    +0.081 C 
ENDROOT
BRANCH   1   2
ATOM      2  C   LIG    1       27.555 -20.485   7.344  0.00  0.00    +0.163 C 
ATOM      3  O   LIG    1       27.881 -21.023   8.390  0.00  0.00    -0.292 OA
BRANCH   2   4
ATOM      4  C   LIG    1       26.122 -20.565   6.878  0.00  0.00    +0.018 A 
ATOM      5  C   LIG    1       25.043 -20.813   7.749  0.00  0.00    +0.014 A 
ATOM      6  C   LIG    1       23.739 -20.877   7.261  0.00  0.00    +0.039 A 
ATOM      7  C   LIG    1       23.501 -20.701   5.905  0.00  0.00    +0.123 A 
ATOM      8  F   LIG    1       22.246 -20.765   5.442  0.00  0.00    -0.205 F 
ATOM      9  C   LIG    1       24.548 -20.459   5.024  0.00  0.00    +0.039 A 
ATOM     10  C   LIG    1       25.856 -20.390   5.511  0.00  0.00    +0.014 A 
ENDBRANCH   2   4
ENDBRANCH   1   2
BRANCH   1  11
ATOM     11  C   LIG    1       29.981 -19.882   7.041  0.00  0.00    +0.023 C 
BRANCH  11  12
ATOM     12  C   LIG    1       30.489 -18.547   7.607  0.00  0.00    +0.085 C 
BRANCH  12  17
ATOM     13  C   LIG    1       31.925 -16.542  11.822  0.00  0.00    +0.007 C 
ATOM     14  C   LIG    1       30.907 -16.580  10.678  0.00  0.00    -0.012 C 
ATOM     15  C   LIG    1       31.585 -16.280   9.333  0.00  0.00    +0.018 C 
ATOM     16  C   LIG    1       32.352 -17.491   8.794  0.00  0.00    +0.085 C 
ATOM     17  N   LIG    1       31.514 -18.697   8.659  0.00  0.00    -0.302 NA
ATOM     18  C   LIG    1       30.965 -19.042   9.978  0.00  0.00    +0.085 C 
ATOM     19  C   LIG    1       30.158 -17.920  10.633  0.00  0.00    +0.018 C 
ENDBRANCH  12  17
ENDBRANCH  11  12
ENDBRANCH   1  11
TORSDOF 5
ENDMDL
