MODEL 1
REMARK VINA RESULT:      40.0      0.000      0.000
REMARK  Name = *****
REMARK                            x       y       z     vdW  Elec       q    Type
REMARK                         _______ _______ _______ _____ _____    ______ ____
ROOT
ATOM      1  C   UNK A  3       23.632 -19.276   3.789  0.00  0.00    +0.194 C 
ATOM      2  C   UNK A  3       24.971 -19.126   3.026  0.00  0.00    +0.237 C 
ATOM      3  O   UNK A  3       25.304 -19.834   2.081  0.00  0.00    -0.274 OA
ATOM      4  N   UNK A  3       25.846 -18.209   3.580  0.00  0.00    -0.311 N 
ATOM      5  H   UNK A  3       25.416 -17.439   4.089  0.00  0.00    +0.149 HD
ATOM      6  C   UNK A  3       27.137 -17.942   2.947  0.00  0.00    +0.136 C 
ATOM      7  C   UNK A  3       28.045 -17.011   3.776  0.00  0.00    +0.176 C 
ATOM      8  C   UNK A  1       27.402 -15.612   3.782  0.00  0.00    +0.235 C 
ATOM      9  O   UNK A  1       26.181 -15.453   3.843  0.00  0.00    -0.274 OA
ATOM     10  N   SER A  2       28.289 -14.559   3.802  0.00  0.00    -0.300 N 
ATOM     11  H   SER A  2       29.224 -14.748   4.160  0.00  0.00    +0.150 HD
ATOM     12  CA  SER A  2       27.824 -13.160   3.838  0.00  0.00    +0.184 C 
ATOM     13  C   SER A  2       27.075 -12.988   5.179  0.00  0.00    +0.236 C 
ATOM     14  O   SER A  2       27.575 -13.394   6.231  0.00  0.00    -0.274 OA
ATOM     15  N   UNK A  3       25.790 -12.493   5.137  0.00  0.00    -0.300 N 
ATOM     16  H   UNK A  3       25.386 -12.183   4.263  0.00  0.00    +0.150 HD
ATOM     17  C   UNK A  3       24.808 -12.995   6.104  0.00  0.00    +0.185 C 
ATOM     18  C   UNK A  3       23.757 -13.760   5.277  0.00  0.00    +0.240 C 
ATOM     19  O   UNK A  3       23.271 -13.267   4.259  0.00  0.00    -0.273 OA
ATOM     20  N   UNK A  3       23.436 -15.008   5.781  0.00  0.00    -0.279 N 
ATOM     21  H   UNK A  3       24.197 -15.476   6.273  0.00  0.00    +0.155 HD
ATOM     22  C   UNK A  3       22.523 -15.888   5.216  0.00  0.00    +0.110 C 
ATOM     23  C   UNK A  3       21.255 -15.610   4.860  0.00  0.00    +0.104 C 
ATOM     24  C   UNK A  3       22.978 -17.322   5.198  0.00  0.00    +0.260 C 
ATOM     25  O   UNK A  3       23.448 -17.816   6.218  0.00  0.00    -0.269 OA
ATOM     26  N   UNK A  3       23.033 -17.925   3.964  0.00  0.00    -0.296 N 
ATOM     27  H   UNK A  3       22.849 -17.369   3.136  0.00  0.00    +0.150 HD
ENDROOT
BRANCH   1  33
ATOM     28  N   UNK A  3       19.639 -18.317   3.455  0.00  0.00    -0.134 NA
ATOM     29  H   UNK A  3       18.941 -18.301   4.200  0.00  0.00    +0.306 HD
ATOM     30  C   UNK A  3       20.418 -19.324   3.628  0.00  0.00    +0.362 C 
ATOM     31  N   UNK A  3       21.412 -19.557   2.744  0.00  0.00    -0.234 N 
ATOM     32  H   UNK A  3       21.515 -18.782   2.099  0.00  0.00    +0.245 HD
ATOM     33  C   UNK A  3       22.642 -20.261   3.101  0.00  0.00    +0.168 C 
ATOM     34  C   UNK A  3       22.224 -21.497   3.911  0.00  0.00    +0.075 C 
ATOM     35  C   UNK A  3       21.313 -21.126   5.067  0.00  0.00    +0.188 C 
ATOM     36  N   UNK A  3       20.296 -20.187   4.657  0.00  0.00    -0.238 N 
ATOM     37  H   UNK A  3       19.635 -19.936   5.381  0.00  0.00    +0.244 HD
ENDBRANCH   1  33
BRANCH  23  38
ATOM     38  N   UNK A  3       20.632 -14.401   5.093  0.00  0.00    -0.274 N 
ATOM     39  H   UNK A  3       20.846 -13.632   4.473  0.00  0.00    +0.156 HD
ATOM     40  C   UNK A  3       19.796 -14.139   6.138  0.00  0.00    +0.301 C 
ATOM     41  O   UNK A  3       19.423 -14.961   6.986  0.00  0.00    -0.253 OA
ATOM     42  N   UNK A  3       19.409 -12.839   6.217  0.00  0.00    -0.313 N 
ATOM     43  H   UNK A  3       18.727 -12.635   6.940  0.00  0.00    +0.146 HD
ATOM     44  H   UNK A  3       19.383 -12.248   5.402  0.00  0.00    +0.146 HD
ENDBRANCH  23  38
BRANCH   7  45
ATOM     45  N   UNK A  3       28.231 -17.528   5.137  0.00  0.00    -0.303 N 
ATOM     46  H   UNK A  1       28.096 -16.878   5.903  0.00  0.00    +0.149 HD
ATOM     47  C   UNK A  0       28.777 -18.762   5.380  0.00  0.00    +0.215 C 
ATOM     48  O   UNK A  0       29.251 -19.445   4.473  0.00  0.00    -0.276 OA
BRANCH  47  49
ATOM     49  C   UNK A  0       28.784 -19.247   6.824  0.00  0.00    +0.116 C 
BRANCH  49  50
ATOM     50  C   UNK A  0       28.419 -20.723   7.060  0.00  0.00    +0.088 C 
BRANCH  50  51
ATOM     51  N   UNK A  0       29.473 -21.570   6.462  0.00  0.00    -0.325 NA
ATOM     52  H   UNK A  0       30.263 -21.610   7.107  0.00  0.00    +0.119 HD
ATOM     53  H   UNK A  0       29.137 -22.525   6.354  0.00  0.00    +0.119 HD
ENDBRANCH  50  51
BRANCH  50  54
ATOM     54  C   UNK A  0       27.014 -21.132   6.526  0.00  0.00    +0.133 C 
BRANCH  54  55
ATOM     55  O   UNK A  0       27.059 -21.160   5.092  0.00  0.00    -0.390 OA
ATOM     56  H   UNK A  0       26.381 -21.771   4.757  0.00  0.00    +0.210 HD
ENDBRANCH  54  55
BRANCH  54  57
ATOM     57  C   UNK A  0       25.873 -20.227   7.022  0.00  0.00    +0.048 C 
BRANCH  57  58
ATOM     58  C   UNK A  0       24.565 -20.396   6.248  0.00  0.00    +0.080 C 
BRANCH  58  59
ATOM     59  N   UNK A  0       23.392 -20.102   7.059  0.00  0.00    -0.330 NA
ATOM     60  H   UNK A  0       23.468 -20.580   7.958  0.00  0.00    +0.118 HD
ATOM     61  H   UNK A  0       23.343 -19.104   7.266  0.00  0.00    +0.118 HD
ENDBRANCH  58  59
ENDBRANCH  57  58
ENDBRANCH  54  57
ENDBRANCH  50  54
ENDBRANCH  49  50
ENDBRANCH  47  49
ENDBRANCH   7  45
BRANCH  12  62
ATOM     62  CB  SER A  2       27.050 -12.761   2.572  0.00  0.00    +0.187 C 
BRANCH  62  63
ATOM     63  OG  SER A  2       25.795 -13.444   2.512  0.00  0.00    -0.393 OA
ATOM     64  H   SER A  2       25.676 -13.745   1.594  0.00  0.00    +0.209 HD
ENDBRANCH  62  63
ENDBRANCH  12  62
BRANCH  17  65
ATOM     65  C   UNK A  3       24.098 -11.874   6.865  0.00  0.00    +0.187 C 
BRANCH  65  66
ATOM     66  O   UNK A  3       22.837 -11.584   6.273  0.00  0.00    -0.393 OA
ATOM     67  H   UNK A  3       22.977 -10.918   5.579  0.00  0.00    +0.209 HD
ENDBRANCH  65  66
ENDBRANCH  17  65
TORSDOF 15
ENDMDL
