MODEL 1
REMARK VINA RESULT:      -7.7      0.000      0.000
REMARK  Name = *****
REMARK                            x       y       z     vdW  Elec       q    Type
REMARK                         _______ _______ _______ _____ _____    ______ ____
ROOT
ATOM      1  C   LIG    1       24.143 -22.019   5.622  0.00  0.00    +0.064 C 
ATOM      2  C   LIG    1       23.349 -21.597   4.350  0.00  0.00    +0.007 C 
ATOM      3  C   LIG    1       24.176 -20.441   3.794  0.00  0.00    +0.009 C 
ATOM      4  C   LIG    1       24.085 -19.634   5.087  0.00  0.00    -0.002 C 
ATOM      5  C   LIG    1       22.561 -19.538   5.290  0.00  0.00    +0.004 C 
ATOM      6  C   LIG    1       22.057 -20.890   4.788  0.00  0.00    +0.005 C 
ATOM      7  C   LIG    1       24.687 -20.618   6.138  0.00  0.00    +0.039 C 
ENDROOT
BRANCH   7   8
ATOM      8  C   LIG    1       26.184 -20.467   6.394  0.00  0.00    -0.043 A 
ATOM      9  C   LIG    1       26.683 -20.755   7.677  0.00  0.00    +0.004 A 
ATOM     10  C   LIG    1       28.032 -20.554   7.989  0.00  0.00    +0.000 A 
ATOM     11  C   LIG    1       28.906 -20.055   7.031  0.00  0.00    +0.000 A 
ATOM     12  C   LIG    1       28.436 -19.757   5.758  0.00  0.00    +0.000 A 
ATOM     13  C   LIG    1       27.089 -19.968   5.445  0.00  0.00    +0.004 A 
ENDBRANCH   7   8
BRANCH   1  14
ATOM     14  N   LIG    1       25.151 -23.057   5.360  0.00  0.00    -0.313 NA
ATOM     15  H   LIG    1       25.111 -23.357   4.386  0.00  0.00    +0.122 HD
BRANCH  14  17
ATOM     16  C   LIG    1       23.587 -24.489   6.619  0.00  0.00    +0.020 C 
ATOM     17  C   LIG    1       25.037 -24.200   6.268  0.00  0.00    +0.077 C 
ENDBRANCH  14  17
ENDBRANCH   1  14
TORSDOF 3
ENDMDL
MODEL 2
REMARK VINA RESULT:      -7.7      1.557      4.967
REMARK  Name = *****
REMARK                            x       y       z     vdW  Elec       q    Type
REMARK                         _______ _______ _______ _____ _____    ______ ____
ROOT
ATOM      1  C   LIG    1       27.174 -19.765   5.780  0.00  0.00    +0.064 C 
ATOM      2  C   LIG    1       28.706 -20.028   5.880  0.00  0.00    +0.007 C 
ATOM      3  C   LIG    1       28.782 -21.347   6.642  0.00  0.00    +0.009 C 
ATOM      4  C   LIG    1       27.991 -20.810   7.833  0.00  0.00    -0.002 C 
ATOM      5  C   LIG    1       28.824 -19.577   8.232  0.00  0.00    +0.004 C 
ATOM      6  C   LIG    1       29.311 -19.036   6.888  0.00  0.00    +0.005 C 
ATOM      7  C   LIG    1       26.659 -20.344   7.168  0.00  0.00    +0.039 C 
ENDROOT
BRANCH   7   8
ATOM      8  C   LIG    1       25.538 -21.378   7.154  0.00  0.00    -0.043 A 
ATOM      9  C   LIG    1       25.866 -22.729   6.943  0.00  0.00    +0.004 A 
ATOM     10  C   LIG    1       24.871 -23.707   6.838  0.00  0.00    +0.000 A 
ATOM     11  C   LIG    1       23.530 -23.355   6.934  0.00  0.00    +0.000 A 
ATOM     12  C   LIG    1       23.179 -22.026   7.135  0.00  0.00    +0.000 A 
ATOM     13  C   LIG    1       24.176 -21.051   7.249  0.00  0.00    +0.004 A 
ENDBRANCH   7   8
BRANCH   1  14
ATOM     14  N   LIG    1       26.566 -20.333   4.567  0.00  0.00    -0.313 NA
ATOM     15  H   LIG    1       27.275 -20.494   3.853  0.00  0.00    +0.122 HD
BRANCH  14  17
ATOM     16  C   LIG    1       24.294 -20.371   3.608  0.00  0.00    +0.020 C 
ATOM     17  C   LIG    1       25.470 -19.514   4.046  0.00  0.00    +0.077 C 
ENDBRANCH  14  17
ENDBRANCH   1  14
TORSDOF 3
ENDMDL
MODEL 3
REMARK VINA RESULT:      -7.6      1.299      4.421
REMARK  Name = *****
REMARK                            x       y       z     vdW  Elec       q    Type
REMARK                         _______ _______ _______ _____ _____    ______ ____
ROOT
ATOM      1  C   LIG    1       25.588 -22.452   6.895  0.00  0.00    +0.064 C 
ATOM      2  C   LIG    1       26.170 -22.119   8.302  0.00  0.00    +0.007 C 
ATOM      3  C   LIG    1       25.837 -20.641   8.474  0.00  0.00    +0.009 C 
ATOM      4  C   LIG    1       26.570 -20.233   7.198  0.00  0.00    -0.002 C 
ATOM      5  C   LIG    1       27.980 -20.797   7.454  0.00  0.00    +0.004 C 
ATOM      6  C   LIG    1       27.704 -22.097   8.208  0.00  0.00    +0.005 C 
ATOM      7  C   LIG    1       25.855 -21.095   6.112  0.00  0.00    +0.039 C 
ENDROOT
BRANCH   7   8
ATOM      8  C   LIG    1       24.684 -20.419   5.406  0.00  0.00    -0.043 A 
ATOM      9  C   LIG    1       24.907 -19.805   4.161  0.00  0.00    +0.004 A 
ATOM     10  C   LIG    1       23.890 -19.100   3.509  0.00  0.00    +0.000 A 
ATOM     11  C   LIG    1       22.632 -18.986   4.091  0.00  0.00    +0.000 A 
ATOM     12  C   LIG    1       22.388 -19.578   5.324  0.00  0.00    +0.000 A 
ATOM     13  C   LIG    1       23.404 -20.291   5.970  0.00  0.00    +0.004 A 
ENDBRANCH   7   8
BRANCH   1  14
ATOM     14  N   LIG    1       24.196 -22.920   6.939  0.00  0.00    -0.313 NA
ATOM     15  H   LIG    1       23.800 -22.783   7.869  0.00  0.00    +0.122 HD
BRANCH  14  17
ATOM     16  C   LIG    1       25.159 -24.712   5.546  0.00  0.00    +0.020 C 
ATOM     17  C   LIG    1       24.052 -24.311   6.506  0.00  0.00    +0.077 C 
ENDBRANCH  14  17
ENDBRANCH   1  14
TORSDOF 3
ENDMDL
MODEL 4
REMARK VINA RESULT:      -7.6      1.652      5.007
REMARK  Name = *****
REMARK                            x       y       z     vdW  Elec       q    Type
REMARK                         _______ _______ _______ _____ _____    ______ ____
ROOT
ATOM      1  C   LIG    1       24.727 -21.975   6.201  0.00  0.00    +0.064 C 
ATOM      2  C   LIG    1       25.863 -21.002   6.637  0.00  0.00    +0.007 C 
ATOM      3  C   LIG    1       27.021 -21.943   6.957  0.00  0.00    +0.009 C 
ATOM      4  C   LIG    1       26.215 -22.732   7.987  0.00  0.00    -0.002 C 
ATOM      5  C   LIG    1       25.765 -21.618   8.952  0.00  0.00    +0.004 C 
ATOM      6  C   LIG    1       25.518 -20.431   8.022  0.00  0.00    +0.005 C 
ATOM      7  C   LIG    1       24.992 -23.221   7.152  0.00  0.00    +0.039 C 
ENDROOT
BRANCH   7   8
ATOM      8  C   LIG    1       25.141 -24.601   6.518  0.00  0.00    -0.043 A 
ATOM      9  C   LIG    1       23.980 -25.316   6.174  0.00  0.00    +0.004 A 
ATOM     10  C   LIG    1       24.056 -26.618   5.668  0.00  0.00    +0.000 A 
ATOM     11  C   LIG    1       25.291 -27.234   5.504  0.00  0.00    +0.000 A 
ATOM     12  C   LIG    1       26.452 -26.552   5.843  0.00  0.00    +0.000 A 
ATOM     13  C   LIG    1       26.374 -25.246   6.340  0.00  0.00    +0.004 A 
ENDBRANCH   7   8
BRANCH   1  14
ATOM     14  N   LIG    1       24.716 -22.244   4.756  0.00  0.00    -0.313 NA
ATOM     15  H   LIG    1       25.668 -22.305   4.395  0.00  0.00    +0.122 HD
BRANCH  14  17
ATOM     16  C   LIG    1       22.798 -20.696   4.842  0.00  0.00    +0.020 C 
ATOM     17  C   LIG    1       23.930 -21.264   4.003  0.00  0.00    +0.077 C 
ENDBRANCH  14  17
ENDBRANCH   1  14
TORSDOF 3
ENDMDL
MODEL 5
REMARK VINA RESULT:      -7.5      1.590      4.593
REMARK  Name = *****
REMARK                            x       y       z     vdW  Elec       q    Type
REMARK                         _______ _______ _______ _____ _____    ______ ____
ROOT
ATOM      1  C   LIG    1       25.316 -21.502   5.855  0.00  0.00    +0.064 C 
ATOM      2  C   LIG    1       24.330 -20.735   6.786  0.00  0.00    +0.007 C 
ATOM      3  C   LIG    1       23.593 -21.858   7.510  0.00  0.00    +0.009 C 
ATOM      4  C   LIG    1       23.115 -22.505   6.212  0.00  0.00    -0.002 C 
ATOM      5  C   LIG    1       22.377 -21.336   5.532  0.00  0.00    +0.004 C 
ATOM      6  C   LIG    1       23.216 -20.120   5.924  0.00  0.00    +0.005 C 
ATOM      7  C   LIG    1       24.456 -22.779   5.461  0.00  0.00    +0.039 C 
ENDROOT
BRANCH   7   8
ATOM      8  C   LIG    1       25.060 -24.161   5.685  0.00  0.00    -0.043 A 
ATOM      9  C   LIG    1       25.070 -25.076   4.615  0.00  0.00    +0.004 A 
ATOM     10  C   LIG    1       25.535 -26.384   4.787  0.00  0.00    +0.000 A 
ATOM     11  C   LIG    1       25.992 -26.807   6.030  0.00  0.00    +0.000 A 
ATOM     12  C   LIG    1       25.986 -25.926   7.103  0.00  0.00    +0.000 A 
ATOM     13  C   LIG    1       25.529 -24.615   6.927  0.00  0.00    +0.004 A 
ENDBRANCH   7   8
BRANCH   1  14
ATOM     14  N   LIG    1       26.622 -21.759   6.480  0.00  0.00    -0.313 NA
ATOM     15  H   LIG    1       26.532 -22.444   7.230  0.00  0.00    +0.122 HD
BRANCH  14  17
ATOM     16  C   LIG    1       28.132 -19.905   5.877  0.00  0.00    +0.020 C 
ATOM     17  C   LIG    1       27.271 -20.537   6.958  0.00  0.00    +0.077 C 
ENDBRANCH  14  17
ENDBRANCH   1  14
TORSDOF 3
ENDMDL
MODEL 6
REMARK VINA RESULT:      -7.5      1.171      1.353
REMARK  Name = *****
REMARK                            x       y       z     vdW  Elec       q    Type
REMARK                         _______ _______ _______ _____ _____    ______ ____
ROOT
ATOM      1  C   LIG    1       25.072 -22.386   6.808  0.00  0.00    +0.064 C 
ATOM      2  C   LIG    1       24.040 -22.461   5.643  0.00  0.00    +0.007 C 
ATOM      3  C   LIG    1       24.575 -21.444   4.641  0.00  0.00    +0.009 C 
ATOM      4  C   LIG    1       24.547 -20.298   5.650  0.00  0.00    -0.002 C 
ATOM      5  C   LIG    1       23.075 -20.316   6.103  0.00  0.00    +0.004 C 
ATOM      6  C   LIG    1       22.729 -21.804   6.104  0.00  0.00    +0.005 C 
ATOM      7  C   LIG    1       25.451 -20.843   6.799  0.00  0.00    +0.039 C 
ENDROOT
BRANCH   7   8
ATOM      8  C   LIG    1       26.924 -20.455   6.713  0.00  0.00    -0.043 A 
ATOM      9  C   LIG    1       27.748 -20.677   7.831  0.00  0.00    +0.004 A 
ATOM     10  C   LIG    1       29.085 -20.265   7.836  0.00  0.00    +0.000 A 
ATOM     11  C   LIG    1       29.623 -19.617   6.731  0.00  0.00    +0.000 A 
ATOM     12  C   LIG    1       28.828 -19.380   5.617  0.00  0.00    +0.000 A 
ATOM     13  C   LIG    1       27.494 -19.801   5.609  0.00  0.00    +0.004 A 
ENDBRANCH   7   8
BRANCH   1  14
ATOM     14  N   LIG    1       26.185 -23.335   6.659  0.00  0.00    -0.313 NA
ATOM     15  H   LIG    1       26.590 -23.269   5.726  0.00  0.00    +0.122 HD
BRANCH  14  17
ATOM     16  C   LIG    1       25.824 -25.591   5.730  0.00  0.00    +0.020 C 
ATOM     17  C   LIG    1       25.799 -24.713   6.970  0.00  0.00    +0.077 C 
ENDBRANCH  14  17
ENDBRANCH   1  14
TORSDOF 3
ENDMDL
MODEL 7
REMARK VINA RESULT:      -7.3      1.508      4.913
REMARK  Name = *****
REMARK                            x       y       z     vdW  Elec       q    Type
REMARK                         _______ _______ _______ _____ _____    ______ ____
ROOT
ATOM      1  C   LIG    1       25.824 -24.058   7.070  0.00  0.00    +0.064 C 
ATOM      2  C   LIG    1       26.227 -25.317   6.245  0.00  0.00    +0.007 C 
ATOM      3  C   LIG    1       25.435 -25.152   4.952  0.00  0.00    +0.009 C 
ATOM      4  C   LIG    1       24.093 -25.076   5.676  0.00  0.00    -0.002 C 
ATOM      5  C   LIG    1       24.096 -26.390   6.480  0.00  0.00    +0.004 C 
ATOM      6  C   LIG    1       25.563 -26.552   6.876  0.00  0.00    +0.005 C 
ATOM      7  C   LIG    1       24.303 -23.873   6.647  0.00  0.00    +0.039 C 
ENDROOT
BRANCH   7   8
ATOM      8  C   LIG    1       23.857 -22.516   6.113  0.00  0.00    -0.043 A 
ATOM      9  C   LIG    1       24.207 -22.157   4.798  0.00  0.00    +0.004 A 
ATOM     10  C   LIG    1       23.896 -20.893   4.287  0.00  0.00    +0.000 A 
ATOM     11  C   LIG    1       23.237 -19.960   5.078  0.00  0.00    +0.000 A 
ATOM     12  C   LIG    1       22.886 -20.287   6.382  0.00  0.00    +0.000 A 
ATOM     13  C   LIG    1       23.190 -21.555   6.889  0.00  0.00    +0.004 A 
ENDBRANCH   7   8
BRANCH   1  14
ATOM     14  N   LIG    1       26.712 -22.909   6.844  0.00  0.00    -0.313 NA
ATOM     15  H   LIG    1       27.644 -23.222   6.575  0.00  0.00    +0.122 HD
BRANCH  14  17
ATOM     16  C   LIG    1       26.703 -20.549   7.563  0.00  0.00    +0.020 C 
ATOM     17  C   LIG    1       26.773 -22.005   7.995  0.00  0.00    +0.077 C 
ENDBRANCH  14  17
ENDBRANCH   1  14
TORSDOF 3
ENDMDL
MODEL 8
REMARK VINA RESULT:      -7.2      1.255      4.339
REMARK  Name = *****
REMARK                            x       y       z     vdW  Elec       q    Type
REMARK                         _______ _______ _______ _____ _____    ______ ____
ROOT
ATOM      1  C   LIG    1       26.004 -22.321   6.898  0.00  0.00    +0.064 C 
ATOM      2  C   LIG    1       26.755 -21.925   8.204  0.00  0.00    +0.007 C 
ATOM      3  C   LIG    1       26.456 -20.435   8.337  0.00  0.00    +0.009 C 
ATOM      4  C   LIG    1       27.032 -20.104   6.961  0.00  0.00    -0.002 C 
ATOM      5  C   LIG    1       28.459 -20.674   7.074  0.00  0.00    +0.004 C 
ATOM      6  C   LIG    1       28.266 -21.929   7.924  0.00  0.00    +0.005 C 
ATOM      7  C   LIG    1       26.184 -21.011   6.017  0.00  0.00    +0.039 C 
ENDROOT
BRANCH   7   8
ATOM      8  C   LIG    1       24.940 -20.356   5.424  0.00  0.00    -0.043 A 
ATOM      9  C   LIG    1       23.731 -20.428   6.140  0.00  0.00    +0.004 A 
ATOM     10  C   LIG    1       22.544 -19.918   5.606  0.00  0.00    +0.000 A 
ATOM     11  C   LIG    1       22.536 -19.334   4.344  0.00  0.00    +0.000 A 
ATOM     12  C   LIG    1       23.715 -19.258   3.614  0.00  0.00    +0.000 A 
ATOM     13  C   LIG    1       24.904 -19.760   4.154  0.00  0.00    +0.004 A 
ENDBRANCH   7   8
BRANCH   1  14
ATOM     14  N   LIG    1       24.623 -22.767   7.135  0.00  0.00    -0.313 NA
ATOM     15  H   LIG    1       24.405 -22.743   8.130  0.00  0.00    +0.122 HD
BRANCH  14  17
ATOM     16  C   LIG    1       25.589 -24.968   6.581  0.00  0.00    +0.020 C 
ATOM     17  C   LIG    1       24.350 -24.089   6.567  0.00  0.00    +0.077 C 
ENDBRANCH  14  17
ENDBRANCH   1  14
TORSDOF 3
ENDMDL
MODEL 9
REMARK VINA RESULT:      -7.0      1.470      3.312
REMARK  Name = *****
REMARK                            x       y       z     vdW  Elec       q    Type
REMARK                         _______ _______ _______ _____ _____    ______ ____
ROOT
ATOM      1  C   LIG    1       24.220 -21.116   5.368  0.00  0.00    +0.064 C 
ATOM      2  C   LIG    1       23.017 -21.447   6.302  0.00  0.00    +0.007 C 
ATOM      3  C   LIG    1       23.621 -21.332   7.698  0.00  0.00    +0.009 C 
ATOM      4  C   LIG    1       24.709 -22.366   7.412  0.00  0.00    -0.002 C 
ATOM      5  C   LIG    1       23.875 -23.583   6.969  0.00  0.00    +0.004 C 
ATOM      6  C   LIG    1       22.715 -22.951   6.201  0.00  0.00    +0.005 C 
ATOM      7  C   LIG    1       25.433 -21.754   6.172  0.00  0.00    +0.039 C 
ENDROOT
BRANCH   7   8
ATOM      8  C   LIG    1       26.641 -20.877   6.487  0.00  0.00    -0.043 A 
ATOM      9  C   LIG    1       27.283 -20.206   5.430  0.00  0.00    +0.004 A 
ATOM     10  C   LIG    1       28.442 -19.455   5.649  0.00  0.00    +0.000 A 
ATOM     11  C   LIG    1       28.989 -19.366   6.924  0.00  0.00    +0.000 A 
ATOM     12  C   LIG    1       28.378 -20.025   7.983  0.00  0.00    +0.000 A 
ATOM     13  C   LIG    1       27.212 -20.767   7.764  0.00  0.00    +0.004 A 
ENDBRANCH   7   8
BRANCH   1  14
ATOM     14  N   LIG    1       24.328 -19.685   5.046  0.00  0.00    -0.313 NA
ATOM     15  H   LIG    1       24.139 -19.117   5.871  0.00  0.00    +0.122 HD
BRANCH  14  17
ATOM     16  C   LIG    1       22.286 -18.464   4.397  0.00  0.00    +0.020 C 
ATOM     17  C   LIG    1       23.471 -19.291   3.926  0.00  0.00    +0.077 C 
ENDBRANCH  14  17
ENDBRANCH   1  14
TORSDOF 3
ENDMDL
