MODEL 1
REMARK VINA RESULT:       6.6      0.000      0.000
REMARK  Name = *****
REMARK                            x       y       z     vdW  Elec       q    Type
REMARK                         _______ _______ _______ _____ _____    ______ ____
ROOT
ATOM      1  C   LIG    1       26.398 -12.522   6.203  0.00  0.00    +0.011 C 
ATOM      2  C   LIG    1       26.151 -13.659   5.220  0.00  0.00    +0.026 C 
ATOM      3  C   LIG    1       25.767 -13.264   3.775  0.00  0.00    +0.133 C 
ATOM      4  C   LIG    1       25.205 -14.634   3.232  0.00  0.00    +0.009 C 
ATOM      5  C   LIG    1       24.301 -15.097   4.402  0.00  0.00    +0.005 C 
ATOM      6  C   LIG    1       23.883 -16.583   4.432  0.00  0.00    +0.036 C 
ATOM      7  C   LIG    1       24.752 -17.535   3.579  0.00  0.00    +0.153 C 
ATOM      8  C   LIG    1       26.209 -17.052   3.597  0.00  0.00    +0.154 C 
ATOM      9  F   LIG    1       24.340 -17.389   2.269  0.00  0.00    -0.238 F 
ATOM     10  C   LIG    1       24.447 -19.043   3.965  0.00  0.00    +0.047 C 
ATOM     11  C   LIG    1       22.957 -19.160   4.355  0.00  0.00    -0.020 C 
ATOM     12  C   LIG    1       22.509 -19.942   5.353  0.00  0.00    +0.054 C 
ATOM     13  C   LIG    1       23.445 -20.684   6.219  0.00  0.00    +0.179 C 
ATOM     14  C   LIG    1       24.881 -20.359   6.087  0.00  0.00    +0.047 C 
ATOM     15  O   LIG    1       23.047 -21.483   7.061  0.00  0.00    -0.288 OA
ATOM     16  C   LIG    1       22.038 -18.203   3.643  0.00  0.00    +0.194 C 
ATOM     17  F   LIG    1       20.731 -18.413   3.973  0.00  0.00    -0.241 F 
ATOM     18  C   LIG    1       24.675 -19.969   2.744  0.00  0.00    +0.023 C 
ATOM     19  C   LIG    1       25.327 -19.590   5.082  0.00  0.00    -0.009 C 
ATOM     20  C   LIG    1       22.395 -16.760   4.028  0.00  0.00    +0.048 C 
ATOM     21  C   LIG    1       24.404 -14.434   1.927  0.00  0.00    +0.015 C 
ATOM     22  C   LIG    1       26.356 -15.662   2.946  0.00  0.00    +0.044 C 
ATOM     23  C   LIG    1       25.064 -14.647   5.676  0.00  0.00    +0.011 C 
ENDROOT
BRANCH   3  24
ATOM     24  O   LIG    1       26.951 -12.885   3.082  0.00  0.00    -0.380 OA
ATOM     25  H   LIG    1       26.899 -13.217   2.167  0.00  0.00    +0.211 HD
ENDBRANCH   3  24
BRANCH   3  26
ATOM     26  C   LIG    1       24.732 -12.087   3.770  0.00  0.00    +0.180 C 
ATOM     27  O   LIG    1       24.207 -11.665   2.736  0.00  0.00    -0.293 OA
BRANCH  26  28
ATOM     28  C   LIG    1       24.345 -11.475   5.097  0.00  0.00    +0.186 C 
ATOM     29 CL   LIG    1       22.578 -11.447   5.220  0.00  0.00    -0.117 Cl
ENDBRANCH  26  28
ENDBRANCH   3  26
BRANCH   8  30
ATOM     30  O   LIG    1       27.086 -17.949   2.914  0.00  0.00    -0.389 OA
ATOM     31  H   LIG    1       27.323 -18.660   3.539  0.00  0.00    +0.210 HD
ENDBRANCH   8  30
TORSDOF 4
ENDMDL
