MODEL 1
REMARK VINA RESULT:      -8.4      0.000      0.000
REMARK  Name = *****
REMARK                            x       y       z     vdW  Elec       q    Type
REMARK                         _______ _______ _______ _____ _____    ______ ____
ROOT
ATOM      1  N   LIG    1       25.254 -21.852   5.487  0.00  0.00    -0.299 N 
ATOM      2  C   LIG    1       24.880 -23.172   5.844  0.00  0.00    +0.038 A 
ATOM      3  C   LIG    1       23.639 -23.542   6.399  0.00  0.00    -0.026 A 
ATOM      4  C   LIG    1       23.390 -24.905   6.701  0.00  0.00    +0.007 A 
ATOM      5  C   LIG    1       24.331 -25.895   6.439  0.00  0.00    +0.020 A 
ATOM      6  C   LIG    1       25.527 -25.544   5.846  0.00  0.00    +0.043 A 
ATOM      7 CL   LIG    1       26.677 -26.761   5.445  0.00  0.00    -0.084 Cl
ATOM      8  C   LIG    1       22.482 -22.603   6.667  0.00  0.00    +0.041 C 
ATOM      9  C   LIG    1       22.824 -21.162   7.009  0.00  0.00    +0.041 C 
ATOM     10  C   LIG    1       23.264 -20.406   5.787  0.00  0.00    -0.026 A 
ATOM     11  C   LIG    1       22.514 -19.300   5.349  0.00  0.00    +0.005 A 
ATOM     12  C   LIG    1       22.879 -18.597   4.202  0.00  0.00    +0.000 A 
ATOM     13  C   LIG    1       23.997 -18.991   3.480  0.00  0.00    +0.002 A 
ATOM     14  C   LIG    1       24.759 -20.073   3.921  0.00  0.00    +0.024 A 
ATOM     15  C   LIG    1       25.800 -24.207   5.553  0.00  0.00    +0.043 A 
ATOM     16  C   LIG    1       24.412 -20.789   5.083  0.00  0.00    +0.037 A 
ENDROOT
BRANCH   1  17
ATOM     17  C   LIG    1       26.525 -21.356   6.096  0.00  0.00    +0.112 C 
BRANCH  17  18
ATOM     18  C   LIG    1       26.325 -20.896   7.549  0.00  0.00    +0.035 C 
BRANCH  18  19
ATOM     19  C   LIG    1       27.568 -20.203   8.121  0.00  0.00    +0.085 C 
BRANCH  19  21
ATOM     20  C   LIG    1       29.409 -19.209   6.851  0.00  0.00    +0.104 C 
ATOM     21  N   LIG    1       28.787 -20.447   7.324  0.00  0.00    -0.308 NA
ATOM     22  C   LIG    1       29.758 -21.218   8.108  0.00  0.00    +0.104 C 
ENDBRANCH  19  21
ENDBRANCH  18  19
ENDBRANCH  17  18
ENDBRANCH   1  17
TORSDOF 4
ENDMDL
MODEL 2
REMARK VINA RESULT:      -7.8      2.463      5.701
REMARK  Name = *****
REMARK                            x       y       z     vdW  Elec       q    Type
REMARK                         _______ _______ _______ _____ _____    ______ ____
ROOT
ATOM      1  N   LIG    1       26.824 -21.086   7.058  0.00  0.00    -0.299 N 
ATOM      2  C   LIG    1       27.989 -20.310   6.838  0.00  0.00    +0.038 A 
ATOM      3  C   LIG    1       28.186 -19.429   5.755  0.00  0.00    -0.026 A 
ATOM      4  C   LIG    1       29.399 -18.702   5.660  0.00  0.00    +0.007 A 
ATOM      5  C   LIG    1       30.395 -18.814   6.625  0.00  0.00    +0.020 A 
ATOM      6  C   LIG    1       30.184 -19.634   7.716  0.00  0.00    +0.043 A 
ATOM      7 CL   LIG    1       31.371 -19.732   8.959  0.00  0.00    -0.084 Cl
ATOM      8  C   LIG    1       27.172 -19.132   4.670  0.00  0.00    +0.041 C 
ATOM      9  C   LIG    1       26.207 -20.247   4.299  0.00  0.00    +0.041 C 
ATOM     10  C   LIG    1       25.152 -20.422   5.354  0.00  0.00    -0.026 A 
ATOM     11  C   LIG    1       23.801 -20.209   5.025  0.00  0.00    +0.005 A 
ATOM     12  C   LIG    1       22.801 -20.334   5.989  0.00  0.00    +0.000 A 
ATOM     13  C   LIG    1       23.139 -20.672   7.291  0.00  0.00    +0.002 A 
ATOM     14  C   LIG    1       24.475 -20.908   7.620  0.00  0.00    +0.024 A 
ATOM     15  C   LIG    1       29.003 -20.370   7.823  0.00  0.00    +0.043 A 
ATOM     16  C   LIG    1       25.497 -20.797   6.658  0.00  0.00    +0.037 A 
ENDROOT
BRANCH   1  17
ATOM     17  C   LIG    1       27.049 -22.554   7.221  0.00  0.00    +0.112 C 
BRANCH  17  18
ATOM     18  C   LIG    1       25.728 -23.338   7.255  0.00  0.00    +0.035 C 
BRANCH  18  19
ATOM     19  C   LIG    1       25.801 -24.645   6.454  0.00  0.00    +0.085 C 
BRANCH  19  21
ATOM     20  C   LIG    1       24.284 -26.513   6.009  0.00  0.00    +0.104 C 
ATOM     21  N   LIG    1       24.492 -25.067   5.913  0.00  0.00    -0.308 NA
ATOM     22  C   LIG    1       23.408 -24.365   6.608  0.00  0.00    +0.104 C 
ENDBRANCH  19  21
ENDBRANCH  18  19
ENDBRANCH  17  18
ENDBRANCH   1  17
TORSDOF 4
ENDMDL
MODEL 3
REMARK VINA RESULT:      -6.7      2.303      5.544
REMARK  Name = *****
REMARK                            x       y       z     vdW  Elec       q    Type
REMARK                         _______ _______ _______ _____ _____    ______ ____
ROOT
ATOM      1  N   LIG    1       26.147 -21.358   5.707  0.00  0.00    -0.299 N 
ATOM      2  C   LIG    1       27.053 -20.680   6.560  0.00  0.00    +0.038 A 
ATOM      3  C   LIG    1       26.830 -20.399   7.923  0.00  0.00    -0.026 A 
ATOM      4  C   LIG    1       27.828 -19.721   8.667  0.00  0.00    +0.007 A 
ATOM      5  C   LIG    1       29.039 -19.347   8.094  0.00  0.00    +0.020 A 
ATOM      6  C   LIG    1       29.284 -19.668   6.774  0.00  0.00    +0.043 A 
ATOM      7 CL   LIG    1       30.803 -19.281   6.063  0.00  0.00    -0.084 Cl
ATOM      8  C   LIG    1       25.606 -20.811   8.715  0.00  0.00    +0.041 C 
ATOM      9  C   LIG    1       24.292 -20.914   7.956  0.00  0.00    +0.041 C 
ATOM     10  C   LIG    1       24.258 -22.149   7.101  0.00  0.00    -0.026 A 
ATOM     11  C   LIG    1       23.288 -23.137   7.350  0.00  0.00    +0.005 A 
ATOM     12  C   LIG    1       23.249 -24.308   6.594  0.00  0.00    +0.000 A 
ATOM     13  C   LIG    1       24.178 -24.506   5.583  0.00  0.00    +0.002 A 
ATOM     14  C   LIG    1       25.129 -23.520   5.315  0.00  0.00    +0.024 A 
ATOM     15  C   LIG    1       28.310 -20.323   6.017  0.00  0.00    +0.043 A 
ATOM     16  C   LIG    1       25.178 -22.326   6.060  0.00  0.00    +0.037 A 
ENDROOT
BRANCH   1  17
ATOM     17  C   LIG    1       25.780 -20.634   4.453  0.00  0.00    +0.112 C 
BRANCH  17  18
ATOM     18  C   LIG    1       24.879 -19.421   4.732  0.00  0.00    +0.035 C 
BRANCH  18  19
ATOM     19  C   LIG    1       23.907 -19.133   3.580  0.00  0.00    +0.085 C 
BRANCH  19  21
ATOM     20  C   LIG    1       22.177 -20.185   4.955  0.00  0.00    +0.104 C 
ATOM     21  N   LIG    1       22.492 -19.117   4.005  0.00  0.00    -0.308 NA
ATOM     22  C   LIG    1       22.158 -17.817   4.596  0.00  0.00    +0.104 C 
ENDBRANCH  19  21
ENDBRANCH  18  19
ENDBRANCH  17  18
ENDBRANCH   1  17
TORSDOF 4
ENDMDL
MODEL 4
REMARK VINA RESULT:      -5.8      5.812      9.418
REMARK  Name = *****
REMARK                            x       y       z     vdW  Elec       q    Type
REMARK                         _______ _______ _______ _____ _____    ______ ____
ROOT
ATOM      1  N   LIG    1       24.498 -30.453   7.691  0.00  0.00    -0.299 N 
ATOM      2  C   LIG    1       25.383 -31.339   7.027  0.00  0.00    +0.038 A 
ATOM      3  C   LIG    1       26.600 -31.818   7.554  0.00  0.00    -0.026 A 
ATOM      4  C   LIG    1       27.387 -32.712   6.785  0.00  0.00    +0.007 A 
ATOM      5  C   LIG    1       26.978 -33.153   5.531  0.00  0.00    +0.020 A 
ATOM      6  C   LIG    1       25.762 -32.729   5.034  0.00  0.00    +0.043 A 
ATOM      7 CL   LIG    1       25.201 -33.318   3.517  0.00  0.00    -0.084 Cl
ATOM      8  C   LIG    1       27.144 -31.502   8.931  0.00  0.00    +0.041 C 
ATOM      9  C   LIG    1       26.789 -30.147   9.523  0.00  0.00    +0.041 C 
ATOM     10  C   LIG    1       25.361 -30.120   9.989  0.00  0.00    -0.026 A 
ATOM     11  C   LIG    1       25.081 -29.912  11.352  0.00  0.00    +0.005 A 
ATOM     12  C   LIG    1       23.768 -29.911  11.821  0.00  0.00    +0.000 A 
ATOM     13  C   LIG    1       22.720 -30.118  10.935  0.00  0.00    +0.002 A 
ATOM     14  C   LIG    1       22.989 -30.302   9.578  0.00  0.00    +0.024 A 
ATOM     15  C   LIG    1       24.976 -31.837   5.766  0.00  0.00    +0.043 A 
ATOM     16  C   LIG    1       24.307 -30.296   9.084  0.00  0.00    +0.037 A 
ENDROOT
BRANCH   1  17
ATOM     17  C   LIG    1       24.143 -29.214   6.936  0.00  0.00    +0.112 C 
BRANCH  17  18
ATOM     18  C   LIG    1       25.352 -28.282   6.759  0.00  0.00    +0.035 C 
BRANCH  18  19
ATOM     19  C   LIG    1       25.351 -27.571   5.399  0.00  0.00    +0.085 C 
BRANCH  19  21
ATOM     20  C   LIG    1       25.044 -25.248   4.693  0.00  0.00    +0.104 C 
ATOM     21  N   LIG    1       25.859 -26.186   5.468  0.00  0.00    -0.308 NA
ATOM     22  C   LIG    1       25.929 -25.742   6.864  0.00  0.00    +0.104 C 
ENDBRANCH  19  21
ENDBRANCH  18  19
ENDBRANCH  17  18
ENDBRANCH   1  17
TORSDOF 4
ENDMDL
MODEL 5
REMARK VINA RESULT:      -5.5      5.639      9.280
REMARK  Name = *****
REMARK                            x       y       z     vdW  Elec       q    Type
REMARK                         _______ _______ _______ _____ _____    ______ ____
ROOT
ATOM      1  N   LIG    1       25.152 -30.081   7.227  0.00  0.00    -0.299 N 
ATOM      2  C   LIG    1       25.309 -30.148   8.635  0.00  0.00    +0.038 A 
ATOM      3  C   LIG    1       24.881 -31.215   9.449  0.00  0.00    -0.026 A 
ATOM      4  C   LIG    1       25.111 -31.160  10.847  0.00  0.00    +0.007 A 
ATOM      5  C   LIG    1       25.774 -30.087  11.437  0.00  0.00    +0.020 A 
ATOM      6  C   LIG    1       26.242 -29.065  10.636  0.00  0.00    +0.043 A 
ATOM      7 CL   LIG    1       27.129 -27.765  11.333  0.00  0.00    -0.084 Cl
ATOM      8  C   LIG    1       24.223 -32.487   8.956  0.00  0.00    +0.041 C 
ATOM      9  C   LIG    1       23.373 -32.384   7.700  0.00  0.00    +0.041 C 
ATOM     10  C   LIG    1       24.233 -32.255   6.475  0.00  0.00    -0.026 A 
ATOM     11  C   LIG    1       24.181 -33.252   5.483  0.00  0.00    +0.005 A 
ATOM     12  C   LIG    1       24.989 -33.176   4.350  0.00  0.00    +0.000 A 
ATOM     13  C   LIG    1       25.857 -32.105   4.193  0.00  0.00    +0.002 A 
ATOM     14  C   LIG    1       25.897 -31.101   5.161  0.00  0.00    +0.024 A 
ATOM     15  C   LIG    1       26.015 -29.092   9.258  0.00  0.00    +0.043 A 
ATOM     16  C   LIG    1       25.082 -31.154   6.308  0.00  0.00    +0.037 A 
ENDROOT
BRANCH   1  17
ATOM     17  C   LIG    1       24.459 -28.861   6.714  0.00  0.00    +0.112 C 
BRANCH  17  18
ATOM     18  C   LIG    1       25.410 -27.950   5.922  0.00  0.00    +0.035 C 
BRANCH  18  19
ATOM     19  C   LIG    1       25.862 -26.728   6.733  0.00  0.00    +0.085 C 
BRANCH  19  21
ATOM     20  C   LIG    1       25.114 -25.467   4.773  0.00  0.00    +0.104 C 
ATOM     21  N   LIG    1       26.041 -25.517   5.905  0.00  0.00    -0.308 NA
ATOM     22  C   LIG    1       25.878 -24.314   6.729  0.00  0.00    +0.104 C 
ENDBRANCH  19  21
ENDBRANCH  18  19
ENDBRANCH  17  18
ENDBRANCH   1  17
TORSDOF 4
ENDMDL
MODEL 6
REMARK VINA RESULT:      -5.5      5.407      9.022
REMARK  Name = *****
REMARK                            x       y       z     vdW  Elec       q    Type
REMARK                         _______ _______ _______ _____ _____    ______ ____
ROOT
ATOM      1  N   LIG    1       25.478 -28.800   8.141  0.00  0.00    -0.299 N 
ATOM      2  C   LIG    1       25.516 -27.865   7.076  0.00  0.00    +0.038 A 
ATOM      3  C   LIG    1       25.251 -28.162   5.724  0.00  0.00    -0.026 A 
ATOM      4  C   LIG    1       25.314 -27.126   4.758  0.00  0.00    +0.007 A 
ATOM      5  C   LIG    1       25.606 -25.813   5.113  0.00  0.00    +0.020 A 
ATOM      6  C   LIG    1       25.814 -25.507   6.443  0.00  0.00    +0.043 A 
ATOM      7 CL   LIG    1       26.104 -23.878   6.915  0.00  0.00    -0.084 Cl
ATOM      8  C   LIG    1       24.838 -29.517   5.188  0.00  0.00    +0.041 C 
ATOM      9  C   LIG    1       25.360 -30.741   5.924  0.00  0.00    +0.041 C 
ATOM     10  C   LIG    1       24.632 -30.940   7.224  0.00  0.00    -0.026 A 
ATOM     11  C   LIG    1       23.878 -32.112   7.423  0.00  0.00    +0.005 A 
ATOM     12  C   LIG    1       23.168 -32.312   8.606  0.00  0.00    +0.000 A 
ATOM     13  C   LIG    1       23.202 -31.346   9.602  0.00  0.00    +0.002 A 
ATOM     14  C   LIG    1       23.965 -30.192   9.420  0.00  0.00    +0.024 A 
ATOM     15  C   LIG    1       25.771 -26.513   7.410  0.00  0.00    +0.043 A 
ATOM     16  C   LIG    1       24.698 -29.976   8.237  0.00  0.00    +0.037 A 
ENDROOT
BRANCH   1  17
ATOM     17  C   LIG    1       26.719 -28.883   8.969  0.00  0.00    +0.112 C 
BRANCH  17  18
ATOM     18  C   LIG    1       26.544 -28.202  10.335  0.00  0.00    +0.035 C 
BRANCH  18  19
ATOM     19  C   LIG    1       27.202 -28.993  11.474  0.00  0.00    +0.085 C 
BRANCH  19  21
ATOM     20  C   LIG    1       25.141 -28.334  12.618  0.00  0.00    +0.104 C 
ATOM     21  N   LIG    1       26.291 -29.241  12.610  0.00  0.00    -0.308 NA
ATOM     22  C   LIG    1       25.822 -30.630  12.587  0.00  0.00    +0.104 C 
ENDBRANCH  19  21
ENDBRANCH  18  19
ENDBRANCH  17  18
ENDBRANCH   1  17
TORSDOF 4
ENDMDL
