MODEL 1
REMARK VINA RESULT:      -9.2      0.000      0.000
REMARK  Name = *****
REMARK                            x       y       z     vdW  Elec       q    Type
REMARK                         _______ _______ _______ _____ _____    ______ ____
ROOT
ATOM      1  C   LIG    1       25.191 -25.571   6.479  0.00  0.00    +0.124 A 
ATOM      2  C   LIG    1       23.829 -25.289   6.441  0.00  0.00    +0.091 A 
ATOM      3  C   LIG    1       23.390 -23.972   6.601  0.00  0.00    +0.131 A 
ATOM      4  C   LIG    1       24.295 -22.914   6.810  0.00  0.00    +0.064 A 
ATOM      5  C   LIG    1       25.662 -23.206   6.840  0.00  0.00    +0.019 A 
ATOM      6  C   LIG    1       26.100 -24.531   6.695  0.00  0.00    +0.046 A 
ENDROOT
BRANCH   1   8
ATOM      7  C   LIG    1       26.221 -27.159   5.060  0.00  0.00    +0.277 C 
ATOM      8  O   LIG    1       25.746 -26.815   6.358  0.00  0.00    -0.495 OA
ENDBRANCH   1   8
BRANCH   3   9
ATOM      9  O   LIG    1       22.031 -23.786   6.548  0.00  0.00    -0.506 OA
ATOM     10  H   LIG    1       21.841 -22.888   6.903  0.00  0.00    +0.292 HD
ENDBRANCH   3   9
BRANCH   4  11
ATOM     11  C   LIG    1       23.773 -21.524   6.918  0.00  0.00    +0.197 C 
ATOM     12  O   LIG    1       23.374 -21.157   8.030  0.00  0.00    -0.286 OA
BRANCH  11  13
ATOM     13  C   LIG    1       23.731 -20.540   5.807  0.00  0.00    +0.022 A 
ATOM     14  C   LIG    1       24.844 -20.468   4.952  0.00  0.00    +0.012 A 
ATOM     15  C   LIG    1       24.837 -19.622   3.842  0.00  0.00    +0.001 A 
ATOM     16  C   LIG    1       23.718 -18.839   3.576  0.00  0.00    +0.000 A 
ATOM     17  C   LIG    1       22.602 -18.911   4.411  0.00  0.00    +0.001 A 
ATOM     18  C   LIG    1       22.601 -19.768   5.518  0.00  0.00    +0.012 A 
ENDBRANCH  11  13
ENDBRANCH   4  11
TORSDOF 4
ENDMDL
MODEL 2
REMARK VINA RESULT:      -8.9      2.812      3.624
REMARK  Name = *****
REMARK                            x       y       z     vdW  Elec       q    Type
REMARK                         _______ _______ _______ _____ _____    ______ ____
ROOT
ATOM      1  C   LIG    1       24.098 -24.466   6.509  0.00  0.00    +0.124 A 
ATOM      2  C   LIG    1       23.405 -23.316   6.875  0.00  0.00    +0.091 A 
ATOM      3  C   LIG    1       24.098 -22.236   7.428  0.00  0.00    +0.131 A 
ATOM      4  C   LIG    1       25.491 -22.282   7.634  0.00  0.00    +0.064 A 
ATOM      5  C   LIG    1       26.179 -23.439   7.257  0.00  0.00    +0.019 A 
ATOM      6  C   LIG    1       25.479 -24.529   6.718  0.00  0.00    +0.046 A 
ENDROOT
BRANCH   1   8
ATOM      7  C   LIG    1       24.330 -26.776   6.055  0.00  0.00    +0.277 C 
ATOM      8  O   LIG    1       23.535 -25.595   5.982  0.00  0.00    -0.495 OA
ENDBRANCH   1   8
BRANCH   3   9
ATOM      9  O   LIG    1       23.336 -21.143   7.756  0.00  0.00    -0.506 OA
ATOM     10  H   LIG    1       23.239 -20.594   6.945  0.00  0.00    +0.292 HD
ENDBRANCH   3   9
BRANCH   4  11
ATOM     11  C   LIG    1       26.184 -21.080   8.174  0.00  0.00    +0.197 C 
ATOM     12  O   LIG    1       25.846 -20.694   9.300  0.00  0.00    -0.286 OA
BRANCH  11  13
ATOM     13  C   LIG    1       27.269 -20.339   7.483  0.00  0.00    +0.022 A 
ATOM     14  C   LIG    1       28.390 -19.960   8.242  0.00  0.00    +0.012 A 
ATOM     15  C   LIG    1       29.480 -19.331   7.637  0.00  0.00    +0.001 A 
ATOM     16  C   LIG    1       29.459 -19.074   6.270  0.00  0.00    +0.000 A 
ATOM     17  C   LIG    1       28.356 -19.456   5.505  0.00  0.00    +0.001 A 
ATOM     18  C   LIG    1       27.267 -20.098   6.105  0.00  0.00    +0.012 A 
ENDBRANCH  11  13
ENDBRANCH   4  11
TORSDOF 4
ENDMDL
MODEL 3
REMARK VINA RESULT:      -8.7      3.539      5.852
REMARK  Name = *****
REMARK                            x       y       z     vdW  Elec       q    Type
REMARK                         _______ _______ _______ _____ _____    ______ ____
ROOT
ATOM      1  C   LIG    1       29.101 -19.383   6.502  0.00  0.00    +0.124 A 
ATOM      2  C   LIG    1       28.148 -19.613   5.514  0.00  0.00    +0.091 A 
ATOM      3  C   LIG    1       26.946 -20.243   5.846  0.00  0.00    +0.131 A 
ATOM      4  C   LIG    1       26.673 -20.662   7.163  0.00  0.00    +0.064 A 
ATOM      5  C   LIG    1       27.634 -20.421   8.149  0.00  0.00    +0.019 A 
ATOM      6  C   LIG    1       28.847 -19.804   7.810  0.00  0.00    +0.046 A 
ENDROOT
BRANCH   1   8
ATOM      7  C   LIG    1       31.333 -19.139   7.247  0.00  0.00    +0.277 C 
ATOM      8  O   LIG    1       30.322 -18.799   6.302  0.00  0.00    -0.495 OA
ENDBRANCH   1   8
BRANCH   3   9
ATOM      9  O   LIG    1       26.063 -20.427   4.811  0.00  0.00    -0.506 OA
ATOM     10  H   LIG    1       25.175 -20.141   5.125  0.00  0.00    +0.292 HD
ENDBRANCH   3   9
BRANCH   4  11
ATOM     11  C   LIG    1       25.352 -21.278   7.468  0.00  0.00    +0.197 C 
ATOM     12  O   LIG    1       24.500 -20.551   7.994  0.00  0.00    -0.286 OA
BRANCH  11  13
ATOM     13  C   LIG    1       24.972 -22.679   7.157  0.00  0.00    +0.022 A 
ATOM     14  C   LIG    1       23.608 -22.962   6.969  0.00  0.00    +0.012 A 
ATOM     15  C   LIG    1       23.190 -24.240   6.597  0.00  0.00    +0.001 A 
ATOM     16  C   LIG    1       24.130 -25.248   6.408  0.00  0.00    +0.000 A 
ATOM     17  C   LIG    1       25.489 -24.976   6.580  0.00  0.00    +0.001 A 
ATOM     18  C   LIG    1       25.912 -23.691   6.941  0.00  0.00    +0.012 A 
ENDBRANCH  11  13
ENDBRANCH   4  11
TORSDOF 4
ENDMDL
MODEL 4
REMARK VINA RESULT:      -8.6      0.993      1.719
REMARK  Name = *****
REMARK                            x       y       z     vdW  Elec       q    Type
REMARK                         _______ _______ _______ _____ _____    ______ ____
ROOT
ATOM      1  C   LIG    1       25.284 -25.767   6.500  0.00  0.00    +0.124 A 
ATOM      2  C   LIG    1       26.159 -24.739   6.837  0.00  0.00    +0.091 A 
ATOM      3  C   LIG    1       25.679 -23.431   6.947  0.00  0.00    +0.131 A 
ATOM      4  C   LIG    1       24.325 -23.121   6.716  0.00  0.00    +0.064 A 
ATOM      5  C   LIG    1       23.453 -24.162   6.384  0.00  0.00    +0.019 A 
ATOM      6  C   LIG    1       23.939 -25.472   6.258  0.00  0.00    +0.046 A 
ENDROOT
BRANCH   1   8
ATOM      7  C   LIG    1       24.715 -27.877   5.594  0.00  0.00    +0.277 C 
ATOM      8  O   LIG    1       25.632 -27.080   6.339  0.00  0.00    -0.495 OA
ENDBRANCH   1   8
BRANCH   3   9
ATOM      9  O   LIG    1       26.610 -22.481   7.285  0.00  0.00    -0.506 OA
ATOM     10  H   LIG    1       27.501 -22.871   7.132  0.00  0.00    +0.292 HD
ENDBRANCH   3   9
BRANCH   4  11
ATOM     11  C   LIG    1       23.860 -21.719   6.902  0.00  0.00    +0.197 C 
ATOM     12  O   LIG    1       23.590 -21.363   8.055  0.00  0.00    -0.286 OA
BRANCH  11  13
ATOM     13  C   LIG    1       23.734 -20.711   5.818  0.00  0.00    +0.022 A 
ATOM     14  C   LIG    1       24.739 -20.677   4.835  0.00  0.00    +0.012 A 
ATOM     15  C   LIG    1       24.641 -19.809   3.746  0.00  0.00    +0.001 A 
ATOM     16  C   LIG    1       23.539 -18.968   3.629  0.00  0.00    +0.000 A 
ATOM     17  C   LIG    1       22.529 -19.002   4.593  0.00  0.00    +0.001 A 
ATOM     18  C   LIG    1       22.618 -19.880   5.680  0.00  0.00    +0.012 A 
ENDBRANCH  11  13
ENDBRANCH   4  11
TORSDOF 4
ENDMDL
MODEL 5
REMARK VINA RESULT:      -8.6      4.015      5.632
REMARK  Name = *****
REMARK                            x       y       z     vdW  Elec       q    Type
REMARK                         _______ _______ _______ _____ _____    ______ ____
ROOT
ATOM      1  C   LIG    1       29.859 -19.060   7.073  0.00  0.00    +0.124 A 
ATOM      2  C   LIG    1       29.201 -19.816   8.038  0.00  0.00    +0.091 A 
ATOM      3  C   LIG    1       27.995 -20.446   7.718  0.00  0.00    +0.131 A 
ATOM      4  C   LIG    1       27.419 -20.330   6.439  0.00  0.00    +0.064 A 
ATOM      5  C   LIG    1       28.091 -19.573   5.475  0.00  0.00    +0.019 A 
ATOM      6  C   LIG    1       29.293 -18.927   5.802  0.00  0.00    +0.046 A 
ENDROOT
BRANCH   1   8
ATOM      7  C   LIG    1       31.623 -18.517   8.554  0.00  0.00    +0.277 C 
ATOM      8  O   LIG    1       31.029 -18.378   7.266  0.00  0.00    -0.495 OA
ENDBRANCH   1   8
BRANCH   3   9
ATOM      9  O   LIG    1       27.416 -21.173   8.729  0.00  0.00    -0.506 OA
ATOM     10  H   LIG    1       26.485 -21.356   8.466  0.00  0.00    +0.292 HD
ENDBRANCH   3   9
BRANCH   4  11
ATOM     11  C   LIG    1       26.162 -21.069   6.139  0.00  0.00    +0.197 C 
ATOM     12  O   LIG    1       26.104 -22.251   6.499  0.00  0.00    -0.286 OA
BRANCH  11  13
ATOM     13  C   LIG    1       24.966 -20.485   5.480  0.00  0.00    +0.022 A 
ATOM     14  C   LIG    1       23.756 -20.491   6.195  0.00  0.00    +0.012 A 
ATOM     15  C   LIG    1       22.613 -19.888   5.665  0.00  0.00    +0.001 A 
ATOM     16  C   LIG    1       22.669 -19.274   4.418  0.00  0.00    +0.000 A 
ATOM     17  C   LIG    1       23.869 -19.253   3.705  0.00  0.00    +0.001 A 
ATOM     18  C   LIG    1       25.020 -19.846   4.238  0.00  0.00    +0.012 A 
ENDBRANCH  11  13
ENDBRANCH   4  11
TORSDOF 4
ENDMDL
MODEL 6
REMARK VINA RESULT:      -8.1      6.666      8.084
REMARK  Name = *****
REMARK                            x       y       z     vdW  Elec       q    Type
REMARK                         _______ _______ _______ _____ _____    ______ ____
ROOT
ATOM      1  C   LIG    1       27.114 -20.343   6.089  0.00  0.00    +0.124 A 
ATOM      2  C   LIG    1       27.903 -19.422   5.406  0.00  0.00    +0.091 A 
ATOM      3  C   LIG    1       29.119 -19.009   5.957  0.00  0.00    +0.131 A 
ATOM      4  C   LIG    1       29.569 -19.498   7.198  0.00  0.00    +0.064 A 
ATOM      5  C   LIG    1       28.773 -20.427   7.874  0.00  0.00    +0.019 A 
ATOM      6  C   LIG    1       27.544 -20.828   7.328  0.00  0.00    +0.046 A 
ENDROOT
BRANCH   1   8
ATOM      7  C   LIG    1       25.358 -20.174   4.514  0.00  0.00    +0.277 C 
ATOM      8  O   LIG    1       25.898 -20.807   5.670  0.00  0.00    -0.495 OA
ENDBRANCH   1   8
BRANCH   3   9
ATOM      9  O   LIG    1       29.832 -18.101   5.215  0.00  0.00    -0.506 OA
ATOM     10  H   LIG    1       29.219 -17.371   4.970  0.00  0.00    +0.292 HD
ENDBRANCH   3   9
BRANCH   4  11
ATOM     11  C   LIG    1       30.899 -19.065   7.709  0.00  0.00    +0.197 C 
ATOM     12  O   LIG    1       31.898 -19.540   7.154  0.00  0.00    -0.286 OA
BRANCH  11  13
ATOM     13  C   LIG    1       31.114 -18.084   8.803  0.00  0.00    +0.022 A 
ATOM     14  C   LIG    1       30.175 -18.051   9.848  0.00  0.00    +0.012 A 
ATOM     15  C   LIG    1       30.359 -17.209  10.945  0.00  0.00    +0.001 A 
ATOM     16  C   LIG    1       31.484 -16.391  11.009  0.00  0.00    +0.000 A 
ATOM     17  C   LIG    1       32.429 -16.425   9.982  0.00  0.00    +0.001 A 
ATOM     18  C   LIG    1       32.254 -17.277   8.886  0.00  0.00    +0.012 A 
ENDBRANCH  11  13
ENDBRANCH   4  11
TORSDOF 4
ENDMDL
MODEL 7
REMARK VINA RESULT:      -8.0      4.459      6.229
REMARK  Name = *****
REMARK                            x       y       z     vdW  Elec       q    Type
REMARK                         _______ _______ _______ _____ _____    ______ ____
ROOT
ATOM      1  C   LIG    1       30.407 -19.800   7.384  0.00  0.00    +0.124 A 
ATOM      2  C   LIG    1       29.989 -19.019   6.310  0.00  0.00    +0.091 A 
ATOM      3  C   LIG    1       28.726 -19.232   5.751  0.00  0.00    +0.131 A 
ATOM      4  C   LIG    1       27.860 -20.227   6.244  0.00  0.00    +0.064 A 
ATOM      5  C   LIG    1       28.286 -21.001   7.326  0.00  0.00    +0.019 A 
ATOM      6  C   LIG    1       29.561 -20.798   7.876  0.00  0.00    +0.046 A 
ENDROOT
BRANCH   1   8
ATOM      7  C   LIG    1       31.934 -18.439   8.571  0.00  0.00    +0.277 C 
ATOM      8  O   LIG    1       31.623 -19.708   8.003  0.00  0.00    -0.495 OA
ENDBRANCH   1   8
BRANCH   3   9
ATOM      9  O   LIG    1       28.395 -18.416   4.698  0.00  0.00    -0.506 OA
ATOM     10  H   LIG    1       29.118 -17.755   4.597  0.00  0.00    +0.292 HD
ENDBRANCH   3   9
BRANCH   4  11
ATOM     11  C   LIG    1       26.504 -20.369   5.644  0.00  0.00    +0.197 C 
ATOM     12  O   LIG    1       26.277 -19.734   4.608  0.00  0.00    -0.286 OA
BRANCH  11  13
ATOM     13  C   LIG    1       25.425 -21.241   6.174  0.00  0.00    +0.022 A 
ATOM     14  C   LIG    1       24.321 -20.620   6.785  0.00  0.00    +0.012 A 
ATOM     15  C   LIG    1       23.237 -21.375   7.233  0.00  0.00    +0.001 A 
ATOM     16  C   LIG    1       23.244 -22.758   7.076  0.00  0.00    +0.000 A 
ATOM     17  C   LIG    1       24.330 -23.384   6.460  0.00  0.00    +0.001 A 
ATOM     18  C   LIG    1       25.414 -22.628   5.999  0.00  0.00    +0.012 A 
ENDBRANCH  11  13
ENDBRANCH   4  11
TORSDOF 4
ENDMDL
MODEL 8
REMARK VINA RESULT:      -8.0      3.359      5.667
REMARK  Name = *****
REMARK                            x       y       z     vdW  Elec       q    Type
REMARK                         _______ _______ _______ _____ _____    ______ ____
ROOT
ATOM      1  C   LIG    1       28.968 -19.526   6.850  0.00  0.00    +0.124 A 
ATOM      2  C   LIG    1       28.355 -19.927   8.033  0.00  0.00    +0.091 A 
ATOM      3  C   LIG    1       27.049 -20.424   8.001  0.00  0.00    +0.131 A 
ATOM      4  C   LIG    1       26.327 -20.523   6.796  0.00  0.00    +0.064 A 
ATOM      5  C   LIG    1       26.954 -20.124   5.612  0.00  0.00    +0.019 A 
ATOM      6  C   LIG    1       28.259 -19.609   5.648  0.00  0.00    +0.046 A 
ENDROOT
BRANCH   1   8
ATOM      7  C   LIG    1       31.137 -19.378   7.781  0.00  0.00    +0.277 C 
ATOM      8  O   LIG    1       30.228 -19.003   6.750  0.00  0.00    -0.495 OA
ENDBRANCH   1   8
BRANCH   3   9
ATOM      9  O   LIG    1       26.523 -20.798   9.213  0.00  0.00    -0.506 OA
ATOM     10  H   LIG    1       25.546 -20.696   9.157  0.00  0.00    +0.292 HD
ENDBRANCH   3   9
BRANCH   4  11
ATOM     11  C   LIG    1       24.960 -21.112   6.816  0.00  0.00    +0.197 C 
ATOM     12  O   LIG    1       24.013 -20.333   6.977  0.00  0.00    -0.286 OA
BRANCH  11  13
ATOM     13  C   LIG    1       24.648 -22.551   6.620  0.00  0.00    +0.022 A 
ATOM     14  C   LIG    1       25.723 -23.430   6.398  0.00  0.00    +0.012 A 
ATOM     15  C   LIG    1       25.507 -24.804   6.285  0.00  0.00    +0.001 A 
ATOM     16  C   LIG    1       24.217 -25.314   6.394  0.00  0.00    +0.000 A 
ATOM     17  C   LIG    1       23.144 -24.451   6.627  0.00  0.00    +0.001 A 
ATOM     18  C   LIG    1       23.358 -23.074   6.753  0.00  0.00    +0.012 A 
ENDBRANCH  11  13
ENDBRANCH   4  11
TORSDOF 4
ENDMDL
MODEL 9
REMARK VINA RESULT:      -8.0      5.967      7.541
REMARK  Name = *****
REMARK                            x       y       z     vdW  Elec       q    Type
REMARK                         _______ _______ _______ _____ _____    ______ ____
ROOT
ATOM      1  C   LIG    1       31.549 -18.528   9.380  0.00  0.00    +0.124 A 
ATOM      2  C   LIG    1       31.465 -19.890   9.105  0.00  0.00    +0.091 A 
ATOM      3  C   LIG    1       30.482 -20.359   8.229  0.00  0.00    +0.131 A 
ATOM      4  C   LIG    1       29.561 -19.486   7.619  0.00  0.00    +0.064 A 
ATOM      5  C   LIG    1       29.657 -18.120   7.898  0.00  0.00    +0.019 A 
ATOM      6  C   LIG    1       30.634 -17.652   8.790  0.00  0.00    +0.046 A 
ENDROOT
BRANCH   1   8
ATOM      7  C   LIG    1       32.693 -16.560  10.023  0.00  0.00    +0.277 C 
ATOM      8  O   LIG    1       32.447 -17.948  10.233  0.00  0.00    -0.495 OA
ENDBRANCH   1   8
BRANCH   3   9
ATOM      9  O   LIG    1       30.474 -21.714   8.013  0.00  0.00    -0.506 OA
ATOM     10  H   LIG    1       31.394 -21.984   7.788  0.00  0.00    +0.292 HD
ENDBRANCH   3   9
BRANCH   4  11
ATOM     11  C   LIG    1       28.571 -20.036   6.653  0.00  0.00    +0.197 C 
ATOM     12  O   LIG    1       28.986 -20.324   5.523  0.00  0.00    -0.286 OA
BRANCH  11  13
ATOM     13  C   LIG    1       27.141 -20.299   6.953  0.00  0.00    +0.022 A 
ATOM     14  C   LIG    1       26.257 -20.432   5.868  0.00  0.00    +0.012 A 
ATOM     15  C   LIG    1       24.915 -20.757   6.078  0.00  0.00    +0.001 A 
ATOM     16  C   LIG    1       24.445 -20.954   7.373  0.00  0.00    +0.000 A 
ATOM     17  C   LIG    1       25.317 -20.836   8.457  0.00  0.00    +0.001 A 
ATOM     18  C   LIG    1       26.665 -20.522   8.250  0.00  0.00    +0.012 A 
ENDBRANCH  11  13
ENDBRANCH   4  11
TORSDOF 4
ENDMDL
