MODEL 1
REMARK VINA RESULT:      -6.8      0.000      0.000
REMARK  Name = *****
REMARK                            x       y       z     vdW  Elec       q    Type
REMARK                         _______ _______ _______ _____ _____    ______ ____
ROOT
ATOM      1  C   LIG    1       26.239 -28.945  10.971  0.00  0.00    +0.237 C 
ATOM      2  N   LIG    1       25.799 -29.988  10.169  0.00  0.00    -0.288 N 
ATOM      3  C   LIG    1       25.993 -29.947   8.709  0.00  0.00    +0.166 C 
ATOM      4  C   LIG    1       25.423 -31.276   8.219  0.00  0.00    +0.029 C 
ATOM      5  C   LIG    1       26.019 -32.664   8.437  0.00  0.00    -0.025 C 
ATOM      6  C   LIG    1       25.472 -33.823   7.636  0.00  0.00    +0.011 C 
ATOM      7  C   LIG    1       27.479 -32.810   8.774  0.00  0.00    +0.011 C 
ATOM      8  C   LIG    1       25.046 -32.068   9.433  0.00  0.00    +0.018 C 
ATOM      9  C   LIG    1       25.454 -31.312  10.647  0.00  0.00    +0.113 C 
ATOM     10  O   LIG    1       26.568 -27.859  10.481  0.00  0.00    -0.274 OA
ENDROOT
BRANCH   3  11
ATOM     11  C   LIG    1       25.209 -28.801   8.041  0.00  0.00    +0.234 C 
ATOM     12  N   LIG    1       25.995 -27.814   7.455  0.00  0.00    -0.304 N 
ATOM     13  H   LIG    1       26.993 -27.988   7.386  0.00  0.00    +0.149 HD
ATOM     14  O   LIG    1       23.985 -28.846   7.949  0.00  0.00    -0.274 OA
BRANCH  12  15
ATOM     15  C   LIG    1       25.443 -26.727   6.626  0.00  0.00    +0.149 C 
BRANCH  15  16
ATOM     16  C   LIG    1       25.429 -27.042   5.118  0.00  0.00    +0.237 C 
ATOM     17  O   LIG    1       25.791 -26.352   4.182  0.00  0.00    -0.285 OA
BRANCH  16  18
ATOM     18  C   LIG    1       25.027 -28.455   4.751  0.00  0.00    +0.279 C 
ATOM     19  O   LIG    1       25.842 -29.290   4.496  0.00  0.00    -0.267 OA
ATOM     20  N   LIG    1       23.664 -28.638   4.780  0.00  0.00    -0.323 N 
ATOM     21  H   LIG    1       23.315 -29.582   4.754  0.00  0.00    +0.145 HD
ATOM     22  H   LIG    1       23.083 -27.914   5.184  0.00  0.00    +0.145 HD
ENDBRANCH  16  18
ENDBRANCH  15  16
BRANCH  15  23
ATOM     23  C   LIG    1       25.967 -25.327   6.990  0.00  0.00    +0.034 C 
BRANCH  23  24
ATOM     24  C   LIG    1       25.079 -24.206   6.479  0.00  0.00    -0.009 C 
ATOM     25  C   LIG    1       23.546 -24.359   6.668  0.00  0.00    +0.004 C 
ATOM     26  C   LIG    1       23.504 -22.835   6.882  0.00  0.00    +0.000 C 
ATOM     27  C   LIG    1       24.967 -22.938   7.363  0.00  0.00    +0.004 C 
ENDBRANCH  23  24
ENDBRANCH  15  23
ENDBRANCH  12  15
ENDBRANCH   3  11
BRANCH   1  28
ATOM     28  C   LIG    1       26.440 -29.229  12.501  0.00  0.00    +0.166 C 
BRANCH  28  32
ATOM     29  N   LIG    1       29.946 -28.840  13.717  0.00  0.00    -0.295 N 
ATOM     30  H   LIG    1       30.011 -27.935  13.287  0.00  0.00    +0.151 HD
ATOM     31  C   LIG    1       28.755 -29.526  13.518  0.00  0.00    +0.301 C 
ATOM     32  N   LIG    1       27.804 -28.742  12.875  0.00  0.00    -0.288 N 
ATOM     33  H   LIG    1       28.099 -27.877  12.455  0.00  0.00    +0.151 HD
ATOM     34  O   LIG    1       28.555 -30.662  13.907  0.00  0.00    -0.253 OA
BRANCH  29  36
ATOM     35  C   LIG    1       30.716 -30.388  15.498  0.00  0.00    +0.031 C 
ATOM     36  C   LIG    1       31.151 -29.314  14.468  0.00  0.00    +0.028 C 
ATOM     37  C   LIG    1       32.189 -29.964  13.538  0.00  0.00    +0.031 C 
ATOM     38  C   LIG    1       31.866 -28.189  15.239  0.00  0.00    +0.031 C 
ENDBRANCH  29  36
ENDBRANCH  28  32
BRANCH  28  39
ATOM     39  C   LIG    1       25.291 -28.634  13.416  0.00  0.00    -0.011 C 
ATOM     40  C   LIG    1       25.135 -29.476  14.707  0.00  0.00    +0.013 C 
ATOM     41  C   LIG    1       23.910 -28.557  12.735  0.00  0.00    +0.013 C 
ATOM     42  C   LIG    1       25.666 -27.203  13.870  0.00  0.00    +0.013 C 
ENDBRANCH  28  39
ENDBRANCH   1  28
TORSDOF 10
ENDMDL
MODEL 2
REMARK VINA RESULT:      -6.5      3.530      6.467
REMARK  Name = *****
REMARK                            x       y       z     vdW  Elec       q    Type
REMARK                         _______ _______ _______ _____ _____    ______ ____
ROOT
ATOM      1  C   LIG    1       22.659 -30.852  10.909  0.00  0.00    +0.237 C 
ATOM      2  N   LIG    1       23.959 -30.516  11.256  0.00  0.00    -0.288 N 
ATOM      3  C   LIG    1       24.708 -29.511  10.482  0.00  0.00    +0.166 C 
ATOM      4  C   LIG    1       26.048 -29.405  11.207  0.00  0.00    +0.029 C 
ATOM      5  C   LIG    1       26.299 -28.791  12.582  0.00  0.00    -0.025 C 
ATOM      6  C   LIG    1       27.725 -28.517  13.004  0.00  0.00    +0.011 C 
ATOM      7  C   LIG    1       25.308 -27.818  13.163  0.00  0.00    +0.011 C 
ATOM      8  C   LIG    1       25.955 -30.259  12.434  0.00  0.00    +0.018 C 
ATOM      9  C   LIG    1       24.576 -30.806  12.535  0.00  0.00    +0.113 C 
ATOM     10  O   LIG    1       22.185 -30.520   9.816  0.00  0.00    -0.274 OA
ENDROOT
BRANCH   3  11
ATOM     11  C   LIG    1       24.969 -29.958   9.031  0.00  0.00    +0.234 C 
ATOM     12  N   LIG    1       24.116 -29.404   8.082  0.00  0.00    -0.304 N 
ATOM     13  H   LIG    1       23.496 -28.660   8.386  0.00  0.00    +0.149 HD
ATOM     14  O   LIG    1       25.939 -30.658   8.753  0.00  0.00    -0.274 OA
BRANCH  12  15
ATOM     15  C   LIG    1       24.303 -29.572   6.630  0.00  0.00    +0.149 C 
BRANCH  15  16
ATOM     16  C   LIG    1       24.318 -31.043   6.172  0.00  0.00    +0.237 C 
ATOM     17  O   LIG    1       23.432 -31.878   6.232  0.00  0.00    -0.285 OA
BRANCH  16  18
ATOM     18  C   LIG    1       25.560 -31.483   5.428  0.00  0.00    +0.279 C 
ATOM     19  O   LIG    1       25.590 -31.532   4.235  0.00  0.00    -0.267 OA
ATOM     20  N   LIG    1       26.605 -31.774   6.274  0.00  0.00    -0.323 N 
ATOM     21  H   LIG    1       27.522 -31.874   5.873  0.00  0.00    +0.145 HD
ATOM     22  H   LIG    1       26.524 -31.524   7.252  0.00  0.00    +0.145 HD
ENDBRANCH  16  18
ENDBRANCH  15  16
BRANCH  15  23
ATOM     23  C   LIG    1       25.418 -28.697   6.032  0.00  0.00    +0.034 C 
BRANCH  23  24
ATOM     24  C   LIG    1       25.371 -27.257   6.513  0.00  0.00    -0.009 C 
ATOM     25  C   LIG    1       26.388 -26.259   5.897  0.00  0.00    +0.004 C 
ATOM     26  C   LIG    1       25.281 -25.194   6.005  0.00  0.00    +0.000 C 
ATOM     27  C   LIG    1       24.263 -26.352   5.917  0.00  0.00    +0.004 C 
ENDBRANCH  23  24
ENDBRANCH  15  23
ENDBRANCH  12  15
ENDBRANCH   3  11
BRANCH   1  28
ATOM     28  C   LIG    1       21.762 -31.541  11.996  0.00  0.00    +0.166 C 
BRANCH  28  32
ATOM     29  N   LIG    1       19.503 -28.844  13.239  0.00  0.00    -0.295 N 
ATOM     30  H   LIG    1       18.799 -29.106  12.573  0.00  0.00    +0.151 HD
ATOM     31  C   LIG    1       20.694 -29.556  13.180  0.00  0.00    +0.301 C 
ATOM     32  N   LIG    1       20.620 -30.621  12.289  0.00  0.00    -0.288 N 
ATOM     33  H   LIG    1       19.840 -30.664  11.657  0.00  0.00    +0.151 HD
ATOM     34  O   LIG    1       21.668 -29.304  13.866  0.00  0.00    -0.253 OA
BRANCH  29  36
ATOM     35  C   LIG    1       19.537 -26.372  13.468  0.00  0.00    +0.031 C 
ATOM     36  C   LIG    1       19.169 -27.711  14.158  0.00  0.00    +0.028 C 
ATOM     37  C   LIG    1       17.668 -27.660  14.487  0.00  0.00    +0.031 C 
ATOM     38  C   LIG    1       19.930 -27.771  15.496  0.00  0.00    +0.031 C 
ENDBRANCH  29  36
ENDBRANCH  28  32
BRANCH  28  39
ATOM     39  C   LIG    1       21.300 -33.006  11.608  0.00  0.00    -0.011 C 
ATOM     40  C   LIG    1       22.433 -33.753  10.859  0.00  0.00    +0.013 C 
ATOM     41  C   LIG    1       20.037 -33.062  10.725  0.00  0.00    +0.013 C 
ATOM     42  C   LIG    1       21.009 -33.825  12.888  0.00  0.00    +0.013 C 
ENDBRANCH  28  39
ENDBRANCH   1  28
TORSDOF 10
ENDMDL
MODEL 3
REMARK VINA RESULT:      -6.1      5.443      8.714
REMARK  Name = *****
REMARK                            x       y       z     vdW  Elec       q    Type
REMARK                         _______ _______ _______ _____ _____    ______ ____
ROOT
ATOM      1  C   LIG    1       21.955 -31.076  12.087  0.00  0.00    +0.237 C 
ATOM      2  N   LIG    1       20.742 -31.730  12.253  0.00  0.00    -0.288 N 
ATOM      3  C   LIG    1       19.490 -30.967  12.392  0.00  0.00    +0.166 C 
ATOM      4  C   LIG    1       18.409 -32.039  12.503  0.00  0.00    +0.029 C 
ATOM      5  C   LIG    1       17.926 -32.970  11.394  0.00  0.00    -0.025 C 
ATOM      6  C   LIG    1       16.656 -33.761  11.613  0.00  0.00    +0.011 C 
ATOM      7  C   LIG    1       18.158 -32.605   9.952  0.00  0.00    +0.011 C 
ATOM      8  C   LIG    1       19.079 -33.363  12.294  0.00  0.00    +0.018 C 
ATOM      9  C   LIG    1       20.510 -33.131  11.964  0.00  0.00    +0.113 C 
ATOM     10  O   LIG    1       22.060 -29.864  12.302  0.00  0.00    -0.274 OA
ENDROOT
BRANCH   3  11
ATOM     11  C   LIG    1       19.461 -30.107  13.671  0.00  0.00    +0.234 C 
ATOM     12  N   LIG    1       19.470 -28.733  13.457  0.00  0.00    -0.304 N 
ATOM     13  H   LIG    1       19.352 -28.406  12.503  0.00  0.00    +0.149 HD
ATOM     14  O   LIG    1       19.323 -30.628  14.775  0.00  0.00    -0.274 OA
BRANCH  12  15
ATOM     15  C   LIG    1       19.279 -27.746  14.535  0.00  0.00    +0.149 C 
BRANCH  15  16
ATOM     16  C   LIG    1       18.210 -26.681  14.220  0.00  0.00    +0.237 C 
ATOM     17  O   LIG    1       18.318 -25.642  13.592  0.00  0.00    -0.285 OA
BRANCH  16  18
ATOM     18  C   LIG    1       16.798 -27.031  14.637  0.00  0.00    +0.279 C 
ATOM     19  O   LIG    1       16.284 -28.057  14.306  0.00  0.00    -0.267 OA
ATOM     20  N   LIG    1       16.231 -26.064  15.435  0.00  0.00    -0.323 N 
ATOM     21  H   LIG    1       15.384 -26.295  15.926  0.00  0.00    +0.145 HD
ATOM     22  H   LIG    1       16.820 -25.325  15.799  0.00  0.00    +0.145 HD
ENDBRANCH  16  18
ENDBRANCH  15  16
BRANCH  15  23
ATOM     23  C   LIG    1       20.588 -27.194  15.125  0.00  0.00    +0.034 C 
BRANCH  23  24
ATOM     24  C   LIG    1       21.794 -27.437  14.234  0.00  0.00    -0.009 C 
ATOM     25  C   LIG    1       22.193 -26.313  13.240  0.00  0.00    +0.004 C 
ATOM     26  C   LIG    1       23.656 -26.723  13.494  0.00  0.00    +0.000 C 
ATOM     27  C   LIG    1       23.192 -27.240  14.873  0.00  0.00    +0.004 C 
ENDBRANCH  23  24
ENDBRANCH  15  23
ENDBRANCH  12  15
ENDBRANCH   3  11
BRANCH   1  28
ATOM     28  C   LIG    1       23.152 -31.891  11.485  0.00  0.00    +0.166 C 
BRANCH  28  32
ATOM     29  N   LIG    1       24.275 -30.853   8.081  0.00  0.00    -0.295 N 
ATOM     30  H   LIG    1       24.238 -29.886   8.347  0.00  0.00    +0.151 HD
ATOM     31  C   LIG    1       23.870 -31.767   9.044  0.00  0.00    +0.301 C 
ATOM     32  N   LIG    1       23.631 -31.159  10.272  0.00  0.00    -0.288 N 
ATOM     33  H   LIG    1       23.579 -30.155  10.307  0.00  0.00    +0.151 HD
ATOM     34  O   LIG    1       23.782 -32.965   8.847  0.00  0.00    -0.253 OA
BRANCH  29  36
ATOM     35  C   LIG    1       23.650 -32.016   5.978  0.00  0.00    +0.031 C 
ATOM     36  C   LIG    1       24.724 -31.149   6.684  0.00  0.00    +0.028 C 
ATOM     37  C   LIG    1       24.898 -29.866   5.852  0.00  0.00    +0.031 C 
ATOM     38  C   LIG    1       26.058 -31.916   6.625  0.00  0.00    +0.031 C 
ENDBRANCH  29  36
ENDBRANCH  28  32
BRANCH  28  39
ATOM     39  C   LIG    1       24.306 -32.195  12.528  0.00  0.00    -0.011 C 
ATOM     40  C   LIG    1       25.048 -33.502  12.151  0.00  0.00    +0.013 C 
ATOM     41  C   LIG    1       23.825 -32.331  13.987  0.00  0.00    +0.013 C 
ATOM     42  C   LIG    1       25.363 -31.066  12.490  0.00  0.00    +0.013 C 
ENDBRANCH  28  39
ENDBRANCH   1  28
TORSDOF 10
ENDMDL
MODEL 4
REMARK VINA RESULT:      -6.0      4.357      8.320
REMARK  Name = *****
REMARK                            x       y       z     vdW  Elec       q    Type
REMARK                         _______ _______ _______ _____ _____    ______ ____
ROOT
ATOM      1  C   LIG    1       22.777 -30.452  10.542  0.00  0.00    +0.237 C 
ATOM      2  N   LIG    1       21.647 -31.178  10.890  0.00  0.00    -0.288 N 
ATOM      3  C   LIG    1       20.561 -30.554  11.665  0.00  0.00    +0.166 C 
ATOM      4  C   LIG    1       19.511 -31.656  11.790  0.00  0.00    +0.029 C 
ATOM      5  C   LIG    1       18.633 -32.214  10.674  0.00  0.00    -0.025 C 
ATOM      6  C   LIG    1       17.458 -33.090  11.045  0.00  0.00    +0.011 C 
ATOM      7  C   LIG    1       18.401 -31.406   9.424  0.00  0.00    +0.011 C 
ATOM      8  C   LIG    1       19.990 -32.816  10.973  0.00  0.00    +0.018 C 
ATOM      9  C   LIG    1       21.245 -32.428  10.276  0.00  0.00    +0.113 C 
ATOM     10  O   LIG    1       23.023 -29.364  11.074  0.00  0.00    -0.274 OA
ENDROOT
BRANCH   3  11
ATOM     11  C   LIG    1       21.009 -30.140  13.080  0.00  0.00    +0.234 C 
ATOM     12  N   LIG    1       20.996 -28.770  13.324  0.00  0.00    -0.304 N 
ATOM     13  H   LIG    1       20.569 -28.173  12.623  0.00  0.00    +0.149 HD
ATOM     14  O   LIG    1       21.240 -30.987  13.940  0.00  0.00    -0.274 OA
BRANCH  12  15
ATOM     15  C   LIG    1       21.227 -28.184  14.657  0.00  0.00    +0.149 C 
BRANCH  15  16
ATOM     16  C   LIG    1       20.285 -27.012  14.991  0.00  0.00    +0.237 C 
ATOM     17  O   LIG    1       20.544 -25.935  15.500  0.00  0.00    -0.285 OA
BRANCH  16  18
ATOM     18  C   LIG    1       18.860 -27.162  14.506  0.00  0.00    +0.279 C 
ATOM     19  O   LIG    1       18.345 -28.234  14.397  0.00  0.00    -0.267 OA
ATOM     20  N   LIG    1       18.262 -25.949  14.248  0.00  0.00    -0.323 N 
ATOM     21  H   LIG    1       17.263 -25.934  14.122  0.00  0.00    +0.145 HD
ATOM     22  H   LIG    1       18.729 -25.102  14.547  0.00  0.00    +0.145 HD
ENDBRANCH  16  18
ENDBRANCH  15  16
BRANCH  15  23
ATOM     23  C   LIG    1       22.709 -27.941  14.991  0.00  0.00    +0.034 C 
BRANCH  23  24
ATOM     24  C   LIG    1       23.476 -27.283  13.858  0.00  0.00    -0.009 C 
ATOM     25  C   LIG    1       24.033 -25.854  14.101  0.00  0.00    +0.004 C 
ATOM     26  C   LIG    1       25.236 -26.265  13.232  0.00  0.00    +0.000 C 
ATOM     27  C   LIG    1       24.949 -27.721  13.657  0.00  0.00    +0.004 C 
ENDBRANCH  23  24
ENDBRANCH  15  23
ENDBRANCH  12  15
ENDBRANCH   3  11
BRANCH   1  28
ATOM     28  C   LIG    1       23.656 -30.982   9.356  0.00  0.00    +0.166 C 
BRANCH  28  32
ATOM     29  N   LIG    1       25.107 -28.250   7.270  0.00  0.00    -0.295 N 
ATOM     30  H   LIG    1       25.572 -27.864   8.073  0.00  0.00    +0.151 HD
ATOM     31  C   LIG    1       24.306 -29.359   7.505  0.00  0.00    +0.301 C 
ATOM     32  N   LIG    1       24.426 -29.822   8.810  0.00  0.00    -0.288 N 
ATOM     33  H   LIG    1       24.892 -29.240   9.485  0.00  0.00    +0.151 HD
ATOM     34  O   LIG    1       23.618 -29.889   6.652  0.00  0.00    -0.253 OA
BRANCH  29  36
ATOM     35  C   LIG    1       24.119 -26.619   5.681  0.00  0.00    +0.031 C 
ATOM     36  C   LIG    1       25.326 -27.549   5.966  0.00  0.00    +0.028 C 
ATOM     37  C   LIG    1       26.587 -26.669   5.990  0.00  0.00    +0.031 C 
ATOM     38  C   LIG    1       25.464 -28.514   4.774  0.00  0.00    +0.031 C 
ENDBRANCH  29  36
ENDBRANCH  28  32
BRANCH  28  39
ATOM     39  C   LIG    1       24.574 -32.215   9.744  0.00  0.00    -0.011 C 
ATOM     40  C   LIG    1       24.151 -33.477   8.952  0.00  0.00    +0.013 C 
ATOM     41  C   LIG    1       24.559 -32.573  11.244  0.00  0.00    +0.013 C 
ATOM     42  C   LIG    1       26.042 -31.924   9.350  0.00  0.00    +0.013 C 
ENDBRANCH  28  39
ENDBRANCH   1  28
TORSDOF 10
ENDMDL
MODEL 5
REMARK VINA RESULT:      -5.5      2.119      7.720
REMARK  Name = *****
REMARK                            x       y       z     vdW  Elec       q    Type
REMARK                         _______ _______ _______ _____ _____    ______ ____
ROOT
ATOM      1  C   LIG    1       25.323 -30.726   9.481  0.00  0.00    +0.237 C 
ATOM      2  N   LIG    1       24.354 -31.266  10.315  0.00  0.00    -0.288 N 
ATOM      3  C   LIG    1       23.955 -30.573  11.552  0.00  0.00    +0.166 C 
ATOM      4  C   LIG    1       22.856 -31.456  12.137  0.00  0.00    +0.029 C 
ATOM      5  C   LIG    1       21.447 -31.653  11.583  0.00  0.00    -0.025 C 
ATOM      6  C   LIG    1       20.415 -32.333  12.453  0.00  0.00    +0.011 C 
ATOM      7  C   LIG    1       20.858 -30.631  10.648  0.00  0.00    +0.011 C 
ATOM      8  C   LIG    1       22.590 -32.545  11.143  0.00  0.00    +0.018 C 
ATOM      9  C   LIG    1       23.417 -32.302   9.931  0.00  0.00    +0.113 C 
ATOM     10  O   LIG    1       26.050 -29.802   9.865  0.00  0.00    -0.274 OA
ENDROOT
BRANCH   3  11
ATOM     11  C   LIG    1       25.105 -30.479  12.573  0.00  0.00    +0.234 C 
ATOM     12  N   LIG    1       25.774 -29.259  12.596  0.00  0.00    -0.304 N 
ATOM     13  H   LIG    1       25.377 -28.496  12.057  0.00  0.00    +0.149 HD
ATOM     14  O   LIG    1       25.313 -31.389  13.372  0.00  0.00    -0.274 OA
BRANCH  12  15
ATOM     15  C   LIG    1       26.788 -28.912  13.608  0.00  0.00    +0.149 C 
BRANCH  15  16
ATOM     16  C   LIG    1       28.010 -29.850  13.610  0.00  0.00    +0.237 C 
ATOM     17  O   LIG    1       28.226 -30.833  14.297  0.00  0.00    -0.285 OA
BRANCH  16  18
ATOM     18  C   LIG    1       29.030 -29.595  12.522  0.00  0.00    +0.279 C 
ATOM     19  O   LIG    1       28.735 -29.634  11.366  0.00  0.00    -0.267 OA
ATOM     20  N   LIG    1       30.275 -29.299  13.028  0.00  0.00    -0.323 N 
ATOM     21  H   LIG    1       30.961 -28.916  12.398  0.00  0.00    +0.145 HD
ATOM     22  H   LIG    1       30.368 -29.116  14.019  0.00  0.00    +0.145 HD
ENDBRANCH  16  18
ENDBRANCH  15  16
BRANCH  15  23
ATOM     23  C   LIG    1       26.210 -28.598  14.998  0.00  0.00    +0.034 C 
BRANCH  23  24
ATOM     24  C   LIG    1       25.641 -27.194  15.106  0.00  0.00    -0.009 C 
ATOM     25  C   LIG    1       26.075 -26.158  14.034  0.00  0.00    +0.004 C 
ATOM     26  C   LIG    1       24.653 -25.576  14.141  0.00  0.00    +0.000 C 
ATOM     27  C   LIG    1       24.195 -26.979  14.592  0.00  0.00    +0.004 C 
ENDBRANCH  23  24
ENDBRANCH  15  23
ENDBRANCH  12  15
ENDBRANCH   3  11
BRANCH   1  28
ATOM     28  C   LIG    1       25.375 -31.224   7.995  0.00  0.00    +0.166 C 
BRANCH  28  32
ATOM     29  N   LIG    1       25.963 -28.032   6.155  0.00  0.00    -0.295 N 
ATOM     30  H   LIG    1       26.908 -28.305   5.953  0.00  0.00    +0.151 HD
ATOM     31  C   LIG    1       25.227 -28.914   6.935  0.00  0.00    +0.301 C 
ATOM     32  N   LIG    1       25.910 -30.103   7.162  0.00  0.00    -0.288 N 
ATOM     33  H   LIG    1       26.888 -30.146   6.932  0.00  0.00    +0.151 HD
ATOM     34  O   LIG    1       24.097 -28.688   7.330  0.00  0.00    -0.253 OA
BRANCH  29  36
ATOM     35  C   LIG    1       25.880 -26.626   4.111  0.00  0.00    +0.031 C 
ATOM     36  C   LIG    1       25.516 -26.709   5.615  0.00  0.00    +0.028 C 
ATOM     37  C   LIG    1       23.993 -26.526   5.730  0.00  0.00    +0.031 C 
ATOM     38  C   LIG    1       26.176 -25.511   6.323  0.00  0.00    +0.031 C 
ENDBRANCH  29  36
ENDBRANCH  28  32
BRANCH  28  39
ATOM     39  C   LIG    1       26.173 -32.580   7.805  0.00  0.00    -0.011 C 
ATOM     40  C   LIG    1       25.201 -33.740   7.471  0.00  0.00    +0.013 C 
ATOM     41  C   LIG    1       27.009 -33.005   9.029  0.00  0.00    +0.013 C 
ATOM     42  C   LIG    1       27.139 -32.460   6.602  0.00  0.00    +0.013 C 
ENDBRANCH  28  39
ENDBRANCH   1  28
TORSDOF 10
ENDMDL
MODEL 6
REMARK VINA RESULT:      -5.4      1.912      4.157
REMARK  Name = *****
REMARK                            x       y       z     vdW  Elec       q    Type
REMARK                         _______ _______ _______ _____ _____    ______ ____
ROOT
ATOM      1  C   LIG    1       26.183 -28.470  11.153  0.00  0.00    +0.237 C 
ATOM      2  N   LIG    1       25.614 -29.601  10.586  0.00  0.00    -0.288 N 
ATOM      3  C   LIG    1       25.801 -29.900   9.155  0.00  0.00    +0.166 C 
ATOM      4  C   LIG    1       25.070 -31.225   8.952  0.00  0.00    +0.029 C 
ATOM      5  C   LIG    1       25.495 -32.594   9.475  0.00  0.00    -0.025 C 
ATOM      6  C   LIG    1       24.805 -33.825   8.932  0.00  0.00    +0.011 C 
ATOM      7  C   LIG    1       26.929 -32.839   9.863  0.00  0.00    +0.011 C 
ATOM      8  C   LIG    1       24.609 -31.685  10.301  0.00  0.00    +0.018 C 
ATOM      9  C   LIG    1       25.115 -30.739  11.331  0.00  0.00    +0.113 C 
ATOM     10  O   LIG    1       26.638 -27.564  10.447  0.00  0.00    -0.274 OA
ENDROOT
BRANCH   3  11
ATOM     11  C   LIG    1       25.157 -28.839   8.242  0.00  0.00    +0.234 C 
ATOM     12  N   LIG    1       26.050 -27.954   7.647  0.00  0.00    -0.304 N 
ATOM     13  H   LIG    1       27.041 -28.154   7.740  0.00  0.00    +0.149 HD
ATOM     14  O   LIG    1       23.956 -28.875   7.987  0.00  0.00    -0.274 OA
BRANCH  12  15
ATOM     15  C   LIG    1       25.655 -26.978   6.615  0.00  0.00    +0.149 C 
BRANCH  15  16
ATOM     16  C   LIG    1       25.677 -27.546   5.183  0.00  0.00    +0.237 C 
ATOM     17  O   LIG    1       26.219 -27.102   4.186  0.00  0.00    -0.285 OA
BRANCH  16  18
ATOM     18  C   LIG    1       25.045 -28.910   5.013  0.00  0.00    +0.279 C 
ATOM     19  O   LIG    1       25.702 -29.908   5.005  0.00  0.00    -0.267 OA
ATOM     20  N   LIG    1       23.675 -28.845   4.903  0.00  0.00    -0.323 N 
ATOM     21  H   LIG    1       23.154 -29.702   4.993  0.00  0.00    +0.145 HD
ATOM     22  H   LIG    1       23.211 -27.969   5.104  0.00  0.00    +0.145 HD
ENDBRANCH  16  18
ENDBRANCH  15  16
BRANCH  15  23
ATOM     23  C   LIG    1       26.307 -25.594   6.773  0.00  0.00    +0.034 C 
BRANCH  23  24
ATOM     24  C   LIG    1       25.301 -24.456   6.771  0.00  0.00    -0.009 C 
ATOM     25  C   LIG    1       25.808 -23.048   7.186  0.00  0.00    +0.004 C 
ATOM     26  C   LIG    1       24.824 -22.480   6.146  0.00  0.00    +0.000 C 
ATOM     27  C   LIG    1       24.955 -23.825   5.399  0.00  0.00    +0.004 C 
ENDBRANCH  23  24
ENDBRANCH  15  23
ENDBRANCH  12  15
ENDBRANCH   3  11
BRANCH   1  28
ATOM     28  C   LIG    1       26.360 -28.439  12.711  0.00  0.00    +0.166 C 
BRANCH  28  32
ATOM     29  N   LIG    1       22.888 -28.454  14.077  0.00  0.00    -0.295 N 
ATOM     30  H   LIG    1       22.907 -29.456  14.154  0.00  0.00    +0.151 HD
ATOM     31  C   LIG    1       24.016 -27.864  13.524  0.00  0.00    +0.301 C 
ATOM     32  N   LIG    1       25.040 -28.784  13.323  0.00  0.00    -0.288 N 
ATOM     33  H   LIG    1       24.826 -29.763  13.397  0.00  0.00    +0.151 HD
ATOM     34  O   LIG    1       24.112 -26.673  13.292  0.00  0.00    -0.253 OA
BRANCH  29  36
ATOM     35  C   LIG    1       22.018 -26.584  15.458  0.00  0.00    +0.031 C 
ATOM     36  C   LIG    1       21.638 -27.769  14.534  0.00  0.00    +0.028 C 
ATOM     37  C   LIG    1       20.834 -27.193  13.356  0.00  0.00    +0.031 C 
ATOM     38  C   LIG    1       20.694 -28.693  15.324  0.00  0.00    +0.031 C 
ENDBRANCH  29  36
ENDBRANCH  28  32
BRANCH  28  39
ATOM     39  C   LIG    1       27.549 -29.346  13.237  0.00  0.00    -0.011 C 
ATOM     40  C   LIG    1       28.550 -29.646  12.094  0.00  0.00    +0.013 C 
ATOM     41  C   LIG    1       27.102 -30.695  13.837  0.00  0.00    +0.013 C 
ATOM     42  C   LIG    1       28.344 -28.593  14.329  0.00  0.00    +0.013 C 
ENDBRANCH  28  39
ENDBRANCH   1  28
TORSDOF 10
ENDMDL
MODEL 7
REMARK VINA RESULT:      -5.3      2.676      5.175
REMARK  Name = *****
REMARK                            x       y       z     vdW  Elec       q    Type
REMARK                         _______ _______ _______ _____ _____    ______ ____
ROOT
ATOM      1  C   LIG    1       25.758 -28.436  11.661  0.00  0.00    +0.237 C 
ATOM      2  N   LIG    1       25.026 -29.584  11.394  0.00  0.00    -0.288 N 
ATOM      3  C   LIG    1       25.579 -30.646  10.536  0.00  0.00    +0.166 C 
ATOM      4  C   LIG    1       24.500 -31.726  10.537  0.00  0.00    +0.029 C 
ATOM      5  C   LIG    1       24.109 -32.628  11.704  0.00  0.00    -0.025 C 
ATOM      6  C   LIG    1       23.226 -33.825  11.432  0.00  0.00    +0.011 C 
ATOM      7  C   LIG    1       25.071 -32.845  12.842  0.00  0.00    +0.011 C 
ATOM      8  C   LIG    1       23.437 -31.287  11.497  0.00  0.00    +0.018 C 
ATOM      9  C   LIG    1       23.874 -30.026  12.153  0.00  0.00    +0.113 C 
ATOM     10  O   LIG    1       26.765 -28.155  11.002  0.00  0.00    -0.274 OA
ENDROOT
BRANCH   3  11
ATOM     11  C   LIG    1       25.803 -30.177   9.086  0.00  0.00    +0.234 C 
ATOM     12  N   LIG    1       24.703 -29.569   8.488  0.00  0.00    -0.304 N 
ATOM     13  H   LIG    1       23.906 -29.355   9.079  0.00  0.00    +0.149 HD
ATOM     14  O   LIG    1       26.914 -30.244   8.567  0.00  0.00    -0.274 OA
BRANCH  12  15
ATOM     15  C   LIG    1       24.762 -28.905   7.173  0.00  0.00    +0.149 C 
BRANCH  15  16
ATOM     16  C   LIG    1       24.983 -29.877   5.997  0.00  0.00    +0.237 C 
ATOM     17  O   LIG    1       25.590 -29.701   4.955  0.00  0.00    -0.285 OA
BRANCH  16  18
ATOM     18  C   LIG    1       24.487 -31.290   6.216  0.00  0.00    +0.279 C 
ATOM     19  O   LIG    1       23.321 -31.540   6.282  0.00  0.00    -0.267 OA
ATOM     20  N   LIG    1       25.515 -32.201   6.296  0.00  0.00    -0.323 N 
ATOM     21  H   LIG    1       25.283 -33.179   6.235  0.00  0.00    +0.145 HD
ATOM     22  H   LIG    1       26.450 -31.905   6.047  0.00  0.00    +0.145 HD
ENDBRANCH  16  18
ENDBRANCH  15  16
BRANCH  15  23
ATOM     23  C   LIG    1       25.638 -27.642   7.142  0.00  0.00    +0.034 C 
BRANCH  23  24
ATOM     24  C   LIG    1       24.951 -26.454   6.491  0.00  0.00    -0.009 C 
ATOM     25  C   LIG    1       25.532 -25.042   6.776  0.00  0.00    +0.004 C 
ATOM     26  C   LIG    1       25.140 -24.681   5.331  0.00  0.00    +0.000 C 
ATOM     27  C   LIG    1       25.274 -26.183   5.000  0.00  0.00    +0.004 C 
ENDBRANCH  23  24
ENDBRANCH  15  23
ENDBRANCH  12  15
ENDBRANCH   3  11
BRANCH   1  28
ATOM     28  C   LIG    1       25.354 -27.581  12.913  0.00  0.00    +0.166 C 
BRANCH  28  32
ATOM     29  N   LIG    1       21.741 -27.797  13.816  0.00  0.00    -0.295 N 
ATOM     30  H   LIG    1       21.790 -28.800  13.835  0.00  0.00    +0.151 HD
ATOM     31  C   LIG    1       22.905 -27.136  13.451  0.00  0.00    +0.301 C 
ATOM     32  N   LIG    1       23.982 -28.007  13.327  0.00  0.00    -0.288 N 
ATOM     33  H   LIG    1       23.800 -28.996  13.314  0.00  0.00    +0.151 HD
ATOM     34  O   LIG    1       22.982 -25.930  13.305  0.00  0.00    -0.253 OA
BRANCH  29  36
ATOM     35  C   LIG    1       19.958 -26.294  12.966  0.00  0.00    +0.031 C 
ATOM     36  C   LIG    1       20.416 -27.184  14.149  0.00  0.00    +0.028 C 
ATOM     37  C   LIG    1       19.329 -28.248  14.372  0.00  0.00    +0.031 C 
ATOM     38  C   LIG    1       20.457 -26.300  15.410  0.00  0.00    +0.031 C 
ENDBRANCH  29  36
ENDBRANCH  28  32
BRANCH  28  39
ATOM     39  C   LIG    1       26.410 -27.639  14.093  0.00  0.00    -0.011 C 
ATOM     40  C   LIG    1       27.185 -26.302  14.196  0.00  0.00    +0.013 C 
ATOM     41  C   LIG    1       27.446 -28.774  13.965  0.00  0.00    +0.013 C 
ATOM     42  C   LIG    1       25.681 -27.827  15.445  0.00  0.00    +0.013 C 
ENDBRANCH  28  39
ENDBRANCH   1  28
TORSDOF 10
ENDMDL
MODEL 8
REMARK VINA RESULT:      -5.1      2.170      3.102
REMARK  Name = *****
REMARK                            x       y       z     vdW  Elec       q    Type
REMARK                         _______ _______ _______ _____ _____    ______ ____
ROOT
ATOM      1  C   LIG    1       24.019 -30.368   9.615  0.00  0.00    +0.237 C 
ATOM      2  N   LIG    1       24.414 -31.138   8.530  0.00  0.00    -0.288 N 
ATOM      3  C   LIG    1       25.216 -30.550   7.443  0.00  0.00    +0.166 C 
ATOM      4  C   LIG    1       25.470 -31.718   6.493  0.00  0.00    +0.029 C 
ATOM      5  C   LIG    1       26.370 -32.924   6.745  0.00  0.00    -0.025 C 
ATOM      6  C   LIG    1       26.719 -33.824   5.581  0.00  0.00    +0.011 C 
ATOM      7  C   LIG    1       27.456 -32.848   7.785  0.00  0.00    +0.011 C 
ATOM      8  C   LIG    1       24.909 -32.945   7.143  0.00  0.00    +0.018 C 
ATOM      9  C   LIG    1       24.410 -32.587   8.497  0.00  0.00    +0.113 C 
ATOM     10  O   LIG    1       24.105 -29.136   9.586  0.00  0.00    -0.274 OA
ENDROOT
BRANCH   3  11
ATOM     11  C   LIG    1       24.457 -29.450   6.677  0.00  0.00    +0.234 C 
ATOM     12  N   LIG    1       25.002 -28.174   6.786  0.00  0.00    -0.304 N 
ATOM     13  H   LIG    1       25.911 -28.089   7.228  0.00  0.00    +0.149 HD
ATOM     14  O   LIG    1       23.514 -29.732   5.942  0.00  0.00    -0.274 OA
BRANCH  12  15
ATOM     15  C   LIG    1       24.525 -27.022   5.999  0.00  0.00    +0.149 C 
BRANCH  15  16
ATOM     16  C   LIG    1       25.522 -26.551   4.922  0.00  0.00    +0.237 C 
ATOM     17  O   LIG    1       25.322 -25.873   3.930  0.00  0.00    -0.285 OA
BRANCH  16  18
ATOM     18  C   LIG    1       26.976 -26.866   5.198  0.00  0.00    +0.279 C 
ATOM     19  O   LIG    1       27.560 -26.374   6.116  0.00  0.00    -0.267 OA
ATOM     20  N   LIG    1       27.496 -27.774   4.304  0.00  0.00    -0.323 N 
ATOM     21  H   LIG    1       28.382 -28.198   4.524  0.00  0.00    +0.145 HD
ATOM     22  H   LIG    1       26.864 -28.260   3.680  0.00  0.00    +0.145 HD
ENDBRANCH  16  18
ENDBRANCH  15  16
BRANCH  15  23
ATOM     23  C   LIG    1       23.903 -25.896   6.842  0.00  0.00    +0.034 C 
BRANCH  23  24
ATOM     24  C   LIG    1       24.308 -24.509   6.378  0.00  0.00    -0.009 C 
ATOM     25  C   LIG    1       23.412 -23.316   6.808  0.00  0.00    +0.004 C 
ATOM     26  C   LIG    1       24.705 -22.484   6.896  0.00  0.00    +0.000 C 
ATOM     27  C   LIG    1       25.450 -23.811   7.158  0.00  0.00    +0.004 C 
ENDBRANCH  23  24
ENDBRANCH  15  23
ENDBRANCH  12  15
ENDBRANCH   3  11
BRANCH   1  28
ATOM     28  C   LIG    1       23.596 -31.113  10.929  0.00  0.00    +0.166 C 
BRANCH  28  32
ATOM     29  N   LIG    1       25.997 -29.785  13.458  0.00  0.00    -0.295 N 
ATOM     30  H   LIG    1       25.294 -29.168  13.823  0.00  0.00    +0.151 HD
ATOM     31  C   LIG    1       25.625 -30.553  12.363  0.00  0.00    +0.301 C 
ATOM     32  N   LIG    1       24.271 -30.427  12.074  0.00  0.00    -0.288 N 
ATOM     33  H   LIG    1       23.752 -29.690  12.520  0.00  0.00    +0.151 HD
ATOM     34  O   LIG    1       26.387 -31.288  11.761  0.00  0.00    -0.253 OA
BRANCH  29  36
ATOM     35  C   LIG    1       27.573 -31.096  14.858  0.00  0.00    +0.031 C 
ATOM     36  C   LIG    1       27.335 -29.750  14.128  0.00  0.00    +0.028 C 
ATOM     37  C   LIG    1       28.480 -29.568  13.117  0.00  0.00    +0.031 C 
ATOM     38  C   LIG    1       27.462 -28.624  15.170  0.00  0.00    +0.031 C 
ENDBRANCH  29  36
ENDBRANCH  28  32
BRANCH  28  39
ATOM     39  C   LIG    1       22.027 -31.240  11.113  0.00  0.00    -0.011 C 
ATOM     40  C   LIG    1       21.390 -31.935   9.884  0.00  0.00    +0.013 C 
ATOM     41  C   LIG    1       21.300 -29.897  11.324  0.00  0.00    +0.013 C 
ATOM     42  C   LIG    1       21.710 -32.136  12.335  0.00  0.00    +0.013 C 
ENDBRANCH  28  39
ENDBRANCH   1  28
TORSDOF 10
ENDMDL
MODEL 9
REMARK VINA RESULT:      -5.0      2.448      8.062
REMARK  Name = *****
REMARK                            x       y       z     vdW  Elec       q    Type
REMARK                         _______ _______ _______ _____ _____    ______ ____
ROOT
ATOM      1  C   LIG    1       25.203 -30.574   8.837  0.00  0.00    +0.237 C 
ATOM      2  N   LIG    1       24.315 -31.362   9.555  0.00  0.00    -0.288 N 
ATOM      3  C   LIG    1       24.102 -31.135  10.995  0.00  0.00    +0.166 C 
ATOM      4  C   LIG    1       23.038 -32.160  11.382  0.00  0.00    +0.029 C 
ATOM      5  C   LIG    1       21.566 -32.146  10.982  0.00  0.00    -0.025 C 
ATOM      6  C   LIG    1       20.612 -33.078  11.694  0.00  0.00    +0.011 C 
ATOM      7  C   LIG    1       20.920 -30.862  10.534  0.00  0.00    +0.011 C 
ATOM      8  C   LIG    1       22.602 -32.839  10.121  0.00  0.00    +0.018 C 
ATOM      9  C   LIG    1       23.288 -32.199   8.967  0.00  0.00    +0.113 C 
ATOM     10  O   LIG    1       26.015 -29.843   9.414  0.00  0.00    -0.274 OA
ENDROOT
BRANCH   3  11
ATOM     11  C   LIG    1       25.369 -31.404  11.829  0.00  0.00    +0.234 C 
ATOM     12  N   LIG    1       25.917 -30.283  12.446  0.00  0.00    -0.304 N 
ATOM     13  H   LIG    1       25.378 -29.423  12.420  0.00  0.00    +0.149 HD
ATOM     14  O   LIG    1       25.771 -32.550  12.011  0.00  0.00    -0.274 OA
BRANCH  12  15
ATOM     15  C   LIG    1       27.025 -30.354  13.416  0.00  0.00    +0.149 C 
BRANCH  15  16
ATOM     16  C   LIG    1       26.670 -31.115  14.708  0.00  0.00    +0.237 C 
ATOM     17  O   LIG    1       27.405 -31.689  15.492  0.00  0.00    -0.285 OA
BRANCH  16  18
ATOM     18  C   LIG    1       25.220 -31.033  15.136  0.00  0.00    +0.279 C 
ATOM     19  O   LIG    1       24.717 -29.995  15.444  0.00  0.00    -0.267 OA
ATOM     20  N   LIG    1       24.590 -32.256  15.095  0.00  0.00    -0.323 N 
ATOM     21  H   LIG    1       23.586 -32.270  15.161  0.00  0.00    +0.145 HD
ATOM     22  H   LIG    1       25.061 -33.032  14.647  0.00  0.00    +0.145 HD
ENDBRANCH  16  18
ENDBRANCH  15  16
BRANCH  15  23
ATOM     23  C   LIG    1       27.762 -29.022  13.631  0.00  0.00    +0.034 C 
BRANCH  23  24
ATOM     24  C   LIG    1       26.851 -27.812  13.530  0.00  0.00    -0.009 C 
ATOM     25  C   LIG    1       27.282 -26.523  14.283  0.00  0.00    +0.004 C 
ATOM     26  C   LIG    1       26.662 -25.734  13.114  0.00  0.00    +0.000 C 
ATOM     27  C   LIG    1       26.939 -26.970  12.232  0.00  0.00    +0.004 C 
ENDBRANCH  23  24
ENDBRANCH  15  23
ENDBRANCH  12  15
ENDBRANCH   3  11
BRANCH   1  28
ATOM     28  C   LIG    1       25.052 -30.532   7.277  0.00  0.00    +0.166 C 
BRANCH  28  32
ATOM     29  N   LIG    1       25.651 -26.994   6.255  0.00  0.00    -0.295 N 
ATOM     30  H   LIG    1       26.639 -27.162   6.196  0.00  0.00    +0.151 HD
ATOM     31  C   LIG    1       24.875 -28.062   6.683  0.00  0.00    +0.301 C 
ATOM     32  N   LIG    1       25.618 -29.231   6.804  0.00  0.00    -0.288 N 
ATOM     33  H   LIG    1       26.621 -29.167   6.770  0.00  0.00    +0.151 HD
ATOM     34  O   LIG    1       23.675 -27.991   6.880  0.00  0.00    -0.253 OA
BRANCH  29  36
ATOM     35  C   LIG    1       25.213 -25.442   4.367  0.00  0.00    +0.031 C 
ATOM     36  C   LIG    1       25.183 -25.615   5.907  0.00  0.00    +0.028 C 
ATOM     37  C   LIG    1       23.738 -25.365   6.369  0.00  0.00    +0.031 C 
ATOM     38  C   LIG    1       26.058 -24.505   6.519  0.00  0.00    +0.031 C 
ENDBRANCH  29  36
ENDBRANCH  28  32
BRANCH  28  39
ATOM     39  C   LIG    1       25.676 -31.789   6.541  0.00  0.00    -0.011 C 
ATOM     40  C   LIG    1       24.635 -32.932   6.441  0.00  0.00    +0.013 C 
ATOM     41  C   LIG    1       26.938 -32.361   7.217  0.00  0.00    +0.013 C 
ATOM     42  C   LIG    1       26.056 -31.416   5.088  0.00  0.00    +0.013 C 
ENDBRANCH  28  39
ENDBRANCH   1  28
TORSDOF 10
ENDMDL
