MODEL 1
REMARK VINA RESULT:       0.6      0.000      0.000
REMARK  Name = *****
REMARK                            x       y       z     vdW  Elec       q    Type
REMARK                         _______ _______ _______ _____ _____    ______ ____
ROOT
ATOM      1  N   LIG    1       23.238 -18.443   4.224  0.00  0.00    -0.266 N 
ATOM      2  C   LIG    1       23.328 -19.787   3.813  0.00  0.00    +0.271 C 
ATOM      3  O   LIG    1       22.509 -20.649   4.149  0.00  0.00    -0.270 OA
ATOM      4  C   LIG    1       24.503 -20.180   2.871  0.00  0.00    +0.320 C 
ATOM      5  N   LIG    1       25.665 -20.357   3.735  0.00  0.00    -0.243 NA
ATOM      6  C   LIG    1       26.173 -19.278   4.232  0.00  0.00    +0.081 C 
ATOM      7  C   LIG    1       25.687 -17.910   3.883  0.00  0.00    +0.024 A 
ATOM      8  C   LIG    1       26.685 -17.009   3.465  0.00  0.00    +0.032 A 
ATOM      9  C   LIG    1       26.383 -15.665   3.322  0.00  0.00    +0.042 A 
ATOM     10 CL   LIG    1       27.616 -14.553   2.880  0.00  0.00    -0.084 Cl
ATOM     11  C   LIG    1       25.089 -15.223   3.554  0.00  0.00    +0.022 A 
ATOM     12  C   LIG    1       24.070 -16.139   3.868  0.00  0.00    +0.025 A 
ATOM     13  C   LIG    1       24.332 -17.513   4.015  0.00  0.00    +0.046 A 
ENDROOT
BRANCH   6  14
ATOM     14  C   LIG    1       27.326 -19.409   5.190  0.00  0.00    +0.036 A 
ATOM     15  C   LIG    1       27.365 -20.421   6.157  0.00  0.00    +0.133 A 
ATOM     16  F   LIG    1       26.395 -21.344   6.236  0.00  0.00    -0.205 F 
ATOM     17  C   LIG    1       28.421 -20.514   7.062  0.00  0.00    +0.039 A 
ATOM     18  C   LIG    1       29.475 -19.606   6.994  0.00  0.00    +0.003 A 
ATOM     19  C   LIG    1       29.466 -18.610   6.017  0.00  0.00    +0.001 A 
ATOM     20  C   LIG    1       28.398 -18.509   5.116  0.00  0.00    +0.013 A 
ENDBRANCH   6  14
BRANCH   4  21
ATOM     21  O   LIG    1       24.176 -21.361   2.155  0.00  0.00    -0.364 OA
ATOM     22  H   LIG    1       24.964 -21.523   1.607  0.00  0.00    +0.212 HD
ENDBRANCH   4  21
BRANCH   1  23
ATOM     23  C   LIG    1       22.097 -18.049   5.105  0.00  0.00    +0.128 C 
BRANCH  23  24
ATOM     24  C   LIG    1       20.932 -17.294   4.435  0.00  0.00    +0.138 C 
BRANCH  24  26
ATOM     25  N   LIG    1       19.432 -18.872   2.957  0.00  0.00    -0.197 NA
ATOM     26  C   LIG    1       20.102 -18.188   3.608  0.00  0.00    +0.064 C 
ENDBRANCH  24  26
ENDBRANCH  23  24
ENDBRANCH   1  23
TORSDOF 5
ENDMDL
MODEL 2
REMARK VINA RESULT:       2.7      0.988      1.626
REMARK  Name = *****
REMARK                            x       y       z     vdW  Elec       q    Type
REMARK                         _______ _______ _______ _____ _____    ______ ____
ROOT
ATOM      1  N   LIG    1       23.231 -18.530   4.081  0.00  0.00    -0.266 N 
ATOM      2  C   LIG    1       23.390 -19.852   3.625  0.00  0.00    +0.271 C 
ATOM      3  O   LIG    1       22.604 -20.761   3.913  0.00  0.00    -0.270 OA
ATOM      4  C   LIG    1       24.600 -20.158   2.694  0.00  0.00    +0.320 C 
ATOM      5  N   LIG    1       25.752 -20.314   3.577  0.00  0.00    -0.243 NA
ATOM      6  C   LIG    1       26.200 -19.232   4.122  0.00  0.00    +0.081 C 
ATOM      7  C   LIG    1       25.659 -17.876   3.811  0.00  0.00    +0.024 A 
ATOM      8  C   LIG    1       26.623 -16.916   3.447  0.00  0.00    +0.032 A 
ATOM      9  C   LIG    1       26.263 -15.583   3.345  0.00  0.00    +0.042 A 
ATOM     10 CL   LIG    1       27.453 -14.401   2.969  0.00  0.00    -0.084 Cl
ATOM     11  C   LIG    1       24.946 -15.207   3.565  0.00  0.00    +0.022 A 
ATOM     12  C   LIG    1       23.964 -16.179   3.825  0.00  0.00    +0.025 A 
ATOM     13  C   LIG    1       24.285 -17.545   3.929  0.00  0.00    +0.046 A 
ENDROOT
BRANCH   6  14
ATOM     14  C   LIG    1       27.338 -19.346   5.099  0.00  0.00    +0.036 A 
ATOM     15  C   LIG    1       27.368 -20.346   6.079  0.00  0.00    +0.133 A 
ATOM     16  F   LIG    1       26.401 -21.272   6.154  0.00  0.00    -0.205 F 
ATOM     17  C   LIG    1       28.410 -20.423   7.001  0.00  0.00    +0.039 A 
ATOM     18  C   LIG    1       29.461 -19.511   6.938  0.00  0.00    +0.003 A 
ATOM     19  C   LIG    1       29.462 -18.526   5.949  0.00  0.00    +0.001 A 
ATOM     20  C   LIG    1       28.408 -18.442   5.031  0.00  0.00    +0.013 A 
ENDBRANCH   6  14
BRANCH   4  21
ATOM     21  O   LIG    1       24.341 -21.325   1.931  0.00  0.00    -0.364 OA
ATOM     22  H   LIG    1       25.062 -21.336   1.275  0.00  0.00    +0.212 HD
ENDBRANCH   4  21
BRANCH   1  23
ATOM     23  C   LIG    1       22.056 -18.220   4.952  0.00  0.00    +0.128 C 
BRANCH  23  24
ATOM     24  C   LIG    1       22.209 -18.523   6.456  0.00  0.00    +0.138 C 
BRANCH  24  26
ATOM     25  N   LIG    1       23.811 -20.563   6.891  0.00  0.00    -0.197 NA
ATOM     26  C   LIG    1       23.118 -19.657   6.697  0.00  0.00    +0.064 C 
ENDBRANCH  24  26
ENDBRANCH  23  24
ENDBRANCH   1  23
TORSDOF 5
ENDMDL
MODEL 3
REMARK VINA RESULT:       3.2      1.408      1.991
REMARK  Name = *****
REMARK                            x       y       z     vdW  Elec       q    Type
REMARK                         _______ _______ _______ _____ _____    ______ ____
ROOT
ATOM      1  N   LIG    1       23.153 -18.419   4.249  0.00  0.00    -0.266 N 
ATOM      2  C   LIG    1       23.245 -19.770   3.864  0.00  0.00    +0.271 C 
ATOM      3  O   LIG    1       22.434 -20.629   4.226  0.00  0.00    -0.270 OA
ATOM      4  C   LIG    1       24.412 -20.176   2.916  0.00  0.00    +0.320 C 
ATOM      5  N   LIG    1       25.584 -20.330   3.772  0.00  0.00    -0.243 NA
ATOM      6  C   LIG    1       26.092 -19.239   4.242  0.00  0.00    +0.081 C 
ATOM      7  C   LIG    1       25.595 -17.881   3.871  0.00  0.00    +0.024 A 
ATOM      8  C   LIG    1       26.584 -16.983   3.425  0.00  0.00    +0.032 A 
ATOM      9  C   LIG    1       26.273 -15.644   3.259  0.00  0.00    +0.042 A 
ATOM     10 CL   LIG    1       27.496 -14.534   2.782  0.00  0.00    -0.084 Cl
ATOM     11  C   LIG    1       24.980 -15.203   3.497  0.00  0.00    +0.022 A 
ATOM     12  C   LIG    1       23.969 -16.118   3.839  0.00  0.00    +0.025 A 
ATOM     13  C   LIG    1       24.239 -17.488   4.011  0.00  0.00    +0.046 A 
ENDROOT
BRANCH   6  14
ATOM     14  C   LIG    1       27.255 -19.346   5.190  0.00  0.00    +0.036 A 
ATOM     15  C   LIG    1       28.348 -18.473   5.112  0.00  0.00    +0.133 A 
ATOM     16  F   LIG    1       28.377 -17.477   4.214  0.00  0.00    -0.205 F 
ATOM     17  C   LIG    1       29.436 -18.600   5.972  0.00  0.00    +0.039 A 
ATOM     18  C   LIG    1       29.435 -19.592   6.950  0.00  0.00    +0.003 A 
ATOM     19  C   LIG    1       28.341 -20.451   7.062  0.00  0.00    +0.001 A 
ATOM     20  C   LIG    1       27.253 -20.330   6.188  0.00  0.00    +0.013 A 
ENDBRANCH   6  14
BRANCH   4  21
ATOM     21  O   LIG    1       24.083 -21.372   2.228  0.00  0.00    -0.364 OA
ATOM     22  H   LIG    1       24.630 -21.331   1.422  0.00  0.00    +0.212 HD
ENDBRANCH   4  21
BRANCH   1  23
ATOM     23  C   LIG    1       22.019 -18.014   5.136  0.00  0.00    +0.128 C 
BRANCH  23  24
ATOM     24  C   LIG    1       21.391 -16.631   4.868  0.00  0.00    +0.138 C 
BRANCH  24  26
ATOM     25  N   LIG    1       22.174 -14.842   6.631  0.00  0.00    -0.197 NA
ATOM     26  C   LIG    1       21.841 -15.626   5.847  0.00  0.00    +0.064 C 
ENDBRANCH  24  26
ENDBRANCH  23  24
ENDBRANCH   1  23
TORSDOF 5
ENDMDL
