MODEL 1
REMARK VINA RESULT:      -9.1      0.000      0.000
REMARK  Name = *****
REMARK                            x       y       z     vdW  Elec       q    Type
REMARK                         _______ _______ _______ _____ _____    ______ ____
ROOT
ATOM      1  C   LIG    1       28.334 -21.242   6.917  0.00  0.00    +0.089 C 
ENDROOT
BRANCH   1   2
ATOM      2  N   LIG    1       27.333 -20.212   7.259  0.00  0.00    -0.302 NA
ATOM      3  C   LIG    1       26.383 -19.996   6.149  0.00  0.00    +0.085 C 
ATOM      4  C   LIG    1       25.575 -21.250   5.813  0.00  0.00    +0.025 C 
ATOM      5  C   LIG    1       24.858 -21.812   7.052  0.00  0.00    +0.044 C 
ATOM      6  C   LIG    1       25.721 -21.783   8.332  0.00  0.00    +0.025 C 
ATOM      7  C   LIG    1       26.578 -20.525   8.468  0.00  0.00    +0.085 C 
BRANCH   5   8
ATOM      8  C   LIG    1       24.300 -23.189   6.786  0.00  0.00    +0.095 A 
ATOM      9  C   LIG    1       24.973 -24.412   6.481  0.00  0.00    +0.045 A 
ATOM     10  C   LIG    1       23.944 -25.336   6.373  0.00  0.00    +0.170 A 
ATOM     11  C   LIG    1       24.119 -26.691   6.103  0.00  0.00    +0.088 A 
ATOM     12  C   LIG    1       25.436 -27.110   5.933  0.00  0.00    +0.127 A 
ATOM     13  C   LIG    1       26.509 -26.226   6.020  0.00  0.00    +0.039 A 
ATOM     14  F   LIG    1       25.680 -28.402   5.677  0.00  0.00    -0.205 F 
ATOM     15  O   LIG    1       22.756 -24.711   6.573  0.00  0.00    -0.354 OA
ATOM     16  C   LIG    1       26.293 -24.867   6.294  0.00  0.00    +0.016 A 
ATOM     17  N   LIG    1       22.971 -23.369   6.830  0.00  0.00    -0.082 NA
ENDBRANCH   5   8
ENDBRANCH   1   2
BRANCH   1  18
ATOM     18  C   LIG    1       29.788 -20.747   6.718  0.00  0.00    +0.058 C 
BRANCH  18  21
ATOM     19  C   LIG    1       30.813 -22.003   9.389  0.00  0.00    +0.066 C 
ATOM     20  C   LIG    1       30.837 -20.527   9.049  0.00  0.00    +0.049 C 
ATOM     21  C   LIG    1       30.412 -19.992   7.885  0.00  0.00    +0.039 C 
ATOM     22  C   LIG    1       30.600 -18.511   7.742  0.00  0.00    +0.258 C 
ATOM     23  O   LIG    1       30.251 -17.910   6.742  0.00  0.00    -0.267 OA
ATOM     24  N   LIG    1       31.236 -17.857   8.769  0.00  0.00    -0.294 N 
ATOM     25  C   LIG    1       31.735 -16.519   8.479  0.00  0.00    +0.127 C 
ATOM     26  C   LIG    1       32.005 -15.660   9.699  0.00  0.00    +0.025 C 
ATOM     27  C   LIG    1       32.776 -16.464  10.735  0.00  0.00    +0.041 C 
ATOM     28  C   LIG    1       31.984 -17.697  11.131  0.00  0.00    +0.180 C 
ATOM     29  C   LIG    1       31.527 -18.518   9.927  0.00  0.00    +0.141 C 
ATOM     30  N   LIG    1       31.327 -19.787  10.097  0.00  0.00    -0.236 NA
BRANCH  28  31
ATOM     31  O   LIG    1       30.811 -17.293  11.839  0.00  0.00    -0.384 OA
ATOM     32  H   LIG    1       30.999 -17.445  12.784  0.00  0.00    +0.210 HD
ENDBRANCH  28  31
ENDBRANCH  18  21
ENDBRANCH   1  18
TORSDOF 5
ENDMDL
MODEL 2
REMARK VINA RESULT:      -8.7      3.340      6.101
REMARK  Name = *****
REMARK                            x       y       z     vdW  Elec       q    Type
REMARK                         _______ _______ _______ _____ _____    ______ ____
ROOT
ATOM      1  C   LIG    1       23.891 -24.350   6.629  0.00  0.00    +0.089 C 
ENDROOT
BRANCH   1   2
ATOM      2  N   LIG    1       24.996 -24.659   5.700  0.00  0.00    -0.302 NA
ATOM      3  C   LIG    1       26.206 -25.090   6.429  0.00  0.00    +0.085 C 
ATOM      4  C   LIG    1       25.984 -26.371   7.235  0.00  0.00    +0.025 C 
ATOM      5  C   LIG    1       25.435 -27.506   6.355  0.00  0.00    +0.044 C 
ATOM      6  C   LIG    1       24.360 -27.045   5.348  0.00  0.00    +0.025 C 
ATOM      7  C   LIG    1       24.651 -25.683   4.718  0.00  0.00    +0.085 C 
BRANCH   5   8
ATOM      8  C   LIG    1       24.954 -28.666   7.192  0.00  0.00    +0.095 A 
ATOM      9  C   LIG    1       25.458 -29.183   8.426  0.00  0.00    +0.045 A 
ATOM     10  C   LIG    1       24.595 -30.226   8.724  0.00  0.00    +0.170 A 
ATOM     11  C   LIG    1       24.677 -31.025   9.862  0.00  0.00    +0.088 A 
ATOM     12  C   LIG    1       25.717 -30.725  10.738  0.00  0.00    +0.127 A 
ATOM     13  C   LIG    1       26.621 -29.696  10.486  0.00  0.00    +0.039 A 
ATOM     14  F   LIG    1       25.854 -31.448  11.857  0.00  0.00    -0.205 F 
ATOM     15  O   LIG    1       23.667 -30.336   7.740  0.00  0.00    -0.354 OA
ATOM     16  C   LIG    1       26.506 -28.913   9.328  0.00  0.00    +0.016 A 
ATOM     17  N   LIG    1       23.887 -29.367   6.779  0.00  0.00    -0.082 NA
ENDBRANCH   5   8
ENDBRANCH   1   2
BRANCH   1  18
ATOM     18  C   LIG    1       23.706 -22.858   7.002  0.00  0.00    +0.058 C 
BRANCH  18  21
ATOM     19  C   LIG    1       23.899 -21.127   4.408  0.00  0.00    +0.066 C 
ATOM     20  C   LIG    1       24.946 -21.186   5.503  0.00  0.00    +0.049 C 
ATOM     21  C   LIG    1       24.848 -21.919   6.631  0.00  0.00    +0.039 C 
ATOM     22  C   LIG    1       25.974 -21.765   7.608  0.00  0.00    +0.258 C 
ATOM     23  O   LIG    1       26.005 -22.379   8.659  0.00  0.00    -0.267 OA
ATOM     24  N   LIG    1       26.956 -20.857   7.296  0.00  0.00    -0.294 N 
ATOM     25  C   LIG    1       27.835 -20.448   8.383  0.00  0.00    +0.127 C 
ATOM     26  C   LIG    1       29.149 -19.833   7.945  0.00  0.00    +0.025 C 
ATOM     27  C   LIG    1       28.900 -18.807   6.851  0.00  0.00    +0.041 C 
ATOM     28  C   LIG    1       28.212 -19.465   5.668  0.00  0.00    +0.180 C 
ATOM     29  C   LIG    1       26.968 -20.255   6.071  0.00  0.00    +0.141 C 
ATOM     30  N   LIG    1       26.034 -20.410   5.187  0.00  0.00    -0.236 NA
BRANCH  28  31
ATOM     31  O   LIG    1       29.117 -20.384   5.053  0.00  0.00    -0.384 OA
ATOM     32  H   LIG    1       29.173 -21.152   5.653  0.00  0.00    +0.210 HD
ENDBRANCH  28  31
ENDBRANCH  18  21
ENDBRANCH   1  18
TORSDOF 5
ENDMDL
MODEL 3
REMARK VINA RESULT:      -8.3      3.329      9.618
REMARK  Name = *****
REMARK                            x       y       z     vdW  Elec       q    Type
REMARK                         _______ _______ _______ _____ _____    ______ ____
ROOT
ATOM      1  C   LIG    1       27.469 -20.130   7.958  0.00  0.00    +0.089 C 
ENDROOT
BRANCH   1   2
ATOM      2  N   LIG    1       28.427 -20.948   7.188  0.00  0.00    -0.302 NA
ATOM      3  C   LIG    1       29.059 -20.163   6.110  0.00  0.00    +0.085 C 
ATOM      4  C   LIG    1       29.871 -18.980   6.639  0.00  0.00    +0.025 C 
ATOM      5  C   LIG    1       30.912 -19.428   7.680  0.00  0.00    +0.044 C 
ATOM      6  C   LIG    1       30.383 -20.491   8.666  0.00  0.00    +0.025 C 
ATOM      7  C   LIG    1       29.475 -21.536   8.017  0.00  0.00    +0.085 C 
BRANCH   5   8
ATOM      8  C   LIG    1       31.511 -18.246   8.401  0.00  0.00    +0.095 A 
ATOM      9  C   LIG    1       31.346 -17.812   9.753  0.00  0.00    +0.045 A 
ATOM     10  C   LIG    1       32.161 -16.694   9.843  0.00  0.00    +0.170 A 
ATOM     11  C   LIG    1       32.345 -15.935  10.996  0.00  0.00    +0.088 A 
ATOM     12  C   LIG    1       31.638 -16.359  12.118  0.00  0.00    +0.127 A 
ATOM     13  C   LIG    1       30.797 -17.468  12.086  0.00  0.00    +0.039 A 
ATOM     14  F   LIG    1       31.772 -15.680  13.266  0.00  0.00    -0.205 F 
ATOM     15  O   LIG    1       32.746 -16.467   8.639  0.00  0.00    -0.354 OA
ATOM     16  C   LIG    1       30.638 -18.209  10.905  0.00  0.00    +0.016 A 
ATOM     17  N   LIG    1       32.342 -17.432   7.734  0.00  0.00    -0.082 NA
ENDBRANCH   5   8
ENDBRANCH   1   2
BRANCH   1  18
ATOM     18  C   LIG    1       25.970 -20.477   7.778  0.00  0.00    +0.058 C 
BRANCH  18  21
ATOM     19  C   LIG    1       24.906 -20.557   4.842  0.00  0.00    +0.066 C 
ATOM     20  C   LIG    1       25.176 -21.770   5.711  0.00  0.00    +0.049 C 
ATOM     21  C   LIG    1       25.656 -21.730   6.971  0.00  0.00    +0.039 C 
ATOM     22  C   LIG    1       25.915 -23.060   7.612  0.00  0.00    +0.258 C 
ATOM     23  O   LIG    1       26.341 -23.157   8.748  0.00  0.00    -0.267 OA
ATOM     24  N   LIG    1       25.702 -24.178   6.843  0.00  0.00    -0.294 N 
ATOM     25  C   LIG    1       26.287 -25.422   7.327  0.00  0.00    +0.127 C 
ATOM     26  C   LIG    1       25.678 -26.683   6.747  0.00  0.00    +0.025 C 
ATOM     27  C   LIG    1       25.534 -26.540   5.240  0.00  0.00    +0.041 C 
ATOM     28  C   LIG    1       24.663 -25.341   4.911  0.00  0.00    +0.180 C 
ATOM     29  C   LIG    1       25.125 -24.065   5.612  0.00  0.00    +0.141 C 
ATOM     30  N   LIG    1       24.843 -22.929   5.055  0.00  0.00    -0.236 NA
BRANCH  28  31
ATOM     31  O   LIG    1       23.326 -25.602   5.342  0.00  0.00    -0.384 OA
ATOM     32  H   LIG    1       22.945 -24.736   5.580  0.00  0.00    +0.210 HD
ENDBRANCH  28  31
ENDBRANCH  18  21
ENDBRANCH   1  18
TORSDOF 5
ENDMDL
MODEL 4
REMARK VINA RESULT:      -8.1      5.505      9.278
REMARK  Name = *****
REMARK                            x       y       z     vdW  Elec       q    Type
REMARK                         _______ _______ _______ _____ _____    ______ ____
ROOT
ATOM      1  C   LIG    1       24.467 -29.004   7.073  0.00  0.00    +0.089 C 
ENDROOT
BRANCH   1   2
ATOM      2  N   LIG    1       25.292 -28.755   5.874  0.00  0.00    -0.302 NA
ATOM      3  C   LIG    1       24.506 -28.101   4.809  0.00  0.00    +0.085 C 
ATOM      4  C   LIG    1       23.973 -26.729   5.226  0.00  0.00    +0.025 C 
ATOM      5  C   LIG    1       25.101 -25.810   5.724  0.00  0.00    +0.044 C 
ATOM      6  C   LIG    1       26.136 -26.528   6.616  0.00  0.00    +0.025 C 
ATOM      7  C   LIG    1       26.474 -27.944   6.149  0.00  0.00    +0.085 C 
BRANCH   5   8
ATOM      8  C   LIG    1       24.547 -24.576   6.393  0.00  0.00    +0.095 A 
ATOM      9  C   LIG    1       25.227 -23.468   6.989  0.00  0.00    +0.045 A 
ATOM     10  C   LIG    1       24.199 -22.637   7.406  0.00  0.00    +0.170 A 
ATOM     11  C   LIG    1       24.377 -21.406   8.033  0.00  0.00    +0.088 A 
ATOM     12  C   LIG    1       25.699 -21.018   8.240  0.00  0.00    +0.127 A 
ATOM     13  C   LIG    1       26.772 -21.816   7.852  0.00  0.00    +0.039 A 
ATOM     14  F   LIG    1       25.947 -19.842   8.832  0.00  0.00    -0.205 F 
ATOM     15  O   LIG    1       23.006 -23.211   7.105  0.00  0.00    -0.354 OA
ATOM     16  C   LIG    1       26.552 -23.051   7.222  0.00  0.00    +0.016 A 
ATOM     17  N   LIG    1       23.217 -24.423   6.474  0.00  0.00    -0.082 NA
ENDBRANCH   5   8
ENDBRANCH   1   2
BRANCH   1  18
ATOM     18  C   LIG    1       25.025 -30.034   8.087  0.00  0.00    +0.058 C 
BRANCH  18  21
ATOM     19  C   LIG    1       22.659 -30.677  10.024  0.00  0.00    +0.066 C 
ATOM     20  C   LIG    1       23.910 -29.907  10.394  0.00  0.00    +0.049 C 
ATOM     21  C   LIG    1       24.939 -29.650   9.559  0.00  0.00    +0.039 C 
ATOM     22  C   LIG    1       26.107 -28.933  10.166  0.00  0.00    +0.258 C 
ATOM     23  O   LIG    1       27.092 -28.637   9.514  0.00  0.00    -0.267 OA
ATOM     24  N   LIG    1       26.048 -28.665  11.512  0.00  0.00    -0.294 N 
ATOM     25  C   LIG    1       27.303 -28.307  12.160  0.00  0.00    +0.127 C 
ATOM     26  C   LIG    1       27.154 -27.586  13.485  0.00  0.00    +0.025 C 
ATOM     27  C   LIG    1       26.123 -28.298  14.347  0.00  0.00    +0.041 C 
ATOM     28  C   LIG    1       24.787 -28.345  13.626  0.00  0.00    +0.180 C 
ATOM     29  C   LIG    1       24.899 -28.902  12.209  0.00  0.00    +0.141 C 
ATOM     30  N   LIG    1       23.856 -29.474  11.696  0.00  0.00    -0.236 NA
BRANCH  28  31
ATOM     31  O   LIG    1       24.265 -27.020  13.522  0.00  0.00    -0.384 OA
ATOM     32  H   LIG    1       23.388 -27.040  13.949  0.00  0.00    +0.210 HD
ENDBRANCH  28  31
ENDBRANCH  18  21
ENDBRANCH   1  18
TORSDOF 5
ENDMDL
MODEL 5
REMARK VINA RESULT:      -7.9      6.643      9.474
REMARK  Name = *****
REMARK                            x       y       z     vdW  Elec       q    Type
REMARK                         _______ _______ _______ _____ _____    ______ ____
ROOT
ATOM      1  C   LIG    1       24.736 -28.191   7.185  0.00  0.00    +0.089 C 
ENDROOT
BRANCH   1   2
ATOM      2  N   LIG    1       25.792 -27.851   6.211  0.00  0.00    -0.302 NA
ATOM      3  C   LIG    1       25.216 -27.481   4.902  0.00  0.00    +0.085 C 
ATOM      4  C   LIG    1       24.323 -26.243   4.979  0.00  0.00    +0.025 C 
ATOM      5  C   LIG    1       25.059 -25.052   5.614  0.00  0.00    +0.044 C 
ATOM      6  C   LIG    1       25.929 -25.438   6.829  0.00  0.00    +0.025 C 
ATOM      7  C   LIG    1       26.662 -26.769   6.662  0.00  0.00    +0.085 C 
BRANCH   5   8
ATOM      8  C   LIG    1       24.104 -23.930   5.946  0.00  0.00    +0.095 A 
ATOM      9  C   LIG    1       24.079 -22.577   5.488  0.00  0.00    +0.045 A 
ATOM     10  C   LIG    1       22.961 -22.039   6.109  0.00  0.00    +0.170 A 
ATOM     11  C   LIG    1       22.514 -20.731   5.945  0.00  0.00    +0.088 A 
ATOM     12  C   LIG    1       23.272 -19.934   5.091  0.00  0.00    +0.127 A 
ATOM     13  C   LIG    1       24.410 -20.416   4.448  0.00  0.00    +0.039 A 
ATOM     14  F   LIG    1       22.897 -18.666   4.881  0.00  0.00    -0.205 F 
ATOM     15  O   LIG    1       22.382 -22.987   6.889  0.00  0.00    -0.354 OA
ATOM     16  C   LIG    1       24.829 -21.741   4.638  0.00  0.00    +0.016 A 
ATOM     17  N   LIG    1       23.092 -24.170   6.793  0.00  0.00    -0.082 NA
ENDBRANCH   5   8
ENDBRANCH   1   2
BRANCH   1  18
ATOM     18  C   LIG    1       24.820 -29.598   7.826  0.00  0.00    +0.058 C 
BRANCH  18  21
ATOM     19  C   LIG    1       22.677 -30.579   9.876  0.00  0.00    +0.066 C 
ATOM     20  C   LIG    1       24.051 -30.047  10.231  0.00  0.00    +0.049 C 
ATOM     21  C   LIG    1       24.981 -29.645   9.340  0.00  0.00    +0.039 C 
ATOM     22  C   LIG    1       26.299 -29.225   9.919  0.00  0.00    +0.258 C 
ATOM     23  O   LIG    1       27.216 -28.834   9.219  0.00  0.00    -0.267 OA
ATOM     24  N   LIG    1       26.455 -29.348  11.278  0.00  0.00    -0.294 N 
ATOM     25  C   LIG    1       27.820 -29.289  11.785  0.00  0.00    +0.127 C 
ATOM     26  C   LIG    1       27.940 -28.968  13.261  0.00  0.00    +0.025 C 
ATOM     27  C   LIG    1       26.955 -29.812  14.055  0.00  0.00    +0.041 C 
ATOM     28  C   LIG    1       25.539 -29.547  13.577  0.00  0.00    +0.180 C 
ATOM     29  C   LIG    1       25.390 -29.684  12.063  0.00  0.00    +0.141 C 
ATOM     30  N   LIG    1       24.226 -30.001  11.592  0.00  0.00    -0.236 NA
BRANCH  28  31
ATOM     31  O   LIG    1       25.172 -28.210  13.921  0.00  0.00    -0.384 OA
ATOM     32  H   LIG    1       24.751 -28.262  14.800  0.00  0.00    +0.210 HD
ENDBRANCH  28  31
ENDBRANCH  18  21
ENDBRANCH   1  18
TORSDOF 5
ENDMDL
MODEL 6
REMARK VINA RESULT:      -7.9      5.688     10.345
REMARK  Name = *****
REMARK                            x       y       z     vdW  Elec       q    Type
REMARK                         _______ _______ _______ _____ _____    ______ ____
ROOT
ATOM      1  C   LIG    1       24.108 -29.341   7.281  0.00  0.00    +0.089 C 
ENDROOT
BRANCH   1   2
ATOM      2  N   LIG    1       25.148 -29.179   6.246  0.00  0.00    -0.302 NA
ATOM      3  C   LIG    1       24.597 -28.562   5.023  0.00  0.00    +0.085 C 
ATOM      4  C   LIG    1       24.049 -27.156   5.268  0.00  0.00    +0.025 C 
ATOM      5  C   LIG    1       25.100 -26.243   5.923  0.00  0.00    +0.044 C 
ATOM      6  C   LIG    1       25.925 -26.941   7.025  0.00  0.00    +0.025 C 
ATOM      7  C   LIG    1       26.290 -28.389   6.697  0.00  0.00    +0.085 C 
BRANCH   5   8
ATOM      8  C   LIG    1       24.480 -24.959   6.418  0.00  0.00    +0.095 A 
ATOM      9  C   LIG    1       25.098 -23.768   6.911  0.00  0.00    +0.045 A 
ATOM     10  C   LIG    1       24.028 -22.929   7.182  0.00  0.00    +0.170 A 
ATOM     11  C   LIG    1       24.140 -21.629   7.669  0.00  0.00    +0.088 A 
ATOM     12  C   LIG    1       25.439 -21.176   7.888  0.00  0.00    +0.127 A 
ATOM     13  C   LIG    1       26.552 -21.977   7.644  0.00  0.00    +0.039 A 
ATOM     14  F   LIG    1       25.624 -19.932   8.349  0.00  0.00    -0.205 F 
ATOM     15  O   LIG    1       22.867 -23.575   6.897  0.00  0.00    -0.354 OA
ATOM     16  C   LIG    1       26.398 -23.282   7.153  0.00  0.00    +0.016 A 
ATOM     17  N   LIG    1       23.143 -24.843   6.421  0.00  0.00    -0.082 NA
ENDBRANCH   5   8
ENDBRANCH   1   2
BRANCH   1  18
ATOM     18  C   LIG    1       24.373 -30.423   8.357  0.00  0.00    +0.058 C 
BRANCH  18  21
ATOM     19  C   LIG    1       26.591 -29.140  10.145  0.00  0.00    +0.066 C 
ATOM     20  C   LIG    1       25.177 -29.454  10.591  0.00  0.00    +0.049 C 
ATOM     21  C   LIG    1       24.217 -29.989   9.809  0.00  0.00    +0.039 C 
ATOM     22  C   LIG    1       22.869 -30.145  10.446  0.00  0.00    +0.258 C 
ATOM     23  O   LIG    1       21.923 -30.622   9.846  0.00  0.00    -0.267 OA
ATOM     24  N   LIG    1       22.724 -29.676  11.729  0.00  0.00    -0.294 N 
ATOM     25  C   LIG    1       21.359 -29.497  12.206  0.00  0.00    +0.127 C 
ATOM     26  C   LIG    1       21.212 -29.432  13.714  0.00  0.00    +0.025 C 
ATOM     27  C   LIG    1       22.263 -28.499  14.294  0.00  0.00    +0.041 C 
ATOM     28  C   LIG    1       23.653 -28.987  13.925  0.00  0.00    +0.180 C 
ATOM     29  C   LIG    1       23.812 -29.243  12.428  0.00  0.00    +0.141 C 
ATOM     30  N   LIG    1       24.999 -29.147  11.918  0.00  0.00    -0.236 NA
BRANCH  28  31
ATOM     31  O   LIG    1       23.908 -30.222  14.597  0.00  0.00    -0.384 OA
ATOM     32  H   LIG    1       23.691 -30.069  15.536  0.00  0.00    +0.210 HD
ENDBRANCH  28  31
ENDBRANCH  18  21
ENDBRANCH   1  18
TORSDOF 5
ENDMDL
MODEL 7
REMARK VINA RESULT:      -7.8      4.251     10.057
REMARK  Name = *****
REMARK                            x       y       z     vdW  Elec       q    Type
REMARK                         _______ _______ _______ _____ _____    ______ ____
ROOT
ATOM      1  C   LIG    1       25.351 -25.572   7.112  0.00  0.00    +0.089 C 
ENDROOT
BRANCH   1   2
ATOM      2  N   LIG    1       24.103 -25.336   6.358  0.00  0.00    -0.302 NA
ATOM      3  C   LIG    1       23.335 -24.211   6.929  0.00  0.00    +0.085 C 
ATOM      4  C   LIG    1       24.098 -22.887   6.872  0.00  0.00    +0.025 C 
ATOM      5  C   LIG    1       24.570 -22.566   5.445  0.00  0.00    +0.044 C 
ATOM      6  C   LIG    1       25.117 -23.792   4.682  0.00  0.00    +0.025 C 
ATOM      7  C   LIG    1       24.330 -25.077   4.939  0.00  0.00    +0.085 C 
BRANCH   5   8
ATOM      8  C   LIG    1       25.553 -21.420   5.437  0.00  0.00    +0.095 A 
ATOM      9  C   LIG    1       26.718 -21.200   6.236  0.00  0.00    +0.045 A 
ATOM     10  C   LIG    1       27.226 -20.003   5.756  0.00  0.00    +0.170 A 
ATOM     11  C   LIG    1       28.386 -19.388   6.222  0.00  0.00    +0.088 A 
ATOM     12  C   LIG    1       29.053 -20.054   7.247  0.00  0.00    +0.127 A 
ATOM     13  C   LIG    1       28.585 -21.254   7.776  0.00  0.00    +0.039 A 
ATOM     14  F   LIG    1       30.180 -19.524   7.740  0.00  0.00    -0.205 F 
ATOM     15  O   LIG    1       26.420 -19.537   4.768  0.00  0.00    -0.354 OA
ATOM     16  C   LIG    1       27.412 -21.843   7.280  0.00  0.00    +0.016 A 
ATOM     17  N   LIG    1       25.372 -20.416   4.566  0.00  0.00    -0.082 NA
ENDBRANCH   5   8
ENDBRANCH   1   2
BRANCH   1  18
ATOM     18  C   LIG    1       26.099 -26.892   6.805  0.00  0.00    +0.058 C 
BRANCH  18  21
ATOM     19  C   LIG    1       24.101 -28.654   5.171  0.00  0.00    +0.066 C 
ATOM     20  C   LIG    1       24.554 -28.929   6.591  0.00  0.00    +0.049 C 
ATOM     21  C   LIG    1       25.434 -28.176   7.284  0.00  0.00    +0.039 C 
ATOM     22  C   LIG    1       25.790 -28.682   8.650  0.00  0.00    +0.258 C 
ATOM     23  O   LIG    1       26.566 -28.088   9.376  0.00  0.00    -0.267 OA
ATOM     24  N   LIG    1       25.243 -29.882   9.037  0.00  0.00    -0.294 N 
ATOM     25  C   LIG    1       25.858 -30.539  10.183  0.00  0.00    +0.127 C 
ATOM     26  C   LIG    1       24.992 -31.580  10.862  0.00  0.00    +0.025 C 
ATOM     27  C   LIG    1       24.359 -32.487   9.818  0.00  0.00    +0.041 C 
ATOM     28  C   LIG    1       23.524 -31.664   8.852  0.00  0.00    +0.180 C 
ATOM     29  C   LIG    1       24.294 -30.484   8.263  0.00  0.00    +0.141 C 
ATOM     30  N   LIG    1       23.930 -30.041   7.101  0.00  0.00    -0.236 NA
BRANCH  28  31
ATOM     31  O   LIG    1       22.396 -31.130   9.547  0.00  0.00    -0.384 OA
ATOM     32  H   LIG    1       21.676 -31.072   8.890  0.00  0.00    +0.210 HD
ENDBRANCH  28  31
ENDBRANCH  18  21
ENDBRANCH   1  18
TORSDOF 5
ENDMDL
MODEL 8
REMARK VINA RESULT:      -7.8      6.601     10.440
REMARK  Name = *****
REMARK                            x       y       z     vdW  Elec       q    Type
REMARK                         _______ _______ _______ _____ _____    ______ ____
ROOT
ATOM      1  C   LIG    1       25.321 -27.867   7.332  0.00  0.00    +0.089 C 
ENDROOT
BRANCH   1   2
ATOM      2  N   LIG    1       25.889 -27.698   5.980  0.00  0.00    -0.302 NA
ATOM      3  C   LIG    1       24.832 -27.442   4.981  0.00  0.00    +0.085 C 
ATOM      4  C   LIG    1       24.058 -26.152   5.259  0.00  0.00    +0.025 C 
ATOM      5  C   LIG    1       25.000 -24.943   5.390  0.00  0.00    +0.044 C 
ATOM      6  C   LIG    1       26.288 -25.245   6.186  0.00  0.00    +0.025 C 
ATOM      7  C   LIG    1       26.877 -26.627   5.902  0.00  0.00    +0.085 C 
BRANCH   5   8
ATOM      8  C   LIG    1       24.274 -23.739   5.938  0.00  0.00    +0.095 A 
ATOM      9  C   LIG    1       24.082 -22.442   5.369  0.00  0.00    +0.045 A 
ATOM     10  C   LIG    1       23.317 -21.777   6.316  0.00  0.00    +0.170 A 
ATOM     11  C   LIG    1       22.857 -20.468   6.189  0.00  0.00    +0.088 A 
ATOM     12  C   LIG    1       23.215 -19.813   5.013  0.00  0.00    +0.127 A 
ATOM     13  C   LIG    1       23.990 -20.426   4.032  0.00  0.00    +0.039 A 
ATOM     14  F   LIG    1       22.802 -18.553   4.820  0.00  0.00    -0.205 F 
ATOM     15  O   LIG    1       23.091 -22.601   7.371  0.00  0.00    -0.354 OA
ATOM     16  C   LIG    1       24.435 -21.746   4.196  0.00  0.00    +0.016 A 
ATOM     17  N   LIG    1       23.688 -23.827   7.142  0.00  0.00    -0.082 NA
ENDBRANCH   5   8
ENDBRANCH   1   2
BRANCH   1  18
ATOM     18  C   LIG    1       25.825 -29.088   8.140  0.00  0.00    +0.058 C 
BRANCH  18  21
ATOM     19  C   LIG    1       26.777 -28.175  10.973  0.00  0.00    +0.066 C 
ATOM     20  C   LIG    1       25.534 -28.994  10.687  0.00  0.00    +0.049 C 
ATOM     21  C   LIG    1       25.116 -29.368   9.460  0.00  0.00    +0.039 C 
ATOM     22  C   LIG    1       23.816 -30.113   9.413  0.00  0.00    +0.258 C 
ATOM     23  O   LIG    1       23.337 -30.511   8.366  0.00  0.00    -0.267 OA
ATOM     24  N   LIG    1       23.150 -30.288  10.602  0.00  0.00    -0.294 N 
ATOM     25  C   LIG    1       21.749 -30.678  10.512  0.00  0.00    +0.127 C 
ATOM     26  C   LIG    1       21.177 -31.299  11.771  0.00  0.00    +0.025 C 
ATOM     27  C   LIG    1       21.576 -30.470  12.982  0.00  0.00    +0.041 C 
ATOM     28  C   LIG    1       23.089 -30.389  13.081  0.00  0.00    +0.180 C 
ATOM     29  C   LIG    1       23.744 -29.935  11.778  0.00  0.00    +0.141 C 
ATOM     30  N   LIG    1       24.890 -29.336  11.851  0.00  0.00    -0.236 NA
BRANCH  28  31
ATOM     31  O   LIG    1       23.607 -31.685  13.388  0.00  0.00    -0.384 OA
ATOM     32  H   LIG    1       23.931 -32.053  12.544  0.00  0.00    +0.210 HD
ENDBRANCH  28  31
ENDBRANCH  18  21
ENDBRANCH   1  18
TORSDOF 5
ENDMDL
MODEL 9
REMARK VINA RESULT:      -7.7      6.164      9.797
REMARK  Name = *****
REMARK                            x       y       z     vdW  Elec       q    Type
REMARK                         _______ _______ _______ _____ _____    ______ ____
ROOT
ATOM      1  C   LIG    1       25.956 -30.636   7.503  0.00  0.00    +0.089 C 
ENDROOT
BRANCH   1   2
ATOM      2  N   LIG    1       24.986 -30.728   6.394  0.00  0.00    -0.302 NA
ATOM      3  C   LIG    1       23.767 -29.946   6.680  0.00  0.00    +0.085 C 
ATOM      4  C   LIG    1       24.049 -28.453   6.847  0.00  0.00    +0.025 C 
ATOM      5  C   LIG    1       24.802 -27.879   5.635  0.00  0.00    +0.044 C 
ATOM      6  C   LIG    1       25.912 -28.808   5.099  0.00  0.00    +0.025 C 
ATOM      7  C   LIG    1       25.535 -30.290   5.114  0.00  0.00    +0.085 C 
BRANCH   5   8
ATOM      8  C   LIG    1       25.324 -26.492   5.920  0.00  0.00    +0.095 A 
ATOM      9  C   LIG    1       24.621 -25.295   6.260  0.00  0.00    +0.045 A 
ATOM     10  C   LIG    1       25.628 -24.358   6.431  0.00  0.00    +0.170 A 
ATOM     11  C   LIG    1       25.424 -23.029   6.796  0.00  0.00    +0.088 A 
ATOM     12  C   LIG    1       24.098 -22.652   6.991  0.00  0.00    +0.127 A 
ATOM     13  C   LIG    1       23.044 -23.547   6.824  0.00  0.00    +0.039 A 
ATOM     14  F   LIG    1       23.827 -21.391   7.350  0.00  0.00    -0.205 F 
ATOM     15  O   LIG    1       26.830 -24.941   6.190  0.00  0.00    -0.354 OA
ATOM     16  C   LIG    1       23.289 -24.878   6.456  0.00  0.00    +0.016 A 
ATOM     17  N   LIG    1       26.647 -26.273   5.868  0.00  0.00    -0.082 NA
ENDBRANCH   5   8
ENDBRANCH   1   2
BRANCH   1  18
ATOM     18  C   LIG    1       25.587 -31.394   8.802  0.00  0.00    +0.058 C 
BRANCH  18  21
ATOM     19  C   LIG    1       22.912 -30.475  10.131  0.00  0.00    +0.066 C 
ATOM     20  C   LIG    1       24.302 -30.135  10.630  0.00  0.00    +0.049 C 
ATOM     21  C   LIG    1       25.454 -30.552  10.065  0.00  0.00    +0.039 C 
ATOM     22  C   LIG    1       26.712 -30.152  10.776  0.00  0.00    +0.258 C 
ATOM     23  O   LIG    1       27.814 -30.461  10.360  0.00  0.00    -0.267 OA
ATOM     24  N   LIG    1       26.573 -29.461  11.955  0.00  0.00    -0.294 N 
ATOM     25  C   LIG    1       27.749 -29.393  12.812  0.00  0.00    +0.127 C 
ATOM     26  C   LIG    1       27.726 -28.281  13.842  0.00  0.00    +0.025 C 
ATOM     27  C   LIG    1       26.374 -28.252  14.538  0.00  0.00    +0.041 C 
ATOM     28  C   LIG    1       25.268 -28.042  13.519  0.00  0.00    +0.180 C 
ATOM     29  C   LIG    1       25.342 -29.028  12.355  0.00  0.00    +0.141 C 
ATOM     30  N   LIG    1       24.244 -29.316  11.731  0.00  0.00    -0.236 NA
BRANCH  28  31
ATOM     31  O   LIG    1       25.380 -26.728  12.971  0.00  0.00    -0.384 OA
ATOM     32  H   LIG    1       25.097 -26.115  13.676  0.00  0.00    +0.210 HD
ENDBRANCH  28  31
ENDBRANCH  18  21
ENDBRANCH   1  18
TORSDOF 5
ENDMDL
