MODEL 1
REMARK VINA RESULT:      -8.4      0.000      0.000
REMARK  Name = *****
REMARK                            x       y       z     vdW  Elec       q    Type
REMARK                         _______ _______ _______ _____ _____    ______ ____
ROOT
ATOM      1  C   LIG    1       29.145 -20.187   6.846  0.00  0.00    +0.112 C 
ATOM      2  C   LIG    1       28.681 -20.956   8.109  0.00  0.00    +0.101 C 
ATOM      3  N   LIG    1       27.417 -21.715   7.980  0.00  0.00    -0.297 NA
ATOM      4  C   LIG    1       27.609 -22.925   7.172  0.00  0.00    +0.105 C 
ATOM      5  C   LIG    1       26.349 -20.816   7.442  0.00  0.00    +0.091 C 
ATOM      6  C   LIG    1       26.750 -20.187   6.079  0.00  0.00    -0.025 C 
ATOM      7  C   LIG    1       25.699 -19.902   5.076  0.00  0.00    -0.011 C 
ATOM      8  C   LIG    1       24.415 -20.345   5.422  0.00  0.00    +0.010 C 
ATOM      9  C   LIG    1       23.329 -20.151   4.581  0.00  0.00    +0.047 C 
ATOM     10  N   LIG    1       22.239 -20.702   5.218  0.00  0.00    -0.360 NA
ATOM     11  H   LIG    1       21.301 -20.717   4.842  0.00  0.00    +0.165 HD
ATOM     12  C   LIG    1       22.615 -21.240   6.425  0.00  0.00    +0.087 C 
ATOM     13  C   LIG    1       23.455 -19.513   3.345  0.00  0.00    +0.026 C 
ATOM     14  C   LIG    1       24.734 -19.067   2.993  0.00  0.00    +0.003 C 
ATOM     15  C   LIG    1       23.969 -21.036   6.568  0.00  0.00    -0.020 C 
ATOM     16  C   LIG    1       25.835 -19.252   3.840  0.00  0.00    +0.009 C 
ATOM     17  C   LIG    1       24.919 -21.445   7.631  0.00  0.00    +0.060 C 
ATOM     18  C   LIG    1       28.049 -19.909   5.838  0.00  0.00    -0.007 C 
ENDROOT
BRANCH   1  21
ATOM     19  N   LIG    1       30.000 -18.680   8.597  0.00  0.00    -0.310 N 
ATOM     20  H   LIG    1       29.514 -19.298   9.234  0.00  0.00    +0.149 HD
ATOM     21  C   LIG    1       29.835 -18.867   7.236  0.00  0.00    +0.221 C 
ATOM     22  O   LIG    1       30.213 -18.061   6.402  0.00  0.00    -0.275 OA
BRANCH  19  23
ATOM     23  CA  LIG    1       30.599 -17.473   9.175  0.00  0.00    +0.098 C 
BRANCH  23  25
ATOM     24  C   LIG    1       31.324 -17.290  11.629  0.00  0.00    +0.005 C 
ATOM     25  C   LIG    1       30.161 -17.350  10.648  0.00  0.00    +0.021 C 
ENDBRANCH  23  25
BRANCH  23  26
ATOM     26  C   LIG    1       32.131 -17.548   9.005  0.00  0.00    +0.177 C 
BRANCH  26  27
ATOM     27  O   LIG    1       32.684 -16.285   8.627  0.00  0.00    -0.393 OA
ATOM     28  H   LIG    1       32.912 -15.792   9.432  0.00  0.00    +0.209 HD
ENDBRANCH  26  27
ENDBRANCH  23  26
ENDBRANCH  19  23
ENDBRANCH   1  21
TORSDOF 5
ENDMDL
MODEL 2
REMARK VINA RESULT:      -7.6      1.418      1.562
REMARK  Name = *****
REMARK                            x       y       z     vdW  Elec       q    Type
REMARK                         _______ _______ _______ _____ _____    ______ ____
ROOT
ATOM      1  C   LIG    1       28.444 -21.544   7.381  0.00  0.00    +0.112 C 
ATOM      2  C   LIG    1       27.509 -22.252   8.395  0.00  0.00    +0.101 C 
ATOM      3  N   LIG    1       26.130 -22.522   7.928  0.00  0.00    -0.297 NA
ATOM      4  C   LIG    1       26.109 -23.625   6.960  0.00  0.00    +0.105 C 
ATOM      5  C   LIG    1       25.531 -21.261   7.392  0.00  0.00    +0.091 C 
ATOM      6  C   LIG    1       26.386 -20.651   6.247  0.00  0.00    -0.025 C 
ATOM      7  C   LIG    1       25.712 -19.916   5.153  0.00  0.00    -0.011 C 
ATOM      8  C   LIG    1       24.311 -19.938   5.200  0.00  0.00    +0.010 C 
ATOM      9  C   LIG    1       23.542 -19.295   4.240  0.00  0.00    +0.047 C 
ATOM     10  N   LIG    1       22.226 -19.517   4.583  0.00  0.00    -0.360 NA
ATOM     11  H   LIG    1       21.432 -19.172   4.062  0.00  0.00    +0.165 HD
ATOM     12  C   LIG    1       22.153 -20.285   5.720  0.00  0.00    +0.087 C 
ATOM     13  C   LIG    1       24.118 -18.599   3.176  0.00  0.00    +0.026 C 
ATOM     14  C   LIG    1       25.516 -18.571   3.123  0.00  0.00    +0.003 C 
ATOM     15  C   LIG    1       23.441 -20.566   6.116  0.00  0.00    -0.020 C 
ATOM     16  C   LIG    1       26.301 -19.212   4.091  0.00  0.00    +0.009 C 
ATOM     17  C   LIG    1       23.971 -21.390   7.230  0.00  0.00    +0.060 C 
ATOM     18  C   LIG    1       27.727 -20.801   6.274  0.00  0.00    -0.007 C 
ENDROOT
BRANCH   1  21
ATOM     19  N   LIG    1       29.405 -19.289   7.627  0.00  0.00    -0.310 N 
ATOM     20  H   LIG    1       28.938 -19.097   6.750  0.00  0.00    +0.149 HD
ATOM     21  C   LIG    1       29.407 -20.587   8.107  0.00  0.00    +0.221 C 
ATOM     22  O   LIG    1       30.104 -20.951   9.040  0.00  0.00    -0.275 OA
BRANCH  19  23
ATOM     23  CA  LIG    1       30.276 -18.235   8.157  0.00  0.00    +0.098 C 
BRANCH  23  25
ATOM     24  C   LIG    1       30.553 -16.710  10.200  0.00  0.00    +0.005 C 
ATOM     25  C   LIG    1       29.894 -17.956   9.623  0.00  0.00    +0.021 C 
ENDBRANCH  23  25
BRANCH  23  26
ATOM     26  C   LIG    1       31.745 -18.674   7.988  0.00  0.00    +0.177 C 
BRANCH  26  27
ATOM     27  O   LIG    1       32.251 -19.295   9.172  0.00  0.00    -0.393 OA
ATOM     28  H   LIG    1       32.017 -18.744   9.937  0.00  0.00    +0.209 HD
ENDBRANCH  26  27
ENDBRANCH  23  26
ENDBRANCH  19  23
ENDBRANCH   1  21
TORSDOF 5
ENDMDL
MODEL 3
REMARK VINA RESULT:      -7.1      4.278      7.200
REMARK  Name = *****
REMARK                            x       y       z     vdW  Elec       q    Type
REMARK                         _______ _______ _______ _____ _____    ______ ____
ROOT
ATOM      1  C   LIG    1       24.209 -22.745   7.352  0.00  0.00    +0.112 C 
ATOM      2  C   LIG    1       25.467 -23.014   8.218  0.00  0.00    +0.101 C 
ATOM      3  N   LIG    1       26.456 -21.914   8.287  0.00  0.00    -0.297 NA
ATOM      4  C   LIG    1       25.966 -20.818   9.132  0.00  0.00    +0.105 C 
ATOM      5  C   LIG    1       26.807 -21.473   6.902  0.00  0.00    +0.091 C 
ATOM      6  C   LIG    1       25.554 -21.031   6.096  0.00  0.00    -0.025 C 
ATOM      7  C   LIG    1       25.684 -19.955   5.088  0.00  0.00    -0.011 C 
ATOM      8  C   LIG    1       26.944 -19.343   5.034  0.00  0.00    +0.010 C 
ATOM      9  C   LIG    1       27.216 -18.317   4.141  0.00  0.00    +0.047 C 
ATOM     10  N   LIG    1       28.526 -17.950   4.355  0.00  0.00    -0.360 NA
ATOM     11  H   LIG    1       29.007 -17.218   3.851  0.00  0.00    +0.165 HD
ATOM     12  C   LIG    1       29.075 -18.710   5.360  0.00  0.00    +0.087 C 
ATOM     13  C   LIG    1       26.252 -17.835   3.253  0.00  0.00    +0.026 C 
ATOM     14  C   LIG    1       24.992 -18.442   3.299  0.00  0.00    +0.003 C 
ATOM     15  C   LIG    1       28.103 -19.578   5.803  0.00  0.00    -0.020 C 
ATOM     16  C   LIG    1       24.711 -19.484   4.193  0.00  0.00    +0.009 C 
ATOM     17  C   LIG    1       28.105 -20.583   6.895  0.00  0.00    +0.060 C 
ATOM     18  C   LIG    1       24.372 -21.639   6.329  0.00  0.00    -0.007 C 
ENDROOT
BRANCH   1  21
ATOM     19  N   LIG    1       24.771 -24.835   6.176  0.00  0.00    -0.310 N 
ATOM     20  H   LIG    1       25.709 -24.456   6.148  0.00  0.00    +0.149 HD
ATOM     21  C   LIG    1       23.747 -24.034   6.650  0.00  0.00    +0.221 C 
ATOM     22  O   LIG    1       22.567 -24.325   6.537  0.00  0.00    -0.275 OA
BRANCH  19  23
ATOM     23  CA  LIG    1       24.541 -26.085   5.445  0.00  0.00    +0.098 C 
BRANCH  23  25
ATOM     24  C   LIG    1       26.823 -27.116   4.894  0.00  0.00    +0.005 C 
ATOM     25  C   LIG    1       25.658 -26.271   4.400  0.00  0.00    +0.021 C 
ENDBRANCH  23  25
BRANCH  23  26
ATOM     26  C   LIG    1       24.462 -27.246   6.458  0.00  0.00    +0.177 C 
BRANCH  26  27
ATOM     27  O   LIG    1       23.766 -28.372   5.920  0.00  0.00    -0.393 OA
ATOM     28  H   LIG    1       24.031 -29.166   6.413  0.00  0.00    +0.209 HD
ENDBRANCH  26  27
ENDBRANCH  23  26
ENDBRANCH  19  23
ENDBRANCH   1  21
TORSDOF 5
ENDMDL
MODEL 4
REMARK VINA RESULT:      -7.0      4.527      7.110
REMARK  Name = *****
REMARK                            x       y       z     vdW  Elec       q    Type
REMARK                         _______ _______ _______ _____ _____    ______ ____
ROOT
ATOM      1  C   LIG    1       24.957 -23.724   7.234  0.00  0.00    +0.112 C 
ATOM      2  C   LIG    1       26.460 -23.344   7.177  0.00  0.00    +0.101 C 
ATOM      3  N   LIG    1       26.761 -21.922   6.898  0.00  0.00    -0.297 NA
ATOM      4  C   LIG    1       26.474 -21.084   8.068  0.00  0.00    +0.105 C 
ATOM      5  C   LIG    1       26.022 -21.488   5.672  0.00  0.00    +0.091 C 
ATOM      6  C   LIG    1       24.489 -21.705   5.808  0.00  0.00    -0.025 C 
ATOM      7  C   LIG    1       23.563 -20.768   5.135  0.00  0.00    -0.011 C 
ATOM      8  C   LIG    1       24.177 -19.675   4.510  0.00  0.00    +0.010 C 
ATOM      9  C   LIG    1       23.438 -18.710   3.840  0.00  0.00    +0.047 C 
ATOM     10  N   LIG    1       24.342 -17.792   3.354  0.00  0.00    -0.360 NA
ATOM     11  H   LIG    1       24.096 -16.968   2.823  0.00  0.00    +0.165 HD
ATOM     12  C   LIG    1       25.621 -18.150   3.709  0.00  0.00    +0.087 C 
ATOM     13  C   LIG    1       22.045 -18.772   3.757  0.00  0.00    +0.026 C 
ATOM     14  C   LIG    1       21.424 -19.862   4.377  0.00  0.00    +0.003 C 
ATOM     15  C   LIG    1       25.540 -19.316   4.437  0.00  0.00    -0.020 C 
ATOM     16  C   LIG    1       22.163 -20.844   5.050  0.00  0.00    +0.009 C 
ATOM     17  C   LIG    1       26.580 -20.126   5.117  0.00  0.00    +0.060 C 
ATOM     18  C   LIG    1       24.033 -22.747   6.536  0.00  0.00    -0.007 C 
ENDROOT
BRANCH   1  21
ATOM     19  N   LIG    1       25.777 -26.021   6.888  0.00  0.00    -0.310 N 
ATOM     20  H   LIG    1       26.661 -25.654   7.217  0.00  0.00    +0.149 HD
ATOM     21  C   LIG    1       24.732 -25.139   6.672  0.00  0.00    +0.221 C 
ATOM     22  O   LIG    1       23.705 -25.452   6.094  0.00  0.00    -0.275 OA
BRANCH  19  23
ATOM     23  CA  LIG    1       25.775 -27.403   6.400  0.00  0.00    +0.098 C 
BRANCH  23  25
ATOM     24  C   LIG    1       24.059 -29.209   5.788  0.00  0.00    +0.005 C 
ATOM     25  C   LIG    1       24.406 -28.043   6.704  0.00  0.00    +0.021 C 
ENDBRANCH  23  25
BRANCH  23  26
ATOM     26  C   LIG    1       26.120 -27.400   4.897  0.00  0.00    +0.177 C 
BRANCH  26  27
ATOM     27  O   LIG    1       27.530 -27.329   4.677  0.00  0.00    -0.393 OA
ATOM     28  H   LIG    1       27.980 -27.342   5.538  0.00  0.00    +0.209 HD
ENDBRANCH  26  27
ENDBRANCH  23  26
ENDBRANCH  19  23
ENDBRANCH   1  21
TORSDOF 5
ENDMDL
MODEL 5
REMARK VINA RESULT:      -6.8      5.800      8.640
REMARK  Name = *****
REMARK                            x       y       z     vdW  Elec       q    Type
REMARK                         _______ _______ _______ _____ _____    ______ ____
ROOT
ATOM      1  C   LIG    1       26.015 -27.068   6.768  0.00  0.00    +0.112 C 
ATOM      2  C   LIG    1       24.668 -27.294   6.035  0.00  0.00    +0.101 C 
ATOM      3  N   LIG    1       24.053 -26.096   5.420  0.00  0.00    -0.297 NA
ATOM      4  C   LIG    1       24.779 -25.695   4.208  0.00  0.00    +0.105 C 
ATOM      5  C   LIG    1       23.967 -25.004   6.438  0.00  0.00    +0.091 C 
ATOM      6  C   LIG    1       25.356 -24.657   7.040  0.00  0.00    -0.025 C 
ATOM      7  C   LIG    1       25.639 -23.264   7.453  0.00  0.00    -0.011 C 
ATOM      8  C   LIG    1       24.631 -22.339   7.147  0.00  0.00    +0.010 C 
ATOM      9  C   LIG    1       24.755 -20.996   7.471  0.00  0.00    +0.047 C 
ATOM     10  N   LIG    1       23.603 -20.381   7.033  0.00  0.00    -0.360 NA
ATOM     11  H   LIG    1       23.407 -19.394   7.126  0.00  0.00    +0.165 HD
ATOM     12  C   LIG    1       22.770 -21.299   6.438  0.00  0.00    +0.087 C 
ATOM     13  C   LIG    1       25.889 -20.490   8.110  0.00  0.00    +0.026 C 
ATOM     14  C   LIG    1       26.900 -21.408   8.420  0.00  0.00    +0.003 C 
ATOM     15  C   LIG    1       23.396 -22.524   6.492  0.00  0.00    -0.020 C 
ATOM     16  C   LIG    1       26.780 -22.767   8.103  0.00  0.00    +0.009 C 
ATOM     17  C   LIG    1       23.002 -23.854   5.965  0.00  0.00    +0.060 C 
ATOM     18  C   LIG    1       26.277 -25.634   7.178  0.00  0.00    -0.007 C 
ENDROOT
BRANCH   1  21
ATOM     19  N   LIG    1       25.632 -29.266   7.813  0.00  0.00    -0.310 N 
ATOM     20  H   LIG    1       25.082 -29.458   6.985  0.00  0.00    +0.149 HD
ATOM     21  C   LIG    1       26.125 -27.986   7.999  0.00  0.00    +0.221 C 
ATOM     22  O   LIG    1       26.621 -27.609   9.048  0.00  0.00    -0.275 OA
BRANCH  19  23
ATOM     23  CA  LIG    1       25.608 -30.280   8.872  0.00  0.00    +0.098 C 
BRANCH  23  25
ATOM     24  C   LIG    1       24.324 -29.801  11.040  0.00  0.00    +0.005 C 
ATOM     25  C   LIG    1       24.241 -30.234   9.582  0.00  0.00    +0.021 C 
ENDBRANCH  23  25
BRANCH  23  26
ATOM     26  C   LIG    1       25.920 -31.656   8.249  0.00  0.00    +0.177 C 
BRANCH  26  27
ATOM     27  O   LIG    1       26.675 -31.532   7.042  0.00  0.00    -0.393 OA
ATOM     28  H   LIG    1       27.233 -32.320   6.941  0.00  0.00    +0.209 HD
ENDBRANCH  26  27
ENDBRANCH  23  26
ENDBRANCH  19  23
ENDBRANCH   1  21
TORSDOF 5
ENDMDL
MODEL 6
REMARK VINA RESULT:      -6.7      8.868     11.847
REMARK  Name = *****
REMARK                            x       y       z     vdW  Elec       q    Type
REMARK                         _______ _______ _______ _____ _____    ______ ____
ROOT
ATOM      1  C   LIG    1       25.165 -30.033  10.374  0.00  0.00    +0.112 C 
ATOM      2  C   LIG    1       26.609 -29.493  10.211  0.00  0.00    +0.101 C 
ATOM      3  N   LIG    1       27.167 -28.768  11.374  0.00  0.00    -0.297 NA
ATOM      4  C   LIG    1       27.513 -29.698  12.457  0.00  0.00    +0.105 C 
ATOM      5  C   LIG    1       26.210 -27.702  11.803  0.00  0.00    +0.091 C 
ATOM      6  C   LIG    1       24.807 -28.279  12.140  0.00  0.00    -0.025 C 
ATOM      7  C   LIG    1       23.994 -27.635  13.196  0.00  0.00    -0.011 C 
ATOM      8  C   LIG    1       24.636 -26.599  13.888  0.00  0.00    +0.010 C 
ATOM      9  C   LIG    1       24.001 -25.903  14.907  0.00  0.00    +0.047 C 
ATOM     10  N   LIG    1       24.905 -24.970  15.365  0.00  0.00    -0.360 NA
ATOM     11  H   LIG    1       24.725 -24.316  16.114  0.00  0.00    +0.165 HD
ATOM     12  C   LIG    1       26.086 -25.071  14.669  0.00  0.00    +0.087 C 
ATOM     13  C   LIG    1       22.694 -26.199  15.301  0.00  0.00    +0.026 C 
ATOM     14  C   LIG    1       22.046 -27.231  14.613  0.00  0.00    +0.003 C 
ATOM     15  C   LIG    1       25.943 -26.085  13.750  0.00  0.00    -0.020 C 
ATOM     16  C   LIG    1       22.677 -27.935  13.579  0.00  0.00    +0.009 C 
ATOM     17  C   LIG    1       26.895 -26.672  12.775  0.00  0.00    +0.060 C 
ATOM     18  C   LIG    1       24.357 -29.355  11.461  0.00  0.00    -0.007 C 
ENDROOT
BRANCH   1  21
ATOM     19  N   LIG    1       25.056 -29.263   8.037  0.00  0.00    -0.310 N 
ATOM     20  H   LIG    1       25.869 -28.710   8.281  0.00  0.00    +0.149 HD
ATOM     21  C   LIG    1       24.402 -29.957   9.039  0.00  0.00    +0.221 C 
ATOM     22  O   LIG    1       23.312 -30.481   8.884  0.00  0.00    -0.275 OA
BRANCH  19  23
ATOM     23  CA  LIG    1       24.483 -29.044   6.705  0.00  0.00    +0.098 C 
BRANCH  23  25
ATOM     24  C   LIG    1       24.345 -26.561   6.075  0.00  0.00    +0.005 C 
ATOM     25  C   LIG    1       25.180 -27.834   6.050  0.00  0.00    +0.021 C 
ENDBRANCH  23  25
BRANCH  23  26
ATOM     26  C   LIG    1       24.626 -30.341   5.883  0.00  0.00    +0.177 C 
BRANCH  26  27
ATOM     27  O   LIG    1       23.386 -31.044   5.784  0.00  0.00    -0.393 OA
ATOM     28  H   LIG    1       23.561 -31.939   5.449  0.00  0.00    +0.209 HD
ENDBRANCH  26  27
ENDBRANCH  23  26
ENDBRANCH  19  23
ENDBRANCH   1  21
TORSDOF 5
ENDMDL
MODEL 7
REMARK VINA RESULT:      -6.6      8.984     11.700
REMARK  Name = *****
REMARK                            x       y       z     vdW  Elec       q    Type
REMARK                         _______ _______ _______ _____ _____    ______ ____
ROOT
ATOM      1  C   LIG    1       24.857 -29.988   8.080  0.00  0.00    +0.112 C 
ATOM      2  C   LIG    1       26.015 -29.382   8.913  0.00  0.00    +0.101 C 
ATOM      3  N   LIG    1       25.964 -29.628  10.372  0.00  0.00    -0.297 NA
ATOM      4  C   LIG    1       26.312 -31.020  10.684  0.00  0.00    +0.105 C 
ATOM      5  C   LIG    1       24.622 -29.229  10.897  0.00  0.00    +0.091 C 
ATOM      6  C   LIG    1       23.468 -29.979  10.176  0.00  0.00    -0.025 C 
ATOM      7  C   LIG    1       22.236 -30.307  10.929  0.00  0.00    -0.011 C 
ATOM      8  C   LIG    1       22.277 -29.997  12.295  0.00  0.00    +0.010 C 
ATOM      9  C   LIG    1       21.198 -30.249  13.130  0.00  0.00    +0.047 C 
ATOM     10  N   LIG    1       21.571 -29.832  14.388  0.00  0.00    -0.360 NA
ATOM     11  H   LIG    1       20.988 -29.894  15.211  0.00  0.00    +0.165 HD
ATOM     12  C   LIG    1       22.853 -29.336  14.364  0.00  0.00    +0.087 C 
ATOM     13  C   LIG    1       20.018 -30.830  12.659  0.00  0.00    +0.026 C 
ATOM     14  C   LIG    1       19.969 -31.141  11.295  0.00  0.00    +0.003 C 
ATOM     15  C   LIG    1       23.314 -29.438  13.071  0.00  0.00    -0.020 C 
ATOM     16  C   LIG    1       21.052 -30.883  10.443  0.00  0.00    +0.009 C 
ATOM     17  C   LIG    1       24.630 -29.114  12.467  0.00  0.00    +0.060 C 
ATOM     18  C   LIG    1       23.610 -30.313   8.876  0.00  0.00    -0.007 C 
ENDROOT
BRANCH   1  21
ATOM     19  N   LIG    1       25.177 -27.861   6.878  0.00  0.00    -0.310 N 
ATOM     20  H   LIG    1       25.710 -27.589   7.695  0.00  0.00    +0.149 HD
ATOM     21  C   LIG    1       24.492 -29.064   6.904  0.00  0.00    +0.221 C 
ATOM     22  O   LIG    1       23.672 -29.381   6.059  0.00  0.00    -0.275 OA
BRANCH  19  23
ATOM     23  CA  LIG    1       24.948 -26.828   5.864  0.00  0.00    +0.098 C 
BRANCH  23  25
ATOM     24  C   LIG    1       23.711 -24.666   6.478  0.00  0.00    +0.005 C 
ATOM     25  C   LIG    1       25.021 -25.441   6.533  0.00  0.00    +0.021 C 
ENDBRANCH  23  25
BRANCH  23  26
ATOM     26  C   LIG    1       25.979 -27.007   4.731  0.00  0.00    +0.177 C 
BRANCH  26  27
ATOM     27  O   LIG    1       27.316 -27.055   5.234  0.00  0.00    -0.393 OA
ATOM     28  H   LIG    1       27.839 -26.363   4.797  0.00  0.00    +0.209 HD
ENDBRANCH  26  27
ENDBRANCH  23  26
ENDBRANCH  19  23
ENDBRANCH   1  21
TORSDOF 5
ENDMDL
MODEL 8
REMARK VINA RESULT:      -6.6      8.265     10.440
REMARK  Name = *****
REMARK                            x       y       z     vdW  Elec       q    Type
REMARK                         _______ _______ _______ _____ _____    ______ ____
ROOT
ATOM      1  C   LIG    1       26.850 -28.902  11.278  0.00  0.00    +0.112 C 
ATOM      2  C   LIG    1       26.144 -30.280  11.357  0.00  0.00    +0.101 C 
ATOM      3  N   LIG    1       25.834 -30.926  10.062  0.00  0.00    -0.297 NA
ATOM      4  C   LIG    1       27.051 -31.455   9.433  0.00  0.00    +0.105 C 
ATOM      5  C   LIG    1       25.097 -29.963   9.188  0.00  0.00    +0.091 C 
ATOM      6  C   LIG    1       25.895 -28.649   8.965  0.00  0.00    -0.025 C 
ATOM      7  C   LIG    1       25.760 -27.929   7.680  0.00  0.00    -0.011 C 
ATOM      8  C   LIG    1       24.984 -28.583   6.713  0.00  0.00    +0.010 C 
ATOM      9  C   LIG    1       24.770 -28.031   5.458  0.00  0.00    +0.047 C 
ATOM     10  N   LIG    1       23.978 -28.923   4.770  0.00  0.00    -0.360 NA
ATOM     11  H   LIG    1       23.659 -28.794   3.820  0.00  0.00    +0.165 HD
ATOM     12  C   LIG    1       23.700 -30.018   5.554  0.00  0.00    +0.087 C 
ATOM     13  C   LIG    1       25.318 -26.802   5.087  0.00  0.00    +0.026 C 
ATOM     14  C   LIG    1       26.094 -26.141   6.047  0.00  0.00    +0.003 C 
ATOM     15  C   LIG    1       24.325 -29.829   6.766  0.00  0.00    -0.020 C 
ATOM     16  C   LIG    1       26.310 -26.688   7.320  0.00  0.00    +0.009 C 
ATOM     17  C   LIG    1       24.422 -30.693   7.969  0.00  0.00    +0.060 C 
ATOM     18  C   LIG    1       26.695 -28.188   9.951  0.00  0.00    -0.007 C 
ENDROOT
BRANCH   1  21
ATOM     19  N   LIG    1       25.147 -28.317  12.959  0.00  0.00    -0.310 N 
ATOM     20  H   LIG    1       24.572 -28.994  12.474  0.00  0.00    +0.149 HD
ATOM     21  C   LIG    1       26.376 -27.982  12.418  0.00  0.00    +0.221 C 
ATOM     22  O   LIG    1       27.045 -27.042  12.814  0.00  0.00    -0.275 OA
BRANCH  19  23
ATOM     23  CA  LIG    1       24.503 -27.546  14.027  0.00  0.00    +0.098 C 
BRANCH  23  25
ATOM     24  C   LIG    1       22.140 -26.819  13.342  0.00  0.00    +0.005 C 
ATOM     25  C   LIG    1       23.617 -26.454  13.394  0.00  0.00    +0.021 C 
ENDBRANCH  23  25
BRANCH  23  26
ATOM     26  C   LIG    1       23.714 -28.514  14.932  0.00  0.00    +0.177 C 
BRANCH  26  27
ATOM     27  O   LIG    1       23.746 -29.852  14.431  0.00  0.00    -0.393 OA
ATOM     28  H   LIG    1       24.669 -30.095  14.252  0.00  0.00    +0.209 HD
ENDBRANCH  26  27
ENDBRANCH  23  26
ENDBRANCH  19  23
ENDBRANCH   1  21
TORSDOF 5
ENDMDL
MODEL 9
REMARK VINA RESULT:      -6.5      9.650     12.233
REMARK  Name = *****
REMARK                            x       y       z     vdW  Elec       q    Type
REMARK                         _______ _______ _______ _____ _____    ______ ____
ROOT
ATOM      1  C   LIG    1       24.267 -31.009  10.097  0.00  0.00    +0.112 C 
ATOM      2  C   LIG    1       25.771 -30.739  10.359  0.00  0.00    +0.101 C 
ATOM      3  N   LIG    1       26.100 -30.091  11.649  0.00  0.00    -0.297 NA
ATOM      4  C   LIG    1       25.955 -31.034  12.765  0.00  0.00    +0.105 C 
ATOM      5  C   LIG    1       25.267 -28.859  11.812  0.00  0.00    +0.091 C 
ATOM      6  C   LIG    1       23.747 -29.167  11.728  0.00  0.00    -0.025 C 
ATOM      7  C   LIG    1       22.799 -28.358  12.526  0.00  0.00    -0.011 C 
ATOM      8  C   LIG    1       23.395 -27.432  13.393  0.00  0.00    +0.010 C 
ATOM      9  C   LIG    1       22.634 -26.604  14.206  0.00  0.00    +0.047 C 
ATOM     10  N   LIG    1       23.524 -25.833  14.921  0.00  0.00    -0.360 NA
ATOM     11  H   LIG    1       23.261 -25.135  15.603  0.00  0.00    +0.165 HD
ATOM     12  C   LIG    1       24.816 -26.163  14.584  0.00  0.00    +0.087 C 
ATOM     13  C   LIG    1       21.238 -26.651  14.210  0.00  0.00    +0.026 C 
ATOM     14  C   LIG    1       20.636 -27.572  13.345  0.00  0.00    +0.003 C 
ATOM     15  C   LIG    1       24.757 -27.163  13.640  0.00  0.00    -0.020 C 
ATOM     16  C   LIG    1       21.396 -28.407  12.515  0.00  0.00    +0.009 C 
ATOM     17  C   LIG    1       25.824 -27.939  12.961  0.00  0.00    +0.060 C 
ATOM     18  C   LIG    1       23.321 -30.166  10.927  0.00  0.00    -0.007 C 
ENDROOT
BRANCH   1  21
ATOM     19  N   LIG    1       24.521 -29.738   8.003  0.00  0.00    -0.310 N 
ATOM     20  H   LIG    1       24.954 -29.037   8.592  0.00  0.00    +0.149 HD
ATOM     21  C   LIG    1       23.936 -30.839   8.603  0.00  0.00    +0.221 C 
ATOM     22  O   LIG    1       23.224 -31.625   8.002  0.00  0.00    -0.275 OA
BRANCH  19  23
ATOM     23  CA  LIG    1       24.301 -29.377   6.599  0.00  0.00    +0.098 C 
BRANCH  23  25
ATOM     24  C   LIG    1       25.374 -27.529   5.179  0.00  0.00    +0.005 C 
ATOM     25  C   LIG    1       24.559 -27.868   6.420  0.00  0.00    +0.021 C 
ENDBRANCH  23  25
BRANCH  23  26
ATOM     26  C   LIG    1       25.210 -30.254   5.713  0.00  0.00    +0.177 C 
BRANCH  26  27
ATOM     27  O   LIG    1       24.497 -31.361   5.157  0.00  0.00    -0.393 OA
ATOM     28  H   LIG    1       23.961 -31.043   4.411  0.00  0.00    +0.209 HD
ENDBRANCH  26  27
ENDBRANCH  23  26
ENDBRANCH  19  23
ENDBRANCH   1  21
TORSDOF 5
ENDMDL
