MODEL 1
REMARK VINA RESULT:      -5.7      0.000      0.000
REMARK  Name = *****
REMARK                            x       y       z     vdW  Elec       q    Type
REMARK                         _______ _______ _______ _____ _____    ______ ____
ROOT
ATOM      1  C   LIG    1       28.238 -20.741   6.563  0.00  0.00    +0.157 A 
ATOM      2  S   LIG    1       27.956 -19.687   5.240  0.00  0.00    -0.052 S 
ATOM      3  C   LIG    1       26.275 -20.064   5.295  0.00  0.00    +0.044 A 
ATOM      4  C   LIG    1       26.059 -20.969   6.335  0.00  0.00    +0.081 A 
ATOM      5  C   LIG    1       24.747 -21.415   6.580  0.00  0.00    +0.032 A 
ATOM      6  C   LIG    1       23.701 -20.962   5.770  0.00  0.00    +0.048 A 
ATOM      7  C   LIG    1       23.939 -20.086   4.711  0.00  0.00    +0.131 A 
ATOM      8  C   LIG    1       25.228 -19.596   4.474  0.00  0.00    +0.063 A 
ATOM      9  N   LIG    1       27.187 -21.348   7.039  0.00  0.00    -0.225 NA
ENDROOT
BRANCH   1  10
ATOM     10  N   LIG    1       29.475 -20.932   7.057  0.00  0.00    -0.338 N 
ATOM     11  H   LIG    1       30.140 -21.455   6.506  0.00  0.00    +0.144 HD
ATOM     12  H   LIG    1       29.525 -21.105   8.055  0.00  0.00    +0.144 HD
ENDBRANCH   1  10
BRANCH   7  13
ATOM     13  O   LIG    1       22.823 -19.766   3.990  0.00  0.00    -0.406 OA
BRANCH  13  14
ATOM     14  C   LIG    1       22.191 -18.531   4.287  0.00  0.00    +0.575 C 
ATOM     15  F   LIG    1       22.975 -17.498   3.913  0.00  0.00    -0.133 F 
ATOM     16  F   LIG    1       22.001 -18.458   5.624  0.00  0.00    -0.133 F 
ATOM     17  F   LIG    1       20.985 -18.420   3.690  0.00  0.00    -0.133 F 
ENDBRANCH  13  14
ENDBRANCH   7  13
TORSDOF 3
ENDMDL
MODEL 2
REMARK VINA RESULT:      -5.5      1.191      2.108
REMARK  Name = *****
REMARK                            x       y       z     vdW  Elec       q    Type
REMARK                         _______ _______ _______ _____ _____    ______ ____
ROOT
ATOM      1  C   LIG    1       28.350 -20.563   6.388  0.00  0.00    +0.157 A 
ATOM      2  S   LIG    1       26.868 -21.363   6.709  0.00  0.00    -0.052 S 
ATOM      3  C   LIG    1       26.086 -20.397   5.515  0.00  0.00    +0.044 A 
ATOM      4  C   LIG    1       27.030 -19.536   4.954  0.00  0.00    +0.081 A 
ATOM      5  C   LIG    1       26.621 -18.653   3.938  0.00  0.00    +0.032 A 
ATOM      6  C   LIG    1       25.283 -18.643   3.530  0.00  0.00    +0.048 A 
ATOM      7  C   LIG    1       24.343 -19.483   4.126  0.00  0.00    +0.131 A 
ATOM      8  C   LIG    1       24.735 -20.399   5.109  0.00  0.00    +0.063 A 
ATOM      9  N   LIG    1       28.310 -19.640   5.468  0.00  0.00    -0.225 NA
ENDROOT
BRANCH   1  10
ATOM     10  N   LIG    1       29.474 -20.870   7.062  0.00  0.00    -0.338 N 
ATOM     11  H   LIG    1       30.358 -20.543   6.699  0.00  0.00    +0.144 HD
ATOM     12  H   LIG    1       29.502 -21.799   7.467  0.00  0.00    +0.144 HD
ENDBRANCH   1  10
BRANCH   7  13
ATOM     13  O   LIG    1       23.072 -19.328   3.647  0.00  0.00    -0.406 OA
BRANCH  13  14
ATOM     14  C   LIG    1       22.164 -18.587   4.445  0.00  0.00    +0.575 C 
ATOM     15  F   LIG    1       22.086 -19.115   5.684  0.00  0.00    -0.133 F 
ATOM     16  F   LIG    1       20.940 -18.655   3.875  0.00  0.00    -0.133 F 
ATOM     17  F   LIG    1       22.510 -17.284   4.532  0.00  0.00    -0.133 F 
ENDBRANCH  13  14
ENDBRANCH   7  13
TORSDOF 3
ENDMDL
MODEL 3
REMARK VINA RESULT:      -4.1      4.047      4.869
REMARK  Name = *****
REMARK                            x       y       z     vdW  Elec       q    Type
REMARK                         _______ _______ _______ _____ _____    ______ ____
ROOT
ATOM      1  C   LIG    1       25.839 -14.542   3.492  0.00  0.00    +0.157 A 
ATOM      2  S   LIG    1       24.216 -14.634   4.035  0.00  0.00    -0.052 S 
ATOM      3  C   LIG    1       24.261 -16.351   3.888  0.00  0.00    +0.044 A 
ATOM      4  C   LIG    1       25.529 -16.723   3.438  0.00  0.00    +0.081 A 
ATOM      5  C   LIG    1       25.806 -18.089   3.254  0.00  0.00    +0.032 A 
ATOM      6  C   LIG    1       24.808 -19.036   3.504  0.00  0.00    +0.048 A 
ATOM      7  C   LIG    1       23.535 -18.647   3.918  0.00  0.00    +0.131 A 
ATOM      8  C   LIG    1       23.248 -17.297   4.148  0.00  0.00    +0.063 A 
ATOM      9  N   LIG    1       26.410 -15.681   3.211  0.00  0.00    -0.225 NA
ENDROOT
BRANCH   1  10
ATOM     10  N   LIG    1       26.467 -13.360   3.354  0.00  0.00    -0.338 N 
ATOM     11  H   LIG    1       27.342 -13.220   3.840  0.00  0.00    +0.144 HD
ATOM     12  H   LIG    1       25.865 -12.545   3.326  0.00  0.00    +0.144 HD
ENDBRANCH   1  10
BRANCH   7  13
ATOM     13  O   LIG    1       22.659 -19.684   4.083  0.00  0.00    -0.406 OA
BRANCH  13  14
ATOM     14  C   LIG    1       22.791 -20.461   5.262  0.00  0.00    +0.575 C 
ATOM     15  F   LIG    1       23.956 -21.143   5.250  0.00  0.00    -0.133 F 
ATOM     16  F   LIG    1       21.776 -21.354   5.301  0.00  0.00    -0.133 F 
ATOM     17  F   LIG    1       22.723 -19.706   6.379  0.00  0.00    -0.133 F 
ENDBRANCH  13  14
ENDBRANCH   7  13
TORSDOF 3
ENDMDL
MODEL 4
REMARK VINA RESULT:      -3.9      4.633      5.620
REMARK  Name = *****
REMARK                            x       y       z     vdW  Elec       q    Type
REMARK                         _______ _______ _______ _____ _____    ______ ____
ROOT
ATOM      1  C   LIG    1       23.101 -19.985   4.414  0.00  0.00    +0.157 A 
ATOM      2  S   LIG    1       24.706 -20.047   3.814  0.00  0.00    -0.052 S 
ATOM      3  C   LIG    1       24.745 -18.326   3.735  0.00  0.00    +0.044 A 
ATOM      4  C   LIG    1       23.519 -17.834   4.185  0.00  0.00    +0.081 A 
ATOM      5  C   LIG    1       23.321 -16.442   4.222  0.00  0.00    +0.032 A 
ATOM      6  C   LIG    1       24.341 -15.588   3.791  0.00  0.00    +0.048 A 
ATOM      7  C   LIG    1       25.548 -16.095   3.309  0.00  0.00    +0.131 A 
ATOM      8  C   LIG    1       25.783 -17.475   3.301  0.00  0.00    +0.063 A 
ATOM      9  N   LIG    1       22.594 -18.792   4.560  0.00  0.00    -0.225 NA
ENDROOT
BRANCH   1  10
ATOM     10  N   LIG    1       22.414 -21.107   4.699  0.00  0.00    -0.338 N 
ATOM     11  H   LIG    1       21.479 -21.207   4.329  0.00  0.00    +0.144 HD
ATOM     12  H   LIG    1       22.537 -21.469   5.638  0.00  0.00    +0.144 HD
ENDBRANCH   1  10
BRANCH   7  13
ATOM     13  O   LIG    1       26.428 -15.138   2.889  0.00  0.00    -0.406 OA
BRANCH  13  14
ATOM     14  C   LIG    1       27.370 -14.663   3.838  0.00  0.00    +0.575 C 
ATOM     15  F   LIG    1       28.254 -13.831   3.249  0.00  0.00    -0.133 F 
ATOM     16  F   LIG    1       28.048 -15.722   4.335  0.00  0.00    -0.133 F 
ATOM     17  F   LIG    1       26.775 -14.028   4.871  0.00  0.00    -0.133 F 
ENDBRANCH  13  14
ENDBRANCH   7  13
TORSDOF 3
ENDMDL
MODEL 5
REMARK VINA RESULT:      -3.7      4.610      5.765
REMARK  Name = *****
REMARK                            x       y       z     vdW  Elec       q    Type
REMARK                         _______ _______ _______ _____ _____    ______ ____
ROOT
ATOM      1  C   LIG    1       24.017 -19.518   3.756  0.00  0.00    +0.157 A 
ATOM      2  S   LIG    1       22.739 -18.493   4.264  0.00  0.00    -0.052 S 
ATOM      3  C   LIG    1       23.753 -17.117   4.043  0.00  0.00    +0.044 A 
ATOM      4  C   LIG    1       24.997 -17.552   3.587  0.00  0.00    +0.081 A 
ATOM      5  C   LIG    1       25.993 -16.594   3.322  0.00  0.00    +0.032 A 
ATOM      6  C   LIG    1       25.723 -15.240   3.540  0.00  0.00    +0.048 A 
ATOM      7  C   LIG    1       24.487 -14.823   4.032  0.00  0.00    +0.131 A 
ATOM      8  C   LIG    1       23.467 -15.753   4.263  0.00  0.00    +0.063 A 
ATOM      9  N   LIG    1       25.131 -18.921   3.437  0.00  0.00    -0.225 NA
ENDROOT
BRANCH   1  10
ATOM     10  N   LIG    1       23.868 -20.854   3.710  0.00  0.00    -0.338 N 
ATOM     11  H   LIG    1       24.289 -21.412   4.439  0.00  0.00    +0.144 HD
ATOM     12  H   LIG    1       23.912 -21.267   2.785  0.00  0.00    +0.144 HD
ENDBRANCH   1  10
BRANCH   7  13
ATOM     13  O   LIG    1       24.390 -13.473   4.228  0.00  0.00    -0.406 OA
BRANCH  13  14
ATOM     14  C   LIG    1       24.199 -12.663   3.080  0.00  0.00    +0.575 C 
ATOM     15  F   LIG    1       23.525 -13.344   2.129  0.00  0.00    -0.133 F 
ATOM     16  F   LIG    1       25.412 -12.330   2.585  0.00  0.00    -0.133 F 
ATOM     17  F   LIG    1       23.539 -11.521   3.367  0.00  0.00    -0.133 F 
ENDBRANCH  13  14
ENDBRANCH   7  13
TORSDOF 3
ENDMDL
MODEL 6
REMARK VINA RESULT:      -3.6      4.041      4.979
REMARK  Name = *****
REMARK                            x       y       z     vdW  Elec       q    Type
REMARK                         _______ _______ _______ _____ _____    ______ ____
ROOT
ATOM      1  C   LIG    1       25.274 -14.552   3.675  0.00  0.00    +0.157 A 
ATOM      2  S   LIG    1       26.150 -15.978   3.300  0.00  0.00    -0.052 S 
ATOM      3  C   LIG    1       24.768 -16.932   3.688  0.00  0.00    +0.044 A 
ATOM      4  C   LIG    1       23.733 -16.077   4.069  0.00  0.00    +0.081 A 
ATOM      5  C   LIG    1       22.491 -16.635   4.422  0.00  0.00    +0.032 A 
ATOM      6  C   LIG    1       22.327 -18.024   4.403  0.00  0.00    +0.048 A 
ATOM      7  C   LIG    1       23.382 -18.867   4.054  0.00  0.00    +0.131 A 
ATOM      8  C   LIG    1       24.614 -18.334   3.660  0.00  0.00    +0.063 A 
ATOM      9  N   LIG    1       24.041 -14.728   4.063  0.00  0.00    -0.225 NA
ENDROOT
BRANCH   1  10
ATOM     10  N   LIG    1       25.841 -13.335   3.583  0.00  0.00    -0.338 N 
ATOM     11  H   LIG    1       25.658 -12.778   2.760  0.00  0.00    +0.144 HD
ATOM     12  H   LIG    1       26.788 -13.266   3.937  0.00  0.00    +0.144 HD
ENDBRANCH   1  10
BRANCH   7  13
ATOM     13  O   LIG    1       23.078 -20.198   4.120  0.00  0.00    -0.406 OA
BRANCH  13  14
ATOM     14  C   LIG    1       23.039 -20.791   5.408  0.00  0.00    +0.575 C 
ATOM     15  F   LIG    1       24.123 -21.571   5.601  0.00  0.00    -0.133 F 
ATOM     16  F   LIG    1       21.936 -21.569   5.488  0.00  0.00    -0.133 F 
ATOM     17  F   LIG    1       22.968 -19.868   6.391  0.00  0.00    -0.133 F 
ENDBRANCH  13  14
ENDBRANCH   7  13
TORSDOF 3
ENDMDL
MODEL 7
REMARK VINA RESULT:      -3.5      3.146      3.989
REMARK  Name = *****
REMARK                            x       y       z     vdW  Elec       q    Type
REMARK                         _______ _______ _______ _____ _____    ______ ____
ROOT
ATOM      1  C   LIG    1       28.724 -20.349   6.279  0.00  0.00    +0.157 A 
ATOM      2  S   LIG    1       29.462 -18.819   6.046  0.00  0.00    -0.052 S 
ATOM      3  C   LIG    1       28.153 -18.339   5.033  0.00  0.00    +0.044 A 
ATOM      4  C   LIG    1       27.242 -19.393   4.958  0.00  0.00    +0.081 A 
ATOM      5  C   LIG    1       26.077 -19.225   4.188  0.00  0.00    +0.032 A 
ATOM      6  C   LIG    1       25.868 -18.023   3.505  0.00  0.00    +0.048 A 
ATOM      7  C   LIG    1       26.805 -16.992   3.560  0.00  0.00    +0.131 A 
ATOM      8  C   LIG    1       27.952 -17.120   4.351  0.00  0.00    +0.063 A 
ATOM      9  N   LIG    1       27.587 -20.530   5.666  0.00  0.00    -0.225 NA
ENDROOT
BRANCH   1  10
ATOM     10  N   LIG    1       29.301 -21.299   7.038  0.00  0.00    -0.338 N 
ATOM     11  H   LIG    1       29.691 -22.111   6.580  0.00  0.00    +0.144 HD
ATOM     12  H   LIG    1       28.842 -21.492   7.920  0.00  0.00    +0.144 HD
ENDBRANCH   1  10
BRANCH   7  13
ATOM     13  O   LIG    1       26.477 -15.898   2.809  0.00  0.00    -0.406 OA
BRANCH  13  14
ATOM     14  C   LIG    1       25.796 -14.842   3.466  0.00  0.00    +0.575 C 
ATOM     15  F   LIG    1       24.579 -15.250   3.880  0.00  0.00    -0.133 F 
ATOM     16  F   LIG    1       25.628 -13.828   2.586  0.00  0.00    -0.133 F 
ATOM     17  F   LIG    1       26.493 -14.366   4.520  0.00  0.00    -0.133 F 
ENDBRANCH  13  14
ENDBRANCH   7  13
TORSDOF 3
ENDMDL
MODEL 8
REMARK VINA RESULT:      -3.4      4.191      4.918
REMARK  Name = *****
REMARK                            x       y       z     vdW  Elec       q    Type
REMARK                         _______ _______ _______ _____ _____    ______ ____
ROOT
ATOM      1  C   LIG    1       26.654 -14.222   3.500  0.00  0.00    +0.157 A 
ATOM      2  S   LIG    1       25.056 -14.029   4.090  0.00  0.00    -0.052 S 
ATOM      3  C   LIG    1       24.786 -15.723   3.920  0.00  0.00    +0.044 A 
ATOM      4  C   LIG    1       25.952 -16.309   3.428  0.00  0.00    +0.081 A 
ATOM      5  C   LIG    1       25.973 -17.700   3.218  0.00  0.00    +0.032 A 
ATOM      6  C   LIG    1       24.827 -18.456   3.486  0.00  0.00    +0.048 A 
ATOM      7  C   LIG    1       23.657 -17.850   3.942  0.00  0.00    +0.131 A 
ATOM      8  C   LIG    1       23.625 -16.475   4.198  0.00  0.00    +0.063 A 
ATOM      9  N   LIG    1       27.001 -15.440   3.188  0.00  0.00    -0.225 NA
ENDROOT
BRANCH   1  10
ATOM     10  N   LIG    1       27.482 -13.171   3.359  0.00  0.00    -0.338 N 
ATOM     11  H   LIG    1       28.115 -13.158   2.572  0.00  0.00    +0.144 HD
ATOM     12  H   LIG    1       27.872 -12.802   4.219  0.00  0.00    +0.144 HD
ENDBRANCH   1  10
BRANCH   7  13
ATOM     13  O   LIG    1       22.613 -18.714   4.120  0.00  0.00    -0.406 OA
BRANCH  13  14
ATOM     14  C   LIG    1       22.778 -19.741   5.084  0.00  0.00    +0.575 C 
ATOM     15  F   LIG    1       22.390 -19.311   6.303  0.00  0.00    -0.133 F 
ATOM     16  F   LIG    1       24.090 -20.064   5.145  0.00  0.00    -0.133 F 
ATOM     17  F   LIG    1       22.091 -20.857   4.761  0.00  0.00    -0.133 F 
ENDBRANCH  13  14
ENDBRANCH   7  13
TORSDOF 3
ENDMDL
MODEL 9
REMARK VINA RESULT:      -3.3      4.397      5.567
REMARK  Name = *****
REMARK                            x       y       z     vdW  Elec       q    Type
REMARK                         _______ _______ _______ _____ _____    ______ ____
ROOT
ATOM      1  C   LIG    1       23.773 -20.002   4.085  0.00  0.00    +0.157 A 
ATOM      2  S   LIG    1       22.605 -18.813   4.486  0.00  0.00    -0.052 S 
ATOM      3  C   LIG    1       23.723 -17.570   4.070  0.00  0.00    +0.044 A 
ATOM      4  C   LIG    1       24.911 -18.167   3.646  0.00  0.00    +0.081 A 
ATOM      5  C   LIG    1       25.975 -17.342   3.240  0.00  0.00    +0.032 A 
ATOM      6  C   LIG    1       25.829 -15.952   3.290  0.00  0.00    +0.048 A 
ATOM      7  C   LIG    1       24.649 -15.369   3.751  0.00  0.00    +0.131 A 
ATOM      8  C   LIG    1       23.562 -16.169   4.120  0.00  0.00    +0.063 A 
ATOM      9  N   LIG    1       24.923 -19.550   3.668  0.00  0.00    -0.225 NA
ENDROOT
BRANCH   1  10
ATOM     10  N   LIG    1       23.510 -21.316   4.212  0.00  0.00    -0.338 N 
ATOM     11  H   LIG    1       24.135 -21.881   4.770  0.00  0.00    +0.144 HD
ATOM     12  H   LIG    1       23.157 -21.774   3.380  0.00  0.00    +0.144 HD
ENDBRANCH   1  10
BRANCH   7  13
ATOM     13  O   LIG    1       24.673 -14.003   3.776  0.00  0.00    -0.406 OA
BRANCH  13  14
ATOM     14  C   LIG    1       25.644 -13.387   4.606  0.00  0.00    +0.575 C 
ATOM     15  F   LIG    1       25.132 -12.284   5.192  0.00  0.00    -0.133 F 
ATOM     16  F   LIG    1       26.691 -13.012   3.836  0.00  0.00    -0.133 F 
ATOM     17  F   LIG    1       26.107 -14.227   5.556  0.00  0.00    -0.133 F 
ENDBRANCH  13  14
ENDBRANCH   7  13
TORSDOF 3
ENDMDL
