MODEL 1
REMARK VINA RESULT:      -7.9      0.000      0.000
REMARK  Name = *****
REMARK                            x       y       z     vdW  Elec       q    Type
REMARK                         _______ _______ _______ _____ _____    ______ ____
ROOT
ATOM      1  C   LIG    1       27.474 -19.900   5.489  0.00  0.00    +0.025 C 
ATOM      2  C   LIG    1       27.457 -20.703   6.806  0.00  0.00    +0.069 C 
ENDROOT
BRANCH   2   3
ATOM      3  N   LIG    1       26.062 -20.818   7.338  0.00  0.00    -0.281 NA
ATOM      4  C   LIG    1       25.012 -20.540   6.322  0.00  0.00    +0.181 C 
ATOM      5  C   LIG    1       24.894 -21.648   5.274  0.00  0.00    +0.233 C 
ATOM      6  O   LIG    1       24.508 -21.436   4.125  0.00  0.00    -0.274 OA
ATOM      7  N   LIG    1       25.193 -22.920   5.690  0.00  0.00    -0.254 N 
ATOM      8  H   LIG    1       25.138 -23.656   4.999  0.00  0.00    +0.158 HD
ATOM      9  C   LIG    1       25.696 -23.258   6.922  0.00  0.00    +0.233 C 
ATOM     10  O   LIG    1       26.046 -24.404   7.179  0.00  0.00    -0.274 OA
ATOM     11  C   LIG    1       25.739 -22.130   7.952  0.00  0.00    +0.181 C 
ENDBRANCH   2   3
BRANCH   2  12
ATOM     12  C   LIG    1       28.456 -20.032   7.820  0.00  0.00    +0.104 C 
BRANCH  12  13
ATOM     13  N   LIG    1       29.666 -19.392   7.246  0.00  0.00    -0.284 NA
ATOM     14  C   LIG    1       29.850 -18.020   7.783  0.00  0.00    +0.181 C 
ATOM     15  C   LIG    1       30.253 -18.020   9.259  0.00  0.00    +0.233 C 
ATOM     16  O   LIG    1       30.001 -17.085  10.019  0.00  0.00    -0.274 OA
ATOM     17  N   LIG    1       30.978 -19.103   9.688  0.00  0.00    -0.254 N 
ATOM     18  H   LIG    1       31.296 -19.095  10.647  0.00  0.00    +0.158 HD
ATOM     19  C   LIG    1       31.402 -20.145   8.902  0.00  0.00    +0.233 C 
ATOM     20  O   LIG    1       32.190 -20.982   9.334  0.00  0.00    -0.274 OA
ATOM     21  C   LIG    1       30.919 -20.152   7.453  0.00  0.00    +0.181 C 
ENDBRANCH  12  13
ENDBRANCH   2  12
TORSDOF 3
ENDMDL
MODEL 2
REMARK VINA RESULT:      -7.8      2.031      3.074
REMARK  Name = *****
REMARK                            x       y       z     vdW  Elec       q    Type
REMARK                         _______ _______ _______ _____ _____    ______ ____
ROOT
ATOM      1  C   LIG    1       25.859 -22.447   8.356  0.00  0.00    +0.025 C 
ATOM      2  C   LIG    1       25.815 -21.245   7.390  0.00  0.00    +0.069 C 
ENDROOT
BRANCH   2   3
ATOM      3  N   LIG    1       25.568 -21.705   5.986  0.00  0.00    -0.281 NA
ATOM      4  C   LIG    1       24.945 -23.052   5.901  0.00  0.00    +0.181 C 
ATOM      5  C   LIG    1       23.482 -23.057   6.349  0.00  0.00    +0.233 C 
ATOM      6  O   LIG    1       22.941 -24.049   6.837  0.00  0.00    -0.274 OA
ATOM      7  N   LIG    1       22.770 -21.904   6.132  0.00  0.00    -0.254 N 
ATOM      8  H   LIG    1       21.809 -21.891   6.444  0.00  0.00    +0.158 HD
ATOM      9  C   LIG    1       23.290 -20.725   5.660  0.00  0.00    +0.233 C 
ATOM     10  O   LIG    1       22.613 -19.704   5.603  0.00  0.00    -0.274 OA
ATOM     11  C   LIG    1       24.736 -20.786   5.171  0.00  0.00    +0.181 C 
ENDBRANCH   2   3
BRANCH   2  12
ATOM     12  C   LIG    1       27.146 -20.420   7.549  0.00  0.00    +0.104 C 
BRANCH  12  13
ATOM     13  N   LIG    1       28.380 -21.019   6.982  0.00  0.00    -0.284 NA
ATOM     14  C   LIG    1       28.903 -20.200   5.859  0.00  0.00    +0.181 C 
ATOM     15  C   LIG    1       29.477 -18.863   6.331  0.00  0.00    +0.233 C 
ATOM     16  O   LIG    1       29.516 -17.864   5.612  0.00  0.00    -0.274 OA
ATOM     17  N   LIG    1       30.016 -18.846   7.592  0.00  0.00    -0.254 N 
ATOM     18  H   LIG    1       30.445 -17.985   7.900  0.00  0.00    +0.158 HD
ATOM     19  C   LIG    1       30.119 -19.927   8.433  0.00  0.00    +0.233 C 
ATOM     20  O   LIG    1       30.768 -19.857   9.472  0.00  0.00    -0.274 OA
ATOM     21  C   LIG    1       29.469 -21.227   7.963  0.00  0.00    +0.181 C 
ENDBRANCH  12  13
ENDBRANCH   2  12
TORSDOF 3
ENDMDL
MODEL 3
REMARK VINA RESULT:      -7.4      1.237      2.123
REMARK  Name = *****
REMARK                            x       y       z     vdW  Elec       q    Type
REMARK                         _______ _______ _______ _____ _____    ______ ____
ROOT
ATOM      1  C   LIG    1       27.494 -19.559   5.345  0.00  0.00    +0.025 C 
ATOM      2  C   LIG    1       27.568 -20.889   6.124  0.00  0.00    +0.069 C 
ENDROOT
BRANCH   2   3
ATOM      3  N   LIG    1       26.398 -21.027   7.048  0.00  0.00    -0.281 NA
ATOM      4  C   LIG    1       25.101 -20.646   6.428  0.00  0.00    +0.181 C 
ATOM      5  C   LIG    1       24.624 -21.659   5.385  0.00  0.00    +0.233 C 
ATOM      6  O   LIG    1       23.915 -21.343   4.430  0.00  0.00    -0.274 OA
ATOM      7  N   LIG    1       24.982 -22.967   5.590  0.00  0.00    -0.254 N 
ATOM      8  H   LIG    1       24.689 -23.639   4.896  0.00  0.00    +0.158 HD
ATOM      9  C   LIG    1       25.823 -23.416   6.579  0.00  0.00    +0.233 C 
ATOM     10  O   LIG    1       26.188 -24.586   6.627  0.00  0.00    -0.274 OA
ATOM     11  C   LIG    1       26.224 -22.381   7.628  0.00  0.00    +0.181 C 
ENDBRANCH   2   3
BRANCH   2  12
ATOM     12  C   LIG    1       28.956 -20.965   6.862  0.00  0.00    +0.104 C 
BRANCH  12  13
ATOM     13  N   LIG    1       29.005 -20.453   8.255  0.00  0.00    -0.284 NA
ATOM     14  C   LIG    1       29.809 -21.349   9.124  0.00  0.00    +0.181 C 
ATOM     15  C   LIG    1       31.302 -21.296   8.794  0.00  0.00    +0.233 C 
ATOM     16  O   LIG    1       32.066 -22.237   9.010  0.00  0.00    -0.274 OA
ATOM     17  N   LIG    1       31.770 -20.106   8.297  0.00  0.00    -0.254 N 
ATOM     18  H   LIG    1       32.763 -20.038   8.122  0.00  0.00    +0.158 HD
ATOM     19  C   LIG    1       31.028 -18.966   8.118  0.00  0.00    +0.233 C 
ATOM     20  O   LIG    1       31.566 -17.901   7.830  0.00  0.00    -0.274 OA
ATOM     21  C   LIG    1       29.527 -19.075   8.385  0.00  0.00    +0.181 C 
ENDBRANCH  12  13
ENDBRANCH   2  12
TORSDOF 3
ENDMDL
MODEL 4
REMARK VINA RESULT:      -7.1      1.831      2.129
REMARK  Name = *****
REMARK                            x       y       z     vdW  Elec       q    Type
REMARK                         _______ _______ _______ _____ _____    ______ ____
ROOT
ATOM      1  C   LIG    1       25.756 -20.352   6.260  0.00  0.00    +0.025 C 
ATOM      2  C   LIG    1       26.543 -21.530   6.870  0.00  0.00    +0.069 C 
ENDROOT
BRANCH   2   3
ATOM      3  N   LIG    1       25.634 -22.424   7.654  0.00  0.00    -0.281 NA
ATOM      4  C   LIG    1       24.200 -22.039   7.568  0.00  0.00    +0.181 C 
ATOM      5  C   LIG    1       23.591 -22.326   6.194  0.00  0.00    +0.233 C 
ATOM      6  O   LIG    1       22.656 -21.672   5.733  0.00  0.00    -0.274 OA
ATOM      7  N   LIG    1       24.105 -23.396   5.507  0.00  0.00    -0.254 N 
ATOM      8  H   LIG    1       23.723 -23.581   4.590  0.00  0.00    +0.158 HD
ATOM      9  C   LIG    1       25.187 -24.147   5.897  0.00  0.00    +0.233 C 
ATOM     10  O   LIG    1       25.658 -25.015   5.171  0.00  0.00    -0.274 OA
ATOM     11  C   LIG    1       25.722 -23.862   7.299  0.00  0.00    +0.181 C 
ENDBRANCH   2   3
BRANCH   2  12
ATOM     12  C   LIG    1       27.734 -20.953   7.723  0.00  0.00    +0.104 C 
BRANCH  12  13
ATOM     13  N   LIG    1       29.107 -21.220   7.226  0.00  0.00    -0.284 NA
ATOM     14  C   LIG    1       29.448 -20.324   6.091  0.00  0.00    +0.181 C 
ATOM     15  C   LIG    1       29.628 -18.870   6.531  0.00  0.00    +0.233 C 
ATOM     16  O   LIG    1       29.436 -17.917   5.775  0.00  0.00    -0.274 OA
ATOM     17  N   LIG    1       30.085 -18.676   7.810  0.00  0.00    -0.254 N 
ATOM     18  H   LIG    1       30.258 -17.724   8.099  0.00  0.00    +0.158 HD
ATOM     19  C   LIG    1       30.429 -19.667   8.695  0.00  0.00    +0.233 C 
ATOM     20  O   LIG    1       30.989 -19.399   9.755  0.00  0.00    -0.274 OA
ATOM     21  C   LIG    1       30.166 -21.105   8.253  0.00  0.00    +0.181 C 
ENDBRANCH  12  13
ENDBRANCH   2  12
TORSDOF 3
ENDMDL
MODEL 5
REMARK VINA RESULT:      -6.9      4.031      7.333
REMARK  Name = *****
REMARK                            x       y       z     vdW  Elec       q    Type
REMARK                         _______ _______ _______ _____ _____    ______ ____
ROOT
ATOM      1  C   LIG    1       23.274 -23.667   6.537  0.00  0.00    +0.025 C 
ATOM      2  C   LIG    1       24.745 -23.705   7.001  0.00  0.00    +0.069 C 
ENDROOT
BRANCH   2   3
ATOM      3  N   LIG    1       25.534 -22.614   6.347  0.00  0.00    -0.281 NA
ATOM      4  C   LIG    1       24.694 -21.623   5.622  0.00  0.00    +0.181 C 
ATOM      5  C   LIG    1       23.893 -20.723   6.566  0.00  0.00    +0.233 C 
ATOM      6  O   LIG    1       22.815 -20.222   6.248  0.00  0.00    -0.274 OA
ATOM      7  N   LIG    1       24.463 -20.450   7.783  0.00  0.00    -0.254 N 
ATOM      8  H   LIG    1       23.932 -19.874   8.421  0.00  0.00    +0.158 HD
ATOM      9  C   LIG    1       25.622 -21.008   8.263  0.00  0.00    +0.233 C 
ATOM     10  O   LIG    1       26.006 -20.801   9.409  0.00  0.00    -0.274 OA
ATOM     11  C   LIG    1       26.414 -21.851   7.266  0.00  0.00    +0.181 C 
ENDBRANCH   2   3
BRANCH   2  12
ATOM     12  C   LIG    1       25.324 -25.142   6.724  0.00  0.00    +0.104 C 
BRANCH  12  13
ATOM     13  N   LIG    1       24.630 -25.959   5.696  0.00  0.00    -0.284 NA
ATOM     14  C   LIG    1       25.539 -26.276   4.565  0.00  0.00    +0.181 C 
ATOM     15  C   LIG    1       26.638 -27.265   4.960  0.00  0.00    +0.233 C 
ATOM     16  O   LIG    1       27.730 -27.306   4.395  0.00  0.00    -0.274 OA
ATOM     17  N   LIG    1       26.319 -28.163   5.947  0.00  0.00    -0.254 N 
ATOM     18  H   LIG    1       27.015 -28.855   6.185  0.00  0.00    +0.158 HD
ATOM     19  C   LIG    1       25.099 -28.271   6.567  0.00  0.00    +0.233 C 
ATOM     20  O   LIG    1       24.853 -29.213   7.315  0.00  0.00    -0.274 OA
ATOM     21  C   LIG    1       24.049 -27.222   6.205  0.00  0.00    +0.181 C 
ENDBRANCH  12  13
ENDBRANCH   2  12
TORSDOF 3
ENDMDL
MODEL 6
REMARK VINA RESULT:      -6.9      4.270      7.348
REMARK  Name = *****
REMARK                            x       y       z     vdW  Elec       q    Type
REMARK                         _______ _______ _______ _____ _____    ______ ____
ROOT
ATOM      1  C   LIG    1       22.586 -23.484   6.549  0.00  0.00    +0.025 C 
ATOM      2  C   LIG    1       24.024 -23.977   6.808  0.00  0.00    +0.069 C 
ENDROOT
BRANCH   2   3
ATOM      3  N   LIG    1       25.022 -23.048   6.188  0.00  0.00    -0.281 NA
ATOM      4  C   LIG    1       24.406 -21.859   5.540  0.00  0.00    +0.181 C 
ATOM      5  C   LIG    1       23.839 -20.862   6.552  0.00  0.00    +0.233 C 
ATOM      6  O   LIG    1       22.891 -20.121   6.293  0.00  0.00    -0.274 OA
ATOM      7  N   LIG    1       24.475 -20.789   7.765  0.00  0.00    -0.254 N 
ATOM      8  H   LIG    1       24.095 -20.148   8.447  0.00  0.00    +0.158 HD
ATOM      9  C   LIG    1       25.493 -21.611   8.181  0.00  0.00    +0.233 C 
ATOM     10  O   LIG    1       25.932 -21.559   9.325  0.00  0.00    -0.274 OA
ATOM     11  C   LIG    1       26.064 -22.549   7.119  0.00  0.00    +0.181 C 
ENDBRANCH   2   3
BRANCH   2  12
ATOM     12  C   LIG    1       24.150 -25.459   6.292  0.00  0.00    +0.104 C 
BRANCH  12  13
ATOM     13  N   LIG    1       25.457 -25.860   5.713  0.00  0.00    -0.284 NA
ATOM     14  C   LIG    1       26.416 -26.246   6.780  0.00  0.00    +0.181 C 
ATOM     15  C   LIG    1       26.036 -27.565   7.456  0.00  0.00    +0.233 C 
ATOM     16  O   LIG    1       26.355 -27.836   8.613  0.00  0.00    -0.274 OA
ATOM     17  N   LIG    1       25.366 -28.474   6.677  0.00  0.00    -0.254 N 
ATOM     18  H   LIG    1       25.152 -29.369   7.092  0.00  0.00    +0.158 HD
ATOM     19  C   LIG    1       25.055 -28.315   5.349  0.00  0.00    +0.233 C 
ATOM     20  O   LIG    1       24.607 -29.249   4.690  0.00  0.00    -0.274 OA
ATOM     21  C   LIG    1       25.381 -26.959   4.725  0.00  0.00    +0.181 C 
ENDBRANCH  12  13
ENDBRANCH   2  12
TORSDOF 3
ENDMDL
MODEL 7
REMARK VINA RESULT:      -6.5      1.222      6.138
REMARK  Name = *****
REMARK                            x       y       z     vdW  Elec       q    Type
REMARK                         _______ _______ _______ _____ _____    ______ ____
ROOT
ATOM      1  C   LIG    1       28.758 -19.064   5.866  0.00  0.00    +0.025 C 
ATOM      2  C   LIG    1       29.237 -19.829   7.117  0.00  0.00    +0.069 C 
ENDROOT
BRANCH   2   3
ATOM      3  N   LIG    1       30.723 -20.010   7.089  0.00  0.00    -0.281 NA
ATOM      4  C   LIG    1       31.481 -18.781   7.447  0.00  0.00    +0.181 C 
ATOM      5  C   LIG    1       31.372 -18.430   8.932  0.00  0.00    +0.233 C 
ATOM      6  O   LIG    1       31.456 -17.275   9.349  0.00  0.00    -0.274 OA
ATOM      7  N   LIG    1       31.227 -19.481   9.801  0.00  0.00    -0.254 N 
ATOM      8  H   LIG    1       31.134 -19.258  10.782  0.00  0.00    +0.158 HD
ATOM      9  C   LIG    1       31.055 -20.795   9.441  0.00  0.00    +0.233 C 
ATOM     10  O   LIG    1       30.816 -21.662  10.274  0.00  0.00    -0.274 OA
ATOM     11  C   LIG    1       31.230 -21.103   7.955  0.00  0.00    +0.181 C 
ENDBRANCH   2   3
BRANCH   2  12
ATOM     12  C   LIG    1       28.447 -21.186   7.212  0.00  0.00    +0.104 C 
BRANCH  12  13
ATOM     13  N   LIG    1       27.206 -21.185   8.027  0.00  0.00    -0.284 NA
ATOM     14  C   LIG    1       26.150 -20.358   7.388  0.00  0.00    +0.181 C 
ATOM     15  C   LIG    1       25.601 -20.997   6.111  0.00  0.00    +0.233 C 
ATOM     16  O   LIG    1       25.115 -20.337   5.192  0.00  0.00    -0.274 OA
ATOM     17  N   LIG    1       25.618 -22.368   6.064  0.00  0.00    -0.254 N 
ATOM     18  H   LIG    1       25.213 -22.807   5.250  0.00  0.00    +0.158 HD
ATOM     19  C   LIG    1       26.039 -23.198   7.073  0.00  0.00    +0.233 C 
ATOM     20  O   LIG    1       25.858 -24.411   7.009  0.00  0.00    -0.274 OA
ATOM     21  C   LIG    1       26.651 -22.529   8.303  0.00  0.00    +0.181 C 
ENDBRANCH  12  13
ENDBRANCH   2  12
TORSDOF 3
ENDMDL
MODEL 8
REMARK VINA RESULT:      -6.4      1.304      2.311
REMARK  Name = *****
REMARK                            x       y       z     vdW  Elec       q    Type
REMARK                         _______ _______ _______ _____ _____    ______ ____
ROOT
ATOM      1  C   LIG    1       25.825 -20.906   8.853  0.00  0.00    +0.025 C 
ATOM      2  C   LIG    1       26.718 -20.343   7.728  0.00  0.00    +0.069 C 
ENDROOT
BRANCH   2   3
ATOM      3  N   LIG    1       26.826 -21.320   6.600  0.00  0.00    -0.281 NA
ATOM      4  C   LIG    1       25.946 -22.509   6.754  0.00  0.00    +0.181 C 
ATOM      5  C   LIG    1       24.464 -22.178   6.561  0.00  0.00    +0.233 C 
ATOM      6  O   LIG    1       23.566 -22.814   7.111  0.00  0.00    -0.274 OA
ATOM      7  N   LIG    1       24.172 -21.157   5.693  0.00  0.00    -0.254 N 
ATOM      8  H   LIG    1       23.198 -20.917   5.575  0.00  0.00    +0.158 HD
ATOM      9  C   LIG    1       25.094 -20.342   5.083  0.00  0.00    +0.233 C 
ATOM     10  O   LIG    1       24.749 -19.377   4.410  0.00  0.00    -0.274 OA
ATOM     11  C   LIG    1       26.556 -20.748   5.258  0.00  0.00    +0.181 C 
ENDBRANCH   2   3
BRANCH   2  12
ATOM     12  C   LIG    1       28.112 -19.945   8.342  0.00  0.00    +0.104 C 
BRANCH  12  13
ATOM     13  N   LIG    1       29.245 -19.796   7.395  0.00  0.00    -0.284 NA
ATOM     14  C   LIG    1       29.818 -18.427   7.460  0.00  0.00    +0.181 C 
ATOM     15  C   LIG    1       30.564 -18.170   8.772  0.00  0.00    +0.233 C 
ATOM     16  O   LIG    1       30.693 -17.045   9.255  0.00  0.00    -0.274 OA
ATOM     17  N   LIG    1       31.147 -19.263   9.361  0.00  0.00    -0.254 N 
ATOM     18  H   LIG    1       31.685 -19.103  10.200  0.00  0.00    +0.158 HD
ATOM     19  C   LIG    1       31.153 -20.538   8.853  0.00  0.00    +0.233 C 
ATOM     20  O   LIG    1       31.844 -21.417   9.362  0.00  0.00    -0.274 OA
ATOM     21  C   LIG    1       30.337 -20.776   7.584  0.00  0.00    +0.181 C 
ENDBRANCH  12  13
ENDBRANCH   2  12
TORSDOF 3
ENDMDL
MODEL 9
REMARK VINA RESULT:      -6.3      1.748      2.096
REMARK  Name = *****
REMARK                            x       y       z     vdW  Elec       q    Type
REMARK                         _______ _______ _______ _____ _____    ______ ____
ROOT
ATOM      1  C   LIG    1       25.904 -19.495   4.301  0.00  0.00    +0.025 C 
ATOM      2  C   LIG    1       26.137 -20.474   5.470  0.00  0.00    +0.069 C 
ENDROOT
BRANCH   2   3
ATOM      3  N   LIG    1       24.869 -20.696   6.234  0.00  0.00    -0.281 NA
ATOM      4  C   LIG    1       24.124 -21.913   5.813  0.00  0.00    +0.181 C 
ATOM      5  C   LIG    1       24.818 -23.208   6.239  0.00  0.00    +0.233 C 
ATOM      6  O   LIG    1       24.700 -24.261   5.612  0.00  0.00    -0.274 OA
ATOM      7  N   LIG    1       25.547 -23.160   7.400  0.00  0.00    -0.254 N 
ATOM      8  H   LIG    1       26.025 -24.006   7.678  0.00  0.00    +0.158 HD
ATOM      9  C   LIG    1       25.798 -22.029   8.136  0.00  0.00    +0.233 C 
ATOM     10  O   LIG    1       26.556 -22.047   9.099  0.00  0.00    -0.274 OA
ATOM     11  C   LIG    1       25.038 -20.776   7.706  0.00  0.00    +0.181 C 
ENDBRANCH   2   3
BRANCH   2  12
ATOM     12  C   LIG    1       27.312 -19.925   6.362  0.00  0.00    +0.104 C 
BRANCH  12  13
ATOM     13  N   LIG    1       28.693 -20.271   5.941  0.00  0.00    -0.284 NA
ATOM     14  C   LIG    1       29.579 -19.080   5.990  0.00  0.00    +0.181 C 
ATOM     15  C   LIG    1       29.869 -18.627   7.422  0.00  0.00    +0.233 C 
ATOM     16  O   LIG    1       30.145 -17.462   7.709  0.00  0.00    -0.274 OA
ATOM     17  N   LIG    1       29.871 -19.610   8.379  0.00  0.00    -0.254 N 
ATOM     18  H   LIG    1       30.110 -19.336   9.322  0.00  0.00    +0.158 HD
ATOM     19  C   LIG    1       29.681 -20.950   8.151  0.00  0.00    +0.233 C 
ATOM     20  O   LIG    1       29.869 -21.774   9.042  0.00  0.00    -0.274 OA
ATOM     21  C   LIG    1       29.319 -21.359   6.724  0.00  0.00    +0.181 C 
ENDBRANCH  12  13
ENDBRANCH   2  12
TORSDOF 3
ENDMDL
