MODEL 1
REMARK VINA RESULT:      -2.1      0.000      0.000
REMARK  Name = *****
REMARK                            x       y       z     vdW  Elec       q    Type
REMARK                         _______ _______ _______ _____ _____    ______ ____
ROOT
ATOM      1  O   LIG    1       26.291 -16.589   3.294  0.00  0.00    -0.461 OA
ENDROOT
BRANCH   1   6
ATOM      2  N   LIG    1       25.788 -12.640   3.781  0.00  0.00    +0.247 N 
ATOM      3  C   LIG    1       27.191 -12.046   3.990  0.00  0.00    +0.193 C 
ATOM      4  C   LIG    1       25.434 -13.791   4.769  0.00  0.00    +0.070 C 
ATOM      5  C   LIG    1       26.614 -14.768   4.877  0.00  0.00    +0.099 C 
ATOM      6  C   LIG    1       27.041 -15.374   3.527  0.00  0.00    +0.187 C 
ATOM      7  C   LIG    1       26.829 -14.449   2.314  0.00  0.00    +0.099 C 
ATOM      8  C   LIG    1       24.213 -14.471   4.125  0.00  0.00    +0.060 C 
ATOM      9  C   LIG    1       24.340 -14.218   2.626  0.00  0.00    +0.060 C 
ATOM     10  C   LIG    1       25.658 -13.455   2.455  0.00  0.00    +0.070 C 
BRANCH   2  12
ATOM     11  C   LIG    1       23.913 -11.516   5.198  0.00  0.00    +0.063 C 
ATOM     12  C   LIG    1       24.717 -11.457   3.894  0.00  0.00    +0.060 C 
ATOM     13  C   LIG    1       23.749 -11.447   2.701  0.00  0.00    +0.063 C 
ENDBRANCH   2  12
ENDBRANCH   1   6
BRANCH   1  14
ATOM     14  C   LIG    1       26.836 -17.740   3.799  0.00  0.00    +0.317 C 
ATOM     15  O   LIG    1       27.910 -17.781   4.402  0.00  0.00    -0.250 OA
BRANCH  14  16
ATOM     16  C   LIG    1       25.923 -18.922   3.556  0.00  0.00    +0.153 C 
BRANCH  16  17
ATOM     17  C   LIG    1       25.890 -19.861   4.749  0.00  0.00    -0.032 A 
ATOM     18  C   LIG    1       24.751 -20.647   4.984  0.00  0.00    +0.004 A 
ATOM     19  C   LIG    1       24.687 -21.495   6.090  0.00  0.00    +0.000 A 
ATOM     20  C   LIG    1       25.760 -21.572   6.973  0.00  0.00    +0.000 A 
ATOM     21  C   LIG    1       26.903 -20.807   6.746  0.00  0.00    +0.000 A 
ATOM     22  C   LIG    1       26.971 -19.961   5.639  0.00  0.00    +0.004 A 
ENDBRANCH  16  17
BRANCH  16  23
ATOM     23  C   LIG    1       24.535 -18.411   3.137  0.00  0.00    +0.175 C 
BRANCH  23  24
ATOM     24  O   LIG    1       23.802 -17.983   4.282  0.00  0.00    -0.394 OA
ATOM     25  H   LIG    1       23.422 -17.110   4.077  0.00  0.00    +0.209 HD
ENDBRANCH  23  24
ENDBRANCH  16  23
ENDBRANCH  14  16
ENDBRANCH   1  14
TORSDOF 7
ENDMDL
MODEL 2
REMARK VINA RESULT:      -1.9      1.522      2.940
REMARK  Name = *****
REMARK                            x       y       z     vdW  Elec       q    Type
REMARK                         _______ _______ _______ _____ _____    ______ ____
ROOT
ATOM      1  O   LIG    1       24.637 -16.559   4.288  0.00  0.00    -0.461 OA
ENDROOT
BRANCH   1   6
ATOM      2  N   LIG    1       26.745 -13.238   3.506  0.00  0.00    +0.247 N 
ATOM      3  C   LIG    1       26.018 -12.524   2.355  0.00  0.00    +0.193 C 
ATOM      4  C   LIG    1       27.119 -14.719   3.197  0.00  0.00    +0.070 C 
ATOM      5  C   LIG    1       25.924 -15.436   2.553  0.00  0.00    +0.099 C 
ATOM      6  C   LIG    1       24.647 -15.407   3.414  0.00  0.00    +0.187 C 
ATOM      7  C   LIG    1       24.496 -14.149   4.292  0.00  0.00    +0.099 C 
ATOM      8  C   LIG    1       27.442 -15.317   4.577  0.00  0.00    +0.060 C 
ATOM      9  C   LIG    1       26.630 -14.503   5.581  0.00  0.00    +0.060 C 
ATOM     10  C   LIG    1       25.825 -13.508   4.739  0.00  0.00    +0.070 C 
BRANCH   2  12
ATOM     11  C   LIG    1       29.332 -13.014   3.294  0.00  0.00    +0.063 C 
ATOM     12  C   LIG    1       28.054 -12.397   3.875  0.00  0.00    +0.060 C 
ATOM     13  C   LIG    1       28.216 -12.230   5.395  0.00  0.00    +0.063 C 
ENDBRANCH   2  12
ENDBRANCH   1   6
BRANCH   1  14
ATOM     14  C   LIG    1       24.753 -17.780   3.677  0.00  0.00    +0.317 C 
ATOM     15  O   LIG    1       25.698 -18.093   2.950  0.00  0.00    -0.250 OA
BRANCH  14  16
ATOM     16  C   LIG    1       23.601 -18.686   4.054  0.00  0.00    +0.153 C 
BRANCH  16  17
ATOM     17  C   LIG    1       24.000 -19.684   5.126  0.00  0.00    -0.032 A 
ATOM     18  C   LIG    1       25.324 -20.151   5.183  0.00  0.00    +0.004 A 
ATOM     19  C   LIG    1       25.706 -21.089   6.141  0.00  0.00    +0.000 A 
ATOM     20  C   LIG    1       24.775 -21.572   7.057  0.00  0.00    +0.000 A 
ATOM     21  C   LIG    1       23.461 -21.108   7.021  0.00  0.00    +0.000 A 
ATOM     22  C   LIG    1       23.076 -20.167   6.066  0.00  0.00    +0.004 A 
ENDBRANCH  16  17
BRANCH  16  23
ATOM     23  C   LIG    1       22.387 -17.824   4.436  0.00  0.00    +0.175 C 
BRANCH  23  24
ATOM     24  O   LIG    1       21.237 -18.241   3.703  0.00  0.00    -0.394 OA
ATOM     25  H   LIG    1       20.725 -17.444   3.482  0.00  0.00    +0.209 HD
ENDBRANCH  23  24
ENDBRANCH  16  23
ENDBRANCH  14  16
ENDBRANCH   1  14
TORSDOF 7
ENDMDL
MODEL 3
REMARK VINA RESULT:      -1.8      1.867      3.451
REMARK  Name = *****
REMARK                            x       y       z     vdW  Elec       q    Type
REMARK                         _______ _______ _______ _____ _____    ______ ____
ROOT
ATOM      1  O   LIG    1       24.185 -15.927   4.286  0.00  0.00    -0.461 OA
ENDROOT
BRANCH   1   6
ATOM      2  N   LIG    1       26.739 -12.939   3.491  0.00  0.00    +0.247 N 
ATOM      3  C   LIG    1       26.025 -12.011   2.494  0.00  0.00    +0.193 C 
ATOM      4  C   LIG    1       26.813 -14.426   3.031  0.00  0.00    +0.070 C 
ATOM      5  C   LIG    1       25.448 -14.874   2.491  0.00  0.00    +0.099 C 
ATOM      6  C   LIG    1       24.299 -14.715   3.504  0.00  0.00    +0.187 C 
ATOM      7  C   LIG    1       24.466 -13.537   4.483  0.00  0.00    +0.099 C 
ATOM      8  C   LIG    1       27.178 -15.194   4.313  0.00  0.00    +0.060 C 
ATOM      9  C   LIG    1       26.636 -14.354   5.467  0.00  0.00    +0.060 C 
ATOM     10  C   LIG    1       25.929 -13.167   4.806  0.00  0.00    +0.070 C 
BRANCH   2  12
ATOM     11  C   LIG    1       29.306 -13.278   3.204  0.00  0.00    +0.063 C 
ATOM     12  C   LIG    1       28.208 -12.362   3.754  0.00  0.00    +0.060 C 
ATOM     13  C   LIG    1       28.461 -12.107   5.249  0.00  0.00    +0.063 C 
ENDBRANCH   2  12
ENDBRANCH   1   6
BRANCH   1  14
ATOM     14  C   LIG    1       22.915 -16.300   4.639  0.00  0.00    +0.317 C 
ATOM     15  O   LIG    1       22.212 -15.667   5.430  0.00  0.00    -0.250 OA
BRANCH  14  16
ATOM     16  C   LIG    1       22.491 -17.548   3.896  0.00  0.00    +0.153 C 
BRANCH  16  17
ATOM     17  C   LIG    1       23.287 -18.762   4.341  0.00  0.00    -0.032 A 
ATOM     18  C   LIG    1       22.813 -19.555   5.400  0.00  0.00    +0.004 A 
ATOM     19  C   LIG    1       23.541 -20.659   5.843  0.00  0.00    +0.000 A 
ATOM     20  C   LIG    1       24.749 -20.988   5.235  0.00  0.00    +0.000 A 
ATOM     21  C   LIG    1       25.226 -20.219   4.175  0.00  0.00    +0.000 A 
ATOM     22  C   LIG    1       24.498 -19.116   3.727  0.00  0.00    +0.004 A 
ENDBRANCH  16  17
BRANCH  16  23
ATOM     23  C   LIG    1       20.970 -17.724   4.034  0.00  0.00    +0.175 C 
BRANCH  23  24
ATOM     24  O   LIG    1       20.466 -18.508   2.955  0.00  0.00    -0.394 OA
ATOM     25  H   LIG    1       20.629 -19.443   3.170  0.00  0.00    +0.209 HD
ENDBRANCH  23  24
ENDBRANCH  16  23
ENDBRANCH  14  16
ENDBRANCH   1  14
TORSDOF 7
ENDMDL
MODEL 4
REMARK VINA RESULT:      -1.4      1.099      1.929
REMARK  Name = *****
REMARK                            x       y       z     vdW  Elec       q    Type
REMARK                         _______ _______ _______ _____ _____    ______ ____
ROOT
ATOM      1  O   LIG    1       25.345 -17.005   3.635  0.00  0.00    -0.461 OA
ENDROOT
BRANCH   1   6
ATOM      2  N   LIG    1       25.620 -13.006   3.512  0.00  0.00    +0.247 N 
ATOM      3  C   LIG    1       27.115 -12.678   3.362  0.00  0.00    +0.193 C 
ATOM      4  C   LIG    1       25.292 -13.917   4.732  0.00  0.00    +0.070 C 
ATOM      5  C   LIG    1       26.288 -15.083   4.796  0.00  0.00    +0.099 C 
ATOM      6  C   LIG    1       26.320 -15.942   3.517  0.00  0.00    +0.187 C 
ATOM      7  C   LIG    1       26.019 -15.168   2.219  0.00  0.00    +0.099 C 
ATOM      8  C   LIG    1       23.868 -14.424   4.443  0.00  0.00    +0.060 C 
ATOM      9  C   LIG    1       23.723 -14.409   2.924  0.00  0.00    +0.060 C 
ATOM     10  C   LIG    1       25.084 -13.953   2.392  0.00  0.00    +0.070 C 
BRANCH   2  12
ATOM     11  C   LIG    1       24.020 -11.504   4.915  0.00  0.00    +0.063 C 
ATOM     12  C   LIG    1       24.810 -11.630   3.607  0.00  0.00    +0.060 C 
ATOM     13  C   LIG    1       23.854 -11.447   2.417  0.00  0.00    +0.063 C 
ENDBRANCH   2  12
ENDBRANCH   1   6
BRANCH   1  14
ATOM     14  C   LIG    1       25.819 -18.279   3.462  0.00  0.00    +0.317 C 
ATOM     15  O   LIG    1       26.065 -18.772   2.360  0.00  0.00    -0.250 OA
BRANCH  14  16
ATOM     16  C   LIG    1       26.035 -18.962   4.795  0.00  0.00    +0.153 C 
BRANCH  16  17
ATOM     17  C   LIG    1       24.866 -19.857   5.163  0.00  0.00    -0.032 A 
ATOM     18  C   LIG    1       23.713 -19.860   4.361  0.00  0.00    +0.004 A 
ATOM     19  C   LIG    1       22.615 -20.653   4.695  0.00  0.00    +0.000 A 
ATOM     20  C   LIG    1       22.655 -21.456   5.831  0.00  0.00    +0.000 A 
ATOM     21  C   LIG    1       23.796 -21.474   6.630  0.00  0.00    +0.000 A 
ATOM     22  C   LIG    1       24.897 -20.684   6.296  0.00  0.00    +0.004 A 
ENDBRANCH  16  17
BRANCH  16  23
ATOM     23  C   LIG    1       27.387 -19.693   4.773  0.00  0.00    +0.175 C 
BRANCH  23  24
ATOM     24  O   LIG    1       28.456 -18.755   4.883  0.00  0.00    -0.394 OA
ATOM     25  H   LIG    1       29.253 -19.249   5.143  0.00  0.00    +0.209 HD
ENDBRANCH  23  24
ENDBRANCH  16  23
ENDBRANCH  14  16
ENDBRANCH   1  14
TORSDOF 7
ENDMDL
MODEL 5
REMARK VINA RESULT:      -1.1      1.459      2.914
REMARK  Name = *****
REMARK                            x       y       z     vdW  Elec       q    Type
REMARK                         _______ _______ _______ _____ _____    ______ ____
ROOT
ATOM      1  O   LIG    1       25.088 -16.953   4.043  0.00  0.00    -0.461 OA
ENDROOT
BRANCH   1   6
ATOM      2  N   LIG    1       26.708 -13.319   3.540  0.00  0.00    +0.247 N 
ATOM      3  C   LIG    1       25.769 -12.553   2.594  0.00  0.00    +0.193 C 
ATOM      4  C   LIG    1       27.198 -14.686   2.974  0.00  0.00    +0.070 C 
ATOM      5  C   LIG    1       26.016 -15.453   2.365  0.00  0.00    +0.099 C 
ATOM      6  C   LIG    1       24.862 -15.701   3.356  0.00  0.00    +0.187 C 
ATOM      7  C   LIG    1       24.688 -14.602   4.422  0.00  0.00    +0.099 C 
ATOM      8  C   LIG    1       27.755 -15.419   4.206  0.00  0.00    +0.060 C 
ATOM      9  C   LIG    1       26.994 -14.857   5.403  0.00  0.00    +0.060 C 
ATOM     10  C   LIG    1       25.986 -13.866   4.812  0.00  0.00    +0.070 C 
BRANCH   2  12
ATOM     11  C   LIG    1       29.265 -12.895   3.281  0.00  0.00    +0.063 C 
ATOM     12  C   LIG    1       27.955 -12.378   3.885  0.00  0.00    +0.060 C 
ATOM     13  C   LIG    1       28.130 -12.197   5.401  0.00  0.00    +0.063 C 
ENDBRANCH   2  12
ENDBRANCH   1   6
BRANCH   1  14
ATOM     14  C   LIG    1       24.094 -17.889   3.933  0.00  0.00    +0.317 C 
ATOM     15  O   LIG    1       22.893 -17.623   4.012  0.00  0.00    -0.250 OA
BRANCH  14  16
ATOM     16  C   LIG    1       24.670 -19.261   3.657  0.00  0.00    +0.153 C 
BRANCH  16  17
ATOM     17  C   LIG    1       25.481 -19.775   4.833  0.00  0.00    -0.032 A 
ATOM     18  C   LIG    1       24.823 -20.350   5.933  0.00  0.00    +0.004 A 
ATOM     19  C   LIG    1       25.545 -20.804   7.037  0.00  0.00    +0.000 A 
ATOM     20  C   LIG    1       26.933 -20.692   7.057  0.00  0.00    +0.000 A 
ATOM     21  C   LIG    1       27.601 -20.135   5.968  0.00  0.00    +0.000 A 
ATOM     22  C   LIG    1       26.882 -19.684   4.861  0.00  0.00    +0.004 A 
ENDBRANCH  16  17
BRANCH  16  23
ATOM     23  C   LIG    1       23.537 -20.208   3.230  0.00  0.00    +0.175 C 
BRANCH  23  24
ATOM     24  O   LIG    1       24.055 -21.509   2.966  0.00  0.00    -0.394 OA
ATOM     25  H   LIG    1       24.459 -21.836   3.790  0.00  0.00    +0.209 HD
ENDBRANCH  23  24
ENDBRANCH  16  23
ENDBRANCH  14  16
ENDBRANCH   1  14
TORSDOF 7
ENDMDL
MODEL 6
REMARK VINA RESULT:      -0.7      2.605      7.084
REMARK  Name = *****
REMARK                            x       y       z     vdW  Elec       q    Type
REMARK                         _______ _______ _______ _____ _____    ______ ____
ROOT
ATOM      1  O   LIG    1       24.770 -16.894   3.644  0.00  0.00    -0.461 OA
ENDROOT
BRANCH   1   6
ATOM      2  N   LIG    1       23.584 -20.656   4.369  0.00  0.00    +0.247 N 
ATOM      3  C   LIG    1       24.554 -21.572   3.604  0.00  0.00    +0.193 C 
ATOM      4  C   LIG    1       22.897 -19.578   3.478  0.00  0.00    +0.070 C 
ATOM      5  C   LIG    1       23.938 -18.913   2.567  0.00  0.00    +0.099 C 
ATOM      6  C   LIG    1       25.108 -18.265   3.332  0.00  0.00    +0.187 C 
ATOM      7  C   LIG    1       25.478 -18.971   4.650  0.00  0.00    +0.099 C 
ATOM      8  C   LIG    1       22.326 -18.569   4.490  0.00  0.00    +0.060 C 
ATOM      9  C   LIG    1       23.219 -18.668   5.723  0.00  0.00    +0.060 C 
ATOM     10  C   LIG    1       24.306 -19.684   5.355  0.00  0.00    +0.070 C 
BRANCH   2  12
ATOM     11  C   LIG    1       21.054 -21.183   4.698  0.00  0.00    +0.063 C 
ATOM     12  C   LIG    1       22.485 -21.571   5.085  0.00  0.00    +0.060 C 
ATOM     13  C   LIG    1       22.624 -21.537   6.616  0.00  0.00    +0.063 C 
ENDBRANCH   2  12
ENDBRANCH   1   6
BRANCH   1  14
ATOM     14  C   LIG    1       25.763 -15.970   3.455  0.00  0.00    +0.317 C 
ATOM     15  O   LIG    1       26.755 -16.168   2.750  0.00  0.00    -0.250 OA
BRANCH  14  16
ATOM     16  C   LIG    1       25.450 -14.681   4.182  0.00  0.00    +0.153 C 
BRANCH  16  17
ATOM     17  C   LIG    1       26.685 -13.815   4.347  0.00  0.00    -0.032 A 
ATOM     18  C   LIG    1       27.457 -13.484   3.221  0.00  0.00    +0.004 A 
ATOM     19  C   LIG    1       28.612 -12.713   3.352  0.00  0.00    +0.000 A 
ATOM     20  C   LIG    1       29.011 -12.260   4.607  0.00  0.00    +0.000 A 
ATOM     21  C   LIG    1       28.248 -12.569   5.732  0.00  0.00    +0.000 A 
ATOM     22  C   LIG    1       27.090 -13.337   5.603  0.00  0.00    +0.004 A 
ENDBRANCH  16  17
BRANCH  16  23
ATOM     23  C   LIG    1       24.289 -13.969   3.468  0.00  0.00    +0.175 C 
BRANCH  23  24
ATOM     24  O   LIG    1       24.064 -12.688   4.052  0.00  0.00    -0.394 OA
ATOM     25  H   LIG    1       23.860 -12.068   3.330  0.00  0.00    +0.209 HD
ENDBRANCH  23  24
ENDBRANCH  16  23
ENDBRANCH  14  16
ENDBRANCH   1  14
TORSDOF 7
ENDMDL
MODEL 7
REMARK VINA RESULT:      -0.6      2.353      7.069
REMARK  Name = *****
REMARK                            x       y       z     vdW  Elec       q    Type
REMARK                         _______ _______ _______ _____ _____    ______ ____
ROOT
ATOM      1  O   LIG    1       25.253 -16.931   3.681  0.00  0.00    -0.461 OA
ENDROOT
BRANCH   1   6
ATOM      2  N   LIG    1       23.792 -20.623   4.238  0.00  0.00    +0.247 N 
ATOM      3  C   LIG    1       24.686 -21.572   3.422  0.00  0.00    +0.193 C 
ATOM      4  C   LIG    1       23.183 -19.455   3.406  0.00  0.00    +0.070 C 
ATOM      5  C   LIG    1       24.266 -18.827   2.517  0.00  0.00    +0.099 C 
ATOM      6  C   LIG    1       25.485 -18.307   3.301  0.00  0.00    +0.187 C 
ATOM      7  C   LIG    1       25.809 -19.101   4.582  0.00  0.00    +0.099 C 
ATOM      8  C   LIG    1       22.695 -18.457   4.470  0.00  0.00    +0.060 C 
ATOM      9  C   LIG    1       23.586 -18.681   5.688  0.00  0.00    +0.060 C 
ATOM     10  C   LIG    1       24.590 -19.757   5.263  0.00  0.00    +0.070 C 
BRANCH   2  12
ATOM     11  C   LIG    1       21.231 -20.980   4.558  0.00  0.00    +0.063 C 
ATOM     12  C   LIG    1       22.631 -21.487   4.921  0.00  0.00    +0.060 C 
ATOM     13  C   LIG    1       22.776 -21.529   6.451  0.00  0.00    +0.063 C 
ENDBRANCH   2  12
ENDBRANCH   1   6
BRANCH   1  14
ATOM     14  C   LIG    1       26.326 -16.086   3.572  0.00  0.00    +0.317 C 
ATOM     15  O   LIG    1       27.411 -16.284   4.124  0.00  0.00    -0.250 OA
BRANCH  14  16
ATOM     16  C   LIG    1       26.009 -14.923   2.657  0.00  0.00    +0.153 C 
BRANCH  16  17
ATOM     17  C   LIG    1       25.201 -13.854   3.369  0.00  0.00    -0.032 A 
ATOM     18  C   LIG    1       24.473 -12.917   2.617  0.00  0.00    +0.004 A 
ATOM     19  C   LIG    1       23.746 -11.908   3.248  0.00  0.00    +0.000 A 
ATOM     20  C   LIG    1       23.732 -11.822   4.638  0.00  0.00    +0.000 A 
ATOM     21  C   LIG    1       24.439 -12.752   5.398  0.00  0.00    +0.000 A 
ATOM     22  C   LIG    1       25.165 -13.765   4.769  0.00  0.00    +0.004 A 
ENDBRANCH  16  17
BRANCH  16  23
ATOM     23  C   LIG    1       27.315 -14.398   2.038  0.00  0.00    +0.175 C 
BRANCH  23  24
ATOM     24  O   LIG    1       28.050 -13.648   3.002  0.00  0.00    -0.394 OA
ATOM     25  H   LIG    1       28.652 -13.057   2.516  0.00  0.00    +0.209 HD
ENDBRANCH  23  24
ENDBRANCH  16  23
ENDBRANCH  14  16
ENDBRANCH   1  14
TORSDOF 7
ENDMDL
MODEL 8
REMARK VINA RESULT:      -0.3      1.376      2.649
REMARK  Name = *****
REMARK                            x       y       z     vdW  Elec       q    Type
REMARK                         _______ _______ _______ _____ _____    ______ ____
ROOT
ATOM      1  O   LIG    1       26.418 -16.757   3.663  0.00  0.00    -0.461 OA
ENDROOT
BRANCH   1   6
ATOM      2  N   LIG    1       25.038 -12.993   3.558  0.00  0.00    +0.247 N 
ATOM      3  C   LIG    1       24.577 -12.740   2.113  0.00  0.00    +0.193 C 
ATOM      4  C   LIG    1       26.513 -13.482   3.675  0.00  0.00    +0.070 C 
ATOM      5  C   LIG    1       26.783 -14.580   2.637  0.00  0.00    +0.099 C 
ATOM      6  C   LIG    1       25.839 -15.791   2.756  0.00  0.00    +0.187 C 
ATOM      7  C   LIG    1       24.425 -15.452   3.267  0.00  0.00    +0.099 C 
ATOM      8  C   LIG    1       26.606 -14.041   5.105  0.00  0.00    +0.060 C 
ATOM      9  C   LIG    1       25.194 -14.493   5.466  0.00  0.00    +0.060 C 
ATOM     10  C   LIG    1       24.353 -14.235   4.212  0.00  0.00    +0.070 C 
BRANCH   2  12
ATOM     11  C   LIG    1       25.699 -11.599   5.656  0.00  0.00    +0.063 C 
ATOM     12  C   LIG    1       24.827 -11.648   4.397  0.00  0.00    +0.060 C 
ATOM     13  C   LIG    1       23.354 -11.447   4.791  0.00  0.00    +0.063 C 
ENDBRANCH   2  12
ENDBRANCH   1   6
BRANCH   1  14
ATOM     14  C   LIG    1       26.084 -18.067   3.443  0.00  0.00    +0.317 C 
ATOM     15  O   LIG    1       25.942 -18.557   2.320  0.00  0.00    -0.250 OA
BRANCH  14  16
ATOM     16  C   LIG    1       25.963 -18.822   4.749  0.00  0.00    +0.153 C 
BRANCH  16  17
ATOM     17  C   LIG    1       24.626 -19.532   4.865  0.00  0.00    -0.032 A 
ATOM     18  C   LIG    1       24.567 -20.816   5.430  0.00  0.00    +0.004 A 
ATOM     19  C   LIG    1       23.354 -21.498   5.522  0.00  0.00    +0.000 A 
ATOM     20  C   LIG    1       22.184 -20.908   5.053  0.00  0.00    +0.000 A 
ATOM     21  C   LIG    1       22.224 -19.629   4.501  0.00  0.00    +0.000 A 
ATOM     22  C   LIG    1       23.435 -18.942   4.411  0.00  0.00    +0.004 A 
ENDBRANCH  16  17
BRANCH  16  23
ATOM     23  C   LIG    1       27.172 -19.758   4.903  0.00  0.00    +0.175 C 
BRANCH  23  24
ATOM     24  O   LIG    1       28.372 -18.998   5.023  0.00  0.00    -0.394 OA
ATOM     25  H   LIG    1       28.354 -18.557   5.891  0.00  0.00    +0.209 HD
ENDBRANCH  23  24
ENDBRANCH  16  23
ENDBRANCH  14  16
ENDBRANCH   1  14
TORSDOF 7
ENDMDL
MODEL 9
REMARK VINA RESULT:       0.4      1.829      3.448
REMARK  Name = *****
REMARK                            x       y       z     vdW  Elec       q    Type
REMARK                         _______ _______ _______ _____ _____    ______ ____
ROOT
ATOM      1  O   LIG    1       24.903 -16.591   4.211  0.00  0.00    -0.461 OA
ENDROOT
BRANCH   1   6
ATOM      2  N   LIG    1       26.889 -13.176   3.522  0.00  0.00    +0.247 N 
ATOM      3  C   LIG    1       26.144 -12.463   2.381  0.00  0.00    +0.193 C 
ATOM      4  C   LIG    1       27.321 -14.633   3.182  0.00  0.00    +0.070 C 
ATOM      5  C   LIG    1       26.159 -15.380   2.513  0.00  0.00    +0.099 C 
ATOM      6  C   LIG    1       24.875 -15.419   3.364  0.00  0.00    +0.187 C 
ATOM      7  C   LIG    1       24.670 -14.188   4.269  0.00  0.00    +0.099 C 
ATOM      8  C   LIG    1       27.657 -15.250   4.551  0.00  0.00    +0.060 C 
ATOM      9  C   LIG    1       26.808 -14.491   5.567  0.00  0.00    +0.060 C 
ATOM     10  C   LIG    1       25.972 -13.508   4.741  0.00  0.00    +0.070 C 
BRANCH   2  12
ATOM     11  C   LIG    1       29.475 -12.885   3.391  0.00  0.00    +0.063 C 
ATOM     12  C   LIG    1       28.163 -12.294   3.920  0.00  0.00    +0.060 C 
ATOM     13  C   LIG    1       28.270 -12.101   5.442  0.00  0.00    +0.063 C 
ENDBRANCH   2  12
ENDBRANCH   1   6
BRANCH   1  14
ATOM     14  C   LIG    1       25.301 -17.757   3.613  0.00  0.00    +0.317 C 
ATOM     15  O   LIG    1       25.776 -17.815   2.477  0.00  0.00    -0.250 OA
BRANCH  14  16
ATOM     16  C   LIG    1       25.122 -18.934   4.548  0.00  0.00    +0.153 C 
BRANCH  16  17
ATOM     17  C   LIG    1       23.702 -19.471   4.507  0.00  0.00    -0.032 A 
ATOM     18  C   LIG    1       22.667 -18.664   4.007  0.00  0.00    +0.004 A 
ATOM     19  C   LIG    1       21.352 -19.126   3.985  0.00  0.00    +0.000 A 
ATOM     20  C   LIG    1       21.051 -20.400   4.460  0.00  0.00    +0.000 A 
ATOM     21  C   LIG    1       22.069 -21.217   4.948  0.00  0.00    +0.000 A 
ATOM     22  C   LIG    1       23.387 -20.759   4.967  0.00  0.00    +0.004 A 
ENDBRANCH  16  17
BRANCH  16  23
ATOM     23  C   LIG    1       26.191 -19.994   4.236  0.00  0.00    +0.175 C 
BRANCH  23  24
ATOM     24  O   LIG    1       26.717 -20.533   5.446  0.00  0.00    -0.394 OA
ATOM     25  H   LIG    1       27.635 -20.222   5.531  0.00  0.00    +0.209 HD
ENDBRANCH  23  24
ENDBRANCH  16  23
ENDBRANCH  14  16
ENDBRANCH   1  14
TORSDOF 7
ENDMDL
