MODEL 1
REMARK VINA RESULT:      -6.2      0.000      0.000
REMARK  Name = *****
REMARK                            x       y       z     vdW  Elec       q    Type
REMARK                         _______ _______ _______ _____ _____    ______ ____
ROOT
ATOM      1  O   LIG    1       25.695 -18.771   3.317  0.00  0.00    -0.489 OA
ENDROOT
BRANCH   1   2
ATOM      2  C   LIG    1       24.812 -19.417   4.157  0.00  0.00    +0.130 C 
ATOM      3  C   LIG    1       25.332 -20.178   5.234  0.00  0.00    +0.041 C 
ATOM      4  C   LIG    1       24.438 -20.816   6.106  0.00  0.00    +0.050 C 
ATOM      5  N   LIG    1       25.188 -21.475   7.052  0.00  0.00    -0.360 NA
ATOM      6  H   LIG    1       24.794 -22.031   7.809  0.00  0.00    +0.165 HD
ATOM      7  C   LIG    1       26.519 -21.268   6.843  0.00  0.00    +0.083 C 
ATOM      8  C   LIG    1       23.052 -20.734   5.966  0.00  0.00    +0.026 C 
ATOM      9  C   LIG    1       22.554 -19.992   4.899  0.00  0.00    +0.006 C 
ATOM     10  C   LIG    1       26.639 -20.476   5.720  0.00  0.00    +0.031 C 
ATOM     11  C   LIG    1       23.415 -19.359   4.000  0.00  0.00    +0.046 C 
ENDBRANCH   1   2
BRANCH   1  12
ATOM     12  C   LIG    1       25.572 -17.335   3.305  0.00  0.00    +0.261 C 
BRANCH  12  13
ATOM     13  C   LIG    1       26.968 -16.711   3.243  0.00  0.00    +0.166 C 
BRANCH  13  14
ATOM     14  O   LIG    1       27.824 -17.379   4.189  0.00  0.00    -0.387 OA
ATOM     15  H   LIG    1       27.309 -17.445   5.016  0.00  0.00    +0.210 HD
ENDBRANCH  13  14
BRANCH  13  16
ATOM     16  C   LIG    1       26.949 -15.210   3.602  0.00  0.00    +0.115 C 
BRANCH  16  17
ATOM     17  N   LIG    1       26.458 -14.314   2.540  0.00  0.00    -0.311 NA
ATOM     18  H   LIG    1       27.247 -13.829   2.112  0.00  0.00    +0.122 HD
BRANCH  17  20
ATOM     19  C   LIG    1       24.659 -12.687   1.930  0.00  0.00    +0.024 C 
ATOM     20  C   LIG    1       25.493 -13.319   3.049  0.00  0.00    +0.048 C 
ATOM     21  C   LIG    1       24.555 -13.972   4.073  0.00  0.00    +0.024 C 
ENDBRANCH  17  20
ENDBRANCH  16  17
ENDBRANCH  13  16
ENDBRANCH  12  13
ENDBRANCH   1  12
TORSDOF 7
ENDMDL
MODEL 2
REMARK VINA RESULT:      -5.8      1.915      6.593
REMARK  Name = *****
REMARK                            x       y       z     vdW  Elec       q    Type
REMARK                         _______ _______ _______ _____ _____    ______ ____
ROOT
ATOM      1  O   LIG    1       25.231 -17.030   3.306  0.00  0.00    -0.489 OA
ENDROOT
BRANCH   1   2
ATOM      2  C   LIG    1       25.899 -15.861   3.603  0.00  0.00    +0.130 C 
ATOM      3  C   LIG    1       25.141 -14.699   3.892  0.00  0.00    +0.041 C 
ATOM      4  C   LIG    1       25.817 -13.514   4.219  0.00  0.00    +0.050 C 
ATOM      5  N   LIG    1       24.863 -12.551   4.455  0.00  0.00    -0.360 NA
ATOM      6  H   LIG    1       25.073 -11.587   4.706  0.00  0.00    +0.165 HD
ATOM      7  C   LIG    1       23.609 -13.070   4.321  0.00  0.00    +0.083 C 
ATOM      8  C   LIG    1       27.208 -13.424   4.277  0.00  0.00    +0.026 C 
ATOM      9  C   LIG    1       27.941 -14.569   3.981  0.00  0.00    +0.006 C 
ATOM     10  C   LIG    1       23.750 -14.395   3.965  0.00  0.00    +0.031 C 
ATOM     11  C   LIG    1       27.303 -15.761   3.634  0.00  0.00    +0.046 C 
ENDBRANCH   1   2
BRANCH   1  12
ATOM     12  C   LIG    1       26.070 -18.200   3.236  0.00  0.00    +0.261 C 
BRANCH  12  13
ATOM     13  C   LIG    1       25.470 -19.303   4.111  0.00  0.00    +0.166 C 
BRANCH  13  14
ATOM     14  O   LIG    1       26.484 -20.287   4.387  0.00  0.00    -0.387 OA
ATOM     15  H   LIG    1       26.426 -20.943   3.665  0.00  0.00    +0.210 HD
ENDBRANCH  13  14
BRANCH  13  16
ATOM     16  C   LIG    1       24.293 -20.021   3.415  0.00  0.00    +0.115 C 
BRANCH  16  17
ATOM     17  N   LIG    1       23.702 -21.141   4.170  0.00  0.00    -0.311 NA
ATOM     18  H   LIG    1       23.269 -21.797   3.520  0.00  0.00    +0.122 HD
BRANCH  17  20
ATOM     19  C   LIG    1       23.227 -20.699   6.585  0.00  0.00    +0.024 C 
ATOM     20  C   LIG    1       22.694 -20.686   5.148  0.00  0.00    +0.048 C 
ATOM     21  C   LIG    1       22.220 -19.270   4.796  0.00  0.00    +0.024 C 
ENDBRANCH  17  20
ENDBRANCH  16  17
ENDBRANCH  13  16
ENDBRANCH  12  13
ENDBRANCH   1  12
TORSDOF 7
ENDMDL
MODEL 3
REMARK VINA RESULT:      -5.6      0.817      2.174
REMARK  Name = *****
REMARK                            x       y       z     vdW  Elec       q    Type
REMARK                         _______ _______ _______ _____ _____    ______ ____
ROOT
ATOM      1  O   LIG    1       25.893 -19.052   3.467  0.00  0.00    -0.489 OA
ENDROOT
BRANCH   1   2
ATOM      2  C   LIG    1       25.734 -19.772   4.633  0.00  0.00    +0.130 C 
ATOM      3  C   LIG    1       24.443 -20.253   4.963  0.00  0.00    +0.041 C 
ATOM      4  C   LIG    1       24.281 -21.007   6.135  0.00  0.00    +0.050 C 
ATOM      5  N   LIG    1       22.952 -21.351   6.221  0.00  0.00    -0.360 NA
ATOM      6  H   LIG    1       22.550 -21.896   6.981  0.00  0.00    +0.165 HD
ATOM      7  C   LIG    1       22.260 -20.876   5.146  0.00  0.00    +0.083 C 
ATOM      8  C   LIG    1       25.337 -21.310   6.996  0.00  0.00    +0.026 C 
ATOM      9  C   LIG    1       26.598 -20.823   6.664  0.00  0.00    +0.006 C 
ATOM     10  C   LIG    1       23.155 -20.186   4.355  0.00  0.00    +0.031 C 
ATOM     11  C   LIG    1       26.793 -20.054   5.516  0.00  0.00    +0.046 C 
ENDBRANCH   1   2
BRANCH   1  12
ATOM     12  C   LIG    1       25.608 -17.644   3.587  0.00  0.00    +0.261 C 
BRANCH  12  13
ATOM     13  C   LIG    1       26.871 -16.844   3.257  0.00  0.00    +0.166 C 
BRANCH  13  14
ATOM     14  O   LIG    1       27.965 -17.350   4.044  0.00  0.00    -0.387 OA
ATOM     15  H   LIG    1       27.764 -17.113   4.970  0.00  0.00    +0.210 HD
ENDBRANCH  13  14
BRANCH  13  16
ATOM     16  C   LIG    1       26.709 -15.345   3.585  0.00  0.00    +0.115 C 
BRANCH  16  17
ATOM     17  N   LIG    1       26.349 -14.485   2.443  0.00  0.00    -0.311 NA
ATOM     18  H   LIG    1       27.191 -14.249   1.916  0.00  0.00    +0.122 HD
BRANCH  17  20
ATOM     19  C   LIG    1       24.698 -12.716   1.812  0.00  0.00    +0.024 C 
ATOM     20  C   LIG    1       25.676 -13.242   2.868  0.00  0.00    +0.048 C 
ATOM     21  C   LIG    1       24.923 -13.475   4.185  0.00  0.00    +0.024 C 
ENDBRANCH  17  20
ENDBRANCH  16  17
ENDBRANCH  13  16
ENDBRANCH  12  13
ENDBRANCH   1  12
TORSDOF 7
ENDMDL
MODEL 4
REMARK VINA RESULT:      -5.5      1.927      6.758
REMARK  Name = *****
REMARK                            x       y       z     vdW  Elec       q    Type
REMARK                         _______ _______ _______ _____ _____    ______ ____
ROOT
ATOM      1  O   LIG    1       25.128 -16.772   3.304  0.00  0.00    -0.489 OA
ENDROOT
BRANCH   1   2
ATOM      2  C   LIG    1       25.858 -15.647   3.627  0.00  0.00    +0.130 C 
ATOM      3  C   LIG    1       25.163 -14.457   3.955  0.00  0.00    +0.041 C 
ATOM      4  C   LIG    1       25.900 -13.317   4.308  0.00  0.00    +0.050 C 
ATOM      5  N   LIG    1       24.999 -12.313   4.579  0.00  0.00    -0.360 NA
ATOM      6  H   LIG    1       25.260 -11.369   4.854  0.00  0.00    +0.165 HD
ATOM      7  C   LIG    1       23.719 -12.764   4.442  0.00  0.00    +0.083 C 
ATOM      8  C   LIG    1       27.295 -13.299   4.356  0.00  0.00    +0.026 C 
ATOM      9  C   LIG    1       27.965 -14.472   4.023  0.00  0.00    +0.006 C 
ATOM     10  C   LIG    1       23.789 -14.084   4.048  0.00  0.00    +0.031 C 
ATOM     11  C   LIG    1       27.265 -15.620   3.648  0.00  0.00    +0.046 C 
ENDBRANCH   1   2
BRANCH   1  12
ATOM     12  C   LIG    1       25.883 -18.000   3.312  0.00  0.00    +0.261 C 
BRANCH  12  13
ATOM     13  C   LIG    1       24.918 -19.183   3.420  0.00  0.00    +0.166 C 
BRANCH  13  14
ATOM     14  O   LIG    1       23.603 -18.689   3.738  0.00  0.00    -0.387 OA
ATOM     15  H   LIG    1       23.663 -17.716   3.688  0.00  0.00    +0.210 HD
ENDBRANCH  13  14
BRANCH  13  16
ATOM     16  C   LIG    1       25.333 -20.170   4.532  0.00  0.00    +0.115 C 
BRANCH  16  17
ATOM     17  N   LIG    1       26.761 -20.149   4.893  0.00  0.00    -0.311 NA
ATOM     18  H   LIG    1       27.298 -20.657   4.189  0.00  0.00    +0.122 HD
BRANCH  17  20
ATOM     19  C   LIG    1       28.131 -20.026   6.982  0.00  0.00    +0.024 C 
ATOM     20  C   LIG    1       27.012 -20.745   6.221  0.00  0.00    +0.048 C 
ATOM     21  C   LIG    1       25.728 -20.718   7.061  0.00  0.00    +0.024 C 
ENDBRANCH  17  20
ENDBRANCH  16  17
ENDBRANCH  13  16
ENDBRANCH  12  13
ENDBRANCH   1  12
TORSDOF 7
ENDMDL
MODEL 5
REMARK VINA RESULT:      -5.2      1.670      2.840
REMARK  Name = *****
REMARK                            x       y       z     vdW  Elec       q    Type
REMARK                         _______ _______ _______ _____ _____    ______ ____
ROOT
ATOM      1  O   LIG    1       25.796 -17.662   3.056  0.00  0.00    -0.489 OA
ENDROOT
BRANCH   1   2
ATOM      2  C   LIG    1       25.395 -18.718   3.847  0.00  0.00    +0.130 C 
ATOM      3  C   LIG    1       24.010 -18.894   4.095  0.00  0.00    +0.041 C 
ATOM      4  C   LIG    1       23.595 -19.981   4.878  0.00  0.00    +0.050 C 
ATOM      5  N   LIG    1       22.223 -19.926   4.961  0.00  0.00    -0.360 NA
ATOM      6  H   LIG    1       21.654 -20.592   5.479  0.00  0.00    +0.165 HD
ATOM      7  C   LIG    1       21.738 -18.871   4.246  0.00  0.00    +0.083 C 
ATOM      8  C   LIG    1       24.485 -20.905   5.428  0.00  0.00    +0.026 C 
ATOM      9  C   LIG    1       25.842 -20.715   5.185  0.00  0.00    +0.006 C 
ATOM     10  C   LIG    1       22.821 -18.210   3.705  0.00  0.00    +0.031 C 
ATOM     11  C   LIG    1       26.293 -19.634   4.426  0.00  0.00    +0.046 C 
ENDBRANCH   1   2
BRANCH   1  12
ATOM     12  C   LIG    1       26.891 -16.893   3.592  0.00  0.00    +0.261 C 
BRANCH  12  13
ATOM     13  C   LIG    1       26.675 -15.413   3.264  0.00  0.00    +0.166 C 
BRANCH  13  14
ATOM     14  O   LIG    1       27.669 -14.630   3.951  0.00  0.00    -0.387 OA
ATOM     15  H   LIG    1       28.276 -14.301   3.260  0.00  0.00    +0.210 HD
ENDBRANCH  13  14
BRANCH  13  16
ATOM     16  C   LIG    1       25.286 -14.916   3.718  0.00  0.00    +0.115 C 
BRANCH  16  17
ATOM     17  N   LIG    1       25.266 -13.576   4.333  0.00  0.00    -0.311 NA
ATOM     18  H   LIG    1       25.235 -13.668   5.349  0.00  0.00    +0.122 HD
BRANCH  17  20
ATOM     19  C   LIG    1       23.810 -11.603   4.826  0.00  0.00    +0.024 C 
ATOM     20  C   LIG    1       24.113 -12.771   3.881  0.00  0.00    +0.048 C 
ATOM     21  C   LIG    1       24.372 -12.227   2.470  0.00  0.00    +0.024 C 
ENDBRANCH  17  20
ENDBRANCH  16  17
ENDBRANCH  13  16
ENDBRANCH  12  13
ENDBRANCH   1  12
TORSDOF 7
ENDMDL
MODEL 6
REMARK VINA RESULT:      -5.2      1.923      6.179
REMARK  Name = *****
REMARK                            x       y       z     vdW  Elec       q    Type
REMARK                         _______ _______ _______ _____ _____    ______ ____
ROOT
ATOM      1  O   LIG    1       25.468 -17.439   3.341  0.00  0.00    -0.489 OA
ENDROOT
BRANCH   1   2
ATOM      2  C   LIG    1       25.103 -16.156   3.691  0.00  0.00    +0.130 C 
ATOM      3  C   LIG    1       26.093 -15.141   3.682  0.00  0.00    +0.041 C 
ATOM      4  C   LIG    1       25.722 -13.830   4.013  0.00  0.00    +0.050 C 
ATOM      5  N   LIG    1       26.851 -13.049   3.925  0.00  0.00    -0.360 NA
ATOM      6  H   LIG    1       26.873 -12.051   4.121  0.00  0.00    +0.165 HD
ATOM      7  C   LIG    1       27.922 -13.793   3.527  0.00  0.00    +0.083 C 
ATOM      8  C   LIG    1       24.416 -13.473   4.352  0.00  0.00    +0.026 C 
ATOM      9  C   LIG    1       23.456 -14.480   4.367  0.00  0.00    +0.006 C 
ATOM     10  C   LIG    1       27.485 -15.093   3.376  0.00  0.00    +0.031 C 
ATOM     11  C   LIG    1       23.793 -15.800   4.061  0.00  0.00    +0.046 C 
ENDBRANCH   1   2
BRANCH   1  12
ATOM     12  C   LIG    1       24.438 -18.429   3.532  0.00  0.00    +0.261 C 
BRANCH  12  13
ATOM     13  C   LIG    1       25.075 -19.821   3.548  0.00  0.00    +0.166 C 
BRANCH  13  14
ATOM     14  O   LIG    1       24.033 -20.814   3.513  0.00  0.00    -0.387 OA
ATOM     15  H   LIG    1       24.315 -21.477   2.854  0.00  0.00    +0.210 HD
ENDBRANCH  13  14
BRANCH  13  16
ATOM     16  C   LIG    1       25.912 -20.060   4.822  0.00  0.00    +0.115 C 
BRANCH  16  17
ATOM     17  N   LIG    1       27.259 -19.463   4.813  0.00  0.00    -0.311 NA
ATOM     18  H   LIG    1       27.671 -19.566   3.885  0.00  0.00    +0.122 HD
BRANCH  17  20
ATOM     19  C   LIG    1       29.302 -19.154   6.222  0.00  0.00    +0.024 C 
ATOM     20  C   LIG    1       28.152 -20.081   5.814  0.00  0.00    +0.048 C 
ATOM     21  C   LIG    1       27.351 -20.475   7.062  0.00  0.00    +0.024 C 
ENDBRANCH  17  20
ENDBRANCH  16  17
ENDBRANCH  13  16
ENDBRANCH  12  13
ENDBRANCH   1  12
TORSDOF 7
ENDMDL
MODEL 7
REMARK VINA RESULT:      -5.1      1.750      6.501
REMARK  Name = *****
REMARK                            x       y       z     vdW  Elec       q    Type
REMARK                         _______ _______ _______ _____ _____    ______ ____
ROOT
ATOM      1  O   LIG    1       25.779 -16.467   2.815  0.00  0.00    -0.489 OA
ENDROOT
BRANCH   1   2
ATOM      2  C   LIG    1       25.455 -15.331   3.525  0.00  0.00    +0.130 C 
ATOM      3  C   LIG    1       26.493 -14.441   3.895  0.00  0.00    +0.041 C 
ATOM      4  C   LIG    1       26.165 -13.271   4.597  0.00  0.00    +0.050 C 
ATOM      5  N   LIG    1       27.337 -12.589   4.828  0.00  0.00    -0.360 NA
ATOM      6  H   LIG    1       27.395 -11.704   5.328  0.00  0.00    +0.165 HD
ATOM      7  C   LIG    1       28.398 -13.253   4.285  0.00  0.00    +0.083 C 
ATOM      8  C   LIG    1       24.856 -12.937   4.948  0.00  0.00    +0.026 C 
ATOM      9  C   LIG    1       23.847 -13.825   4.586  0.00  0.00    +0.006 C 
ATOM     10  C   LIG    1       27.907 -14.406   3.708  0.00  0.00    +0.031 C 
ATOM     11  C   LIG    1       24.139 -15.008   3.905  0.00  0.00    +0.046 C 
ENDBRANCH   1   2
BRANCH   1  12
ATOM     12  C   LIG    1       26.258 -17.562   3.620  0.00  0.00    +0.261 C 
BRANCH  12  13
ATOM     13  C   LIG    1       25.373 -18.788   3.381  0.00  0.00    +0.166 C 
BRANCH  13  14
ATOM     14  O   LIG    1       24.002 -18.435   3.644  0.00  0.00    -0.387 OA
ATOM     15  H   LIG    1       23.889 -17.524   3.309  0.00  0.00    +0.210 HD
ENDBRANCH  13  14
BRANCH  13  16
ATOM     16  C   LIG    1       25.745 -19.962   4.310  0.00  0.00    +0.115 C 
BRANCH  16  17
ATOM     17  N   LIG    1       24.683 -20.963   4.518  0.00  0.00    -0.311 NA
ATOM     18  H   LIG    1       23.829 -20.655   4.052  0.00  0.00    +0.122 HD
BRANCH  17  20
ATOM     19  C   LIG    1       25.522 -20.672   6.856  0.00  0.00    +0.024 C 
ATOM     20  C   LIG    1       24.401 -21.190   5.950  0.00  0.00    +0.048 C 
ATOM     21  C   LIG    1       23.080 -20.513   6.340  0.00  0.00    +0.024 C 
ENDBRANCH  17  20
ENDBRANCH  16  17
ENDBRANCH  13  16
ENDBRANCH  12  13
ENDBRANCH   1  12
TORSDOF 7
ENDMDL
MODEL 8
REMARK VINA RESULT:      -4.5      2.416      6.981
REMARK  Name = *****
REMARK                            x       y       z     vdW  Elec       q    Type
REMARK                         _______ _______ _______ _____ _____    ______ ____
ROOT
ATOM      1  O   LIG    1       23.927 -14.747   4.698  0.00  0.00    -0.489 OA
ENDROOT
BRANCH   1   2
ATOM      2  C   LIG    1       24.500 -13.845   3.826  0.00  0.00    +0.130 C 
ATOM      3  C   LIG    1       25.913 -13.795   3.731  0.00  0.00    +0.041 C 
ATOM      4  C   LIG    1       26.500 -12.897   2.827  0.00  0.00    +0.050 C 
ATOM      5  N   LIG    1       27.864 -13.047   2.927  0.00  0.00    -0.360 NA
ATOM      6  H   LIG    1       28.540 -12.511   2.387  0.00  0.00    +0.165 HD
ATOM      7  C   LIG    1       28.178 -14.018   3.832  0.00  0.00    +0.083 C 
ATOM      8  C   LIG    1       25.755 -12.047   2.009  0.00  0.00    +0.026 C 
ATOM      9  C   LIG    1       24.368 -12.100   2.119  0.00  0.00    +0.006 C 
ATOM     10  C   LIG    1       26.991 -14.493   4.352  0.00  0.00    +0.031 C 
ATOM     11  C   LIG    1       23.750 -12.968   3.021  0.00  0.00    +0.046 C 
ENDBRANCH   1   2
BRANCH   1  12
ATOM     12  C   LIG    1       23.698 -16.057   4.143  0.00  0.00    +0.261 C 
BRANCH  12  13
ATOM     13  C   LIG    1       22.292 -16.527   4.526  0.00  0.00    +0.166 C 
BRANCH  13  14
ATOM     14  O   LIG    1       21.928 -15.937   5.788  0.00  0.00    -0.387 OA
ATOM     15  H   LIG    1       22.746 -15.543   6.147  0.00  0.00    +0.210 HD
ENDBRANCH  13  14
BRANCH  13  16
ATOM     16  C   LIG    1       22.217 -18.061   4.683  0.00  0.00    +0.115 C 
BRANCH  16  17
ATOM     17  N   LIG    1       23.146 -18.828   3.835  0.00  0.00    -0.311 NA
ATOM     18  H   LIG    1       22.694 -19.048   2.947  0.00  0.00    +0.122 HD
BRANCH  17  20
ATOM     19  C   LIG    1       25.114 -20.179   4.581  0.00  0.00    +0.024 C 
ATOM     20  C   LIG    1       23.588 -20.081   4.480  0.00  0.00    +0.048 C 
ATOM     21  C   LIG    1       22.979 -20.193   5.884  0.00  0.00    +0.024 C 
ENDBRANCH  17  20
ENDBRANCH  16  17
ENDBRANCH  13  16
ENDBRANCH  12  13
ENDBRANCH   1  12
TORSDOF 7
ENDMDL
MODEL 9
REMARK VINA RESULT:      -4.4      2.052      2.560
REMARK  Name = *****
REMARK                            x       y       z     vdW  Elec       q    Type
REMARK                         _______ _______ _______ _____ _____    ______ ____
ROOT
ATOM      1  O   LIG    1       24.072 -17.125   3.762  0.00  0.00    -0.489 OA
ENDROOT
BRANCH   1   2
ATOM      2  C   LIG    1       23.555 -18.344   4.150  0.00  0.00    +0.130 C 
ATOM      3  C   LIG    1       24.454 -19.395   4.458  0.00  0.00    +0.041 C 
ATOM      4  C   LIG    1       23.934 -20.630   4.876  0.00  0.00    +0.050 C 
ATOM      5  N   LIG    1       25.001 -21.465   5.112  0.00  0.00    -0.360 NA
ATOM      6  H   LIG    1       24.915 -22.431   5.421  0.00  0.00    +0.165 HD
ATOM      7  C   LIG    1       26.181 -20.816   4.891  0.00  0.00    +0.083 C 
ATOM      8  C   LIG    1       22.566 -20.872   5.007  0.00  0.00    +0.026 C 
ATOM      9  C   LIG    1       21.695 -19.834   4.693  0.00  0.00    +0.006 C 
ATOM     10  C   LIG    1       25.873 -19.537   4.477  0.00  0.00    +0.031 C 
ATOM     11  C   LIG    1       22.176 -18.599   4.255  0.00  0.00    +0.046 C 
ENDBRANCH   1   2
BRANCH   1  12
ATOM     12  C   LIG    1       23.312 -15.983   4.205  0.00  0.00    +0.261 C 
BRANCH  12  13
ATOM     13  C   LIG    1       24.191 -14.732   4.125  0.00  0.00    +0.166 C 
BRANCH  13  14
ATOM     14  O   LIG    1       23.539 -13.752   3.296  0.00  0.00    -0.387 OA
ATOM     15  H   LIG    1       23.699 -12.889   3.724  0.00  0.00    +0.210 HD
ENDBRANCH  13  14
BRANCH  13  16
ATOM     16  C   LIG    1       25.571 -15.032   3.504  0.00  0.00    +0.115 C 
BRANCH  16  17
ATOM     17  N   LIG    1       26.446 -13.861   3.314  0.00  0.00    -0.311 NA
ATOM     18  H   LIG    1       26.799 -13.851   2.357  0.00  0.00    +0.122 HD
BRANCH  17  20
ATOM     19  C   LIG    1       28.733 -12.960   3.775  0.00  0.00    +0.024 C 
ATOM     20  C   LIG    1       27.585 -13.855   4.254  0.00  0.00    +0.048 C 
ATOM     21  C   LIG    1       27.122 -13.387   5.640  0.00  0.00    +0.024 C 
ENDBRANCH  17  20
ENDBRANCH  16  17
ENDBRANCH  13  16
ENDBRANCH  12  13
ENDBRANCH   1  12
TORSDOF 7
ENDMDL
