MODEL 1
REMARK VINA RESULT:      -5.4      0.000      0.000
REMARK  Name = *****
REMARK                            x       y       z     vdW  Elec       q    Type
REMARK                         _______ _______ _______ _____ _____    ______ ____
ROOT
ATOM      1  C   LIG    1       23.570 -21.062   5.971  0.00  0.00    +0.406 C 
ATOM      2  F   LIG    1       24.722 -20.348   6.003  0.00  0.00    -0.170 F 
ATOM      3  F   LIG    1       22.957 -20.896   7.167  0.00  0.00    -0.170 F 
ENDROOT
BRANCH   1   4
ATOM      4  C   LIG    1       22.638 -20.575   4.855  0.00  0.00    +0.355 C 
ATOM      5 CL   LIG    1       22.325 -18.819   4.940  0.00  0.00    -0.076 Cl
ATOM      6  F   LIG    1       21.440 -21.222   4.925  0.00  0.00    -0.219 F 
ENDBRANCH   1   4
BRANCH   1   7
ATOM      7  O   LIG    1       23.893 -22.435   5.829  0.00  0.00    -0.255 OA
BRANCH   7   9
ATOM      8  F   LIG    1       22.140 -23.613   6.595  0.00  0.00    -0.178 F 
ATOM      9  C   LIG    1       23.375 -23.160   6.913  0.00  0.00    +0.487 C 
ATOM     10  F   LIG    1       24.156 -24.255   7.066  0.00  0.00    -0.178 F 
ENDBRANCH   7   9
ENDBRANCH   1   7
TORSDOF 3
ENDMDL
MODEL 2
REMARK VINA RESULT:      -5.3      2.365      3.809
REMARK  Name = *****
REMARK                            x       y       z     vdW  Elec       q    Type
REMARK                         _______ _______ _______ _____ _____    ______ ____
ROOT
ATOM      1  C   LIG    1       23.247 -22.816   6.702  0.00  0.00    +0.406 C 
ATOM      2  F   LIG    1       22.186 -23.644   6.865  0.00  0.00    -0.170 F 
ATOM      3  F   LIG    1       23.526 -22.272   7.911  0.00  0.00    -0.170 F 
ENDROOT
BRANCH   1   4
ATOM      4  C   LIG    1       24.480 -23.573   6.194  0.00  0.00    +0.355 C 
ATOM      5 CL   LIG    1       25.893 -23.380   7.267  0.00  0.00    -0.076 Cl
ATOM      6  F   LIG    1       24.827 -23.129   4.952  0.00  0.00    -0.219 F 
ENDBRANCH   1   4
BRANCH   1   7
ATOM      7  O   LIG    1       22.871 -21.767   5.825  0.00  0.00    -0.255 OA
BRANCH   7   9
ATOM      8  F   LIG    1       24.509 -20.236   5.965  0.00  0.00    -0.178 F 
ATOM      9  C   LIG    1       23.252 -20.531   6.369  0.00  0.00    +0.487 C 
ATOM     10  F   LIG    1       22.444 -19.593   5.823  0.00  0.00    -0.178 F 
ENDBRANCH   7   9
ENDBRANCH   1   7
TORSDOF 3
ENDMDL
MODEL 3
REMARK VINA RESULT:      -5.2      2.394      3.891
REMARK  Name = *****
REMARK                            x       y       z     vdW  Elec       q    Type
REMARK                         _______ _______ _______ _____ _____    ______ ____
ROOT
ATOM      1  C   LIG    1       22.596 -20.930   5.323  0.00  0.00    +0.406 C 
ATOM      2  F   LIG    1       21.402 -21.482   4.993  0.00  0.00    -0.170 F 
ATOM      3  F   LIG    1       22.362 -19.648   5.689  0.00  0.00    -0.170 F 
ENDROOT
BRANCH   1   4
ATOM      4  C   LIG    1       23.257 -21.674   6.489  0.00  0.00    +0.355 C 
ATOM      5 CL   LIG    1       22.565 -23.300   6.745  0.00  0.00    -0.076 Cl
ATOM      6  F   LIG    1       23.111 -20.965   7.645  0.00  0.00    -0.219 F 
ENDBRANCH   1   4
BRANCH   1   7
ATOM      7  O   LIG    1       23.420 -20.914   4.170  0.00  0.00    -0.255 OA
BRANCH   7   9
ATOM      8  F   LIG    1       25.600 -20.407   3.974  0.00  0.00    -0.178 F 
ATOM      9  C   LIG    1       24.385 -19.902   4.287  0.00  0.00    +0.487 C 
ATOM     10  F   LIG    1       24.102 -18.974   3.344  0.00  0.00    -0.178 F 
ENDBRANCH   7   9
ENDBRANCH   1   7
TORSDOF 3
ENDMDL
MODEL 4
REMARK VINA RESULT:      -5.2      2.259      3.246
REMARK  Name = *****
REMARK                            x       y       z     vdW  Elec       q    Type
REMARK                         _______ _______ _______ _____ _____    ______ ____
ROOT
ATOM      1  C   LIG    1       23.694 -21.592   7.046  0.00  0.00    +0.406 C 
ATOM      2  F   LIG    1       22.760 -22.363   7.655  0.00  0.00    -0.170 F 
ATOM      3  F   LIG    1       24.714 -22.404   6.680  0.00  0.00    -0.170 F 
ENDROOT
BRANCH   1   4
ATOM      4  C   LIG    1       23.128 -20.902   5.799  0.00  0.00    +0.355 C 
ATOM      5 CL   LIG    1       24.353 -20.688   4.518  0.00  0.00    -0.076 Cl
ATOM      6  F   LIG    1       22.635 -19.672   6.123  0.00  0.00    -0.219 F 
ENDBRANCH   1   4
BRANCH   1   7
ATOM      7  O   LIG    1       24.192 -20.657   7.988  0.00  0.00    -0.255 OA
BRANCH   7   9
ATOM      8  F   LIG    1       26.187 -20.032   7.165  0.00  0.00    -0.178 F 
ATOM      9  C   LIG    1       25.584 -20.795   8.106  0.00  0.00    +0.487 C 
ATOM     10  F   LIG    1       25.933 -20.272   9.304  0.00  0.00    -0.178 F 
ENDBRANCH   7   9
ENDBRANCH   1   7
TORSDOF 3
ENDMDL
MODEL 5
REMARK VINA RESULT:      -5.2      1.707      2.169
REMARK  Name = *****
REMARK                            x       y       z     vdW  Elec       q    Type
REMARK                         _______ _______ _______ _____ _____    ______ ____
ROOT
ATOM      1  C   LIG    1       22.827 -20.885   5.697  0.00  0.00    +0.406 C 
ATOM      2  F   LIG    1       22.586 -19.593   6.030  0.00  0.00    -0.170 F 
ATOM      3  F   LIG    1       21.707 -21.367   5.108  0.00  0.00    -0.170 F 
ENDROOT
BRANCH   1   4
ATOM      4  C   LIG    1       24.001 -21.004   4.718  0.00  0.00    +0.355 C 
ATOM      5 CL   LIG    1       25.536 -20.413   5.414  0.00  0.00    -0.076 Cl
ATOM      6  F   LIG    1       23.746 -20.288   3.586  0.00  0.00    -0.219 F 
ENDBRANCH   1   4
BRANCH   1   7
ATOM      7  O   LIG    1       23.052 -21.623   6.886  0.00  0.00    -0.255 OA
BRANCH   7   9
ATOM      8  F   LIG    1       24.344 -23.405   7.335  0.00  0.00    -0.178 F 
ATOM      9  C   LIG    1       23.319 -22.964   6.571  0.00  0.00    +0.487 C 
ATOM     10  F   LIG    1       22.232 -23.681   6.938  0.00  0.00    -0.178 F 
ENDBRANCH   7   9
ENDBRANCH   1   7
TORSDOF 3
ENDMDL
MODEL 6
REMARK VINA RESULT:      -5.2      2.204      3.714
REMARK  Name = *****
REMARK                            x       y       z     vdW  Elec       q    Type
REMARK                         _______ _______ _______ _____ _____    ______ ____
ROOT
ATOM      1  C   LIG    1       24.226 -20.882   6.723  0.00  0.00    +0.406 C 
ATOM      2  F   LIG    1       23.258 -20.490   7.587  0.00  0.00    -0.170 F 
ATOM      3  F   LIG    1       25.389 -20.326   7.138  0.00  0.00    -0.170 F 
ENDROOT
BRANCH   1   4
ATOM      4  C   LIG    1       24.378 -22.408   6.702  0.00  0.00    +0.355 C 
ATOM      5 CL   LIG    1       22.811 -23.254   6.832  0.00  0.00    -0.076 Cl
ATOM      6  F   LIG    1       25.168 -22.818   7.735  0.00  0.00    -0.219 F 
ENDBRANCH   1   4
BRANCH   1   7
ATOM      7  O   LIG    1       23.923 -20.362   5.440  0.00  0.00    -0.255 OA
BRANCH   7   9
ATOM      8  F   LIG    1       22.590 -18.767   4.589  0.00  0.00    -0.178 F 
ATOM      9  C   LIG    1       22.629 -19.819   5.439  0.00  0.00    +0.487 C 
ATOM     10  F   LIG    1       21.805 -20.759   4.922  0.00  0.00    -0.178 F 
ENDBRANCH   7   9
ENDBRANCH   1   7
TORSDOF 3
ENDMDL
MODEL 7
REMARK VINA RESULT:      -5.2      7.806      8.550
REMARK  Name = *****
REMARK                            x       y       z     vdW  Elec       q    Type
REMARK                         _______ _______ _______ _____ _____    ______ ____
ROOT
ATOM      1  C   LIG    1       31.337 -19.457   8.932  0.00  0.00    +0.406 C 
ATOM      2  F   LIG    1       32.243 -18.628   8.358  0.00  0.00    -0.170 F 
ATOM      3  F   LIG    1       30.843 -18.826  10.023  0.00  0.00    -0.170 F 
ENDROOT
BRANCH   1   4
ATOM      4  C   LIG    1       30.184 -19.780   7.973  0.00  0.00    +0.355 C 
ATOM      5 CL   LIG    1       30.467 -19.153   6.326  0.00  0.00    -0.076 Cl
ATOM      6  F   LIG    1       29.020 -19.243   8.437  0.00  0.00    -0.219 F 
ENDBRANCH   1   4
BRANCH   1   7
ATOM      7  O   LIG    1       32.008 -20.627   9.366  0.00  0.00    -0.255 OA
BRANCH   7   9
ATOM      8  F   LIG    1       32.061 -22.738   8.599  0.00  0.00    -0.178 F 
ATOM      9  C   LIG    1       31.242 -21.761   9.050  0.00  0.00    +0.487 C 
ATOM     10  F   LIG    1       30.709 -22.213  10.208  0.00  0.00    -0.178 F 
ENDBRANCH   7   9
ENDBRANCH   1   7
TORSDOF 3
ENDMDL
MODEL 8
REMARK VINA RESULT:      -5.1      2.716      3.315
REMARK  Name = *****
REMARK                            x       y       z     vdW  Elec       q    Type
REMARK                         _______ _______ _______ _____ _____    ______ ____
ROOT
ATOM      1  C   LIG    1       24.077 -20.912   6.725  0.00  0.00    +0.406 C 
ATOM      2  F   LIG    1       25.126 -20.230   6.205  0.00  0.00    -0.170 F 
ATOM      3  F   LIG    1       22.995 -20.099   6.668  0.00  0.00    -0.170 F 
ENDROOT
BRANCH   1   4
ATOM      4  C   LIG    1       23.787 -22.191   5.931  0.00  0.00    +0.355 C 
ATOM      5 CL   LIG    1       22.837 -23.379   6.866  0.00  0.00    -0.076 Cl
ATOM      6  F   LIG    1       24.955 -22.786   5.553  0.00  0.00    -0.219 F 
ENDBRANCH   1   4
BRANCH   1   7
ATOM      7  O   LIG    1       24.348 -21.186   8.089  0.00  0.00    -0.255 OA
BRANCH   7   9
ATOM      8  F   LIG    1       25.916 -20.245   9.394  0.00  0.00    -0.178 F 
ATOM      9  C   LIG    1       25.725 -21.064   8.335  0.00  0.00    +0.487 C 
ATOM     10  F   LIG    1       26.170 -22.285   8.710  0.00  0.00    -0.178 F 
ENDBRANCH   7   9
ENDBRANCH   1   7
TORSDOF 3
ENDMDL
MODEL 9
REMARK VINA RESULT:      -5.1      8.515      9.202
REMARK  Name = *****
REMARK                            x       y       z     vdW  Elec       q    Type
REMARK                         _______ _______ _______ _____ _____    ______ ____
ROOT
ATOM      1  C   LIG    1       31.382 -19.502   8.735  0.00  0.00    +0.406 C 
ATOM      2  F   LIG    1       30.046 -19.727   8.676  0.00  0.00    -0.170 F 
ATOM      3  F   LIG    1       31.827 -19.370   7.463  0.00  0.00    -0.170 F 
ENDROOT
BRANCH   1   4
ATOM      4  C   LIG    1       31.702 -18.221   9.515  0.00  0.00    +0.355 C 
ATOM      5 CL   LIG    1       30.292 -17.594  10.413  0.00  0.00    -0.076 Cl
ATOM      6  F   LIG    1       32.131 -17.245   8.664  0.00  0.00    -0.219 F 
ENDBRANCH   1   4
BRANCH   1   7
ATOM      7  O   LIG    1       32.007 -20.639   9.304  0.00  0.00    -0.255 OA
BRANCH   7   9
ATOM      8  F   LIG    1       32.090 -22.769   8.597  0.00  0.00    -0.178 F 
ATOM      9  C   LIG    1       31.257 -21.790   9.016  0.00  0.00    +0.487 C 
ATOM     10  F   LIG    1       30.722 -22.216  10.183  0.00  0.00    -0.178 F 
ENDBRANCH   7   9
ENDBRANCH   1   7
TORSDOF 3
ENDMDL
