MODEL 1
REMARK VINA RESULT:      -7.0      0.000      0.000
REMARK  Name = *****
REMARK                            x       y       z     vdW  Elec       q    Type
REMARK                         _______ _______ _______ _____ _____    ______ ____
ROOT
ATOM      1  C   LIG    1       29.419 -19.605   8.207  0.00  0.00    +0.201 C 
ATOM      2  C   LIG    1       29.319 -19.430   6.670  0.00  0.00    +0.042 C 
ATOM      3  C   LIG    1       28.080 -18.604   6.269  0.00  0.00    +0.025 C 
ATOM      4  C   LIG    1       30.537 -18.791   5.992  0.00  0.00    +0.025 C 
ATOM      5  S   LIG    1       29.095 -21.136   5.975  0.00  0.00    -0.127 S 
ATOM      6  C   LIG    1       28.662 -21.906   7.601  0.00  0.00    +0.165 C 
ATOM      7  C   LIG    1       27.167 -22.177   7.900  0.00  0.00    +0.190 C 
ATOM      8  C   LIG    1       27.225 -20.776   8.574  0.00  0.00    +0.240 C 
ATOM      9  O   LIG    1       26.424 -19.905   8.877  0.00  0.00    -0.273 OA
ATOM     10  N   LIG    1       28.580 -20.764   8.540  0.00  0.00    -0.271 N 
ENDROOT
BRANCH   7  11
ATOM     11  N   LIG    1       26.228 -22.321   6.747  0.00  0.00    -0.300 N 
ATOM     12  H   LIG    1       26.607 -22.464   5.819  0.00  0.00    +0.150 HD
ATOM     13  C   LIG    1       24.853 -22.298   6.907  0.00  0.00    +0.235 C 
ATOM     14  O   LIG    1       24.330 -22.162   8.015  0.00  0.00    -0.274 OA
BRANCH  13  15
ATOM     15  C   LIG    1       24.027 -22.447   5.588  0.00  0.00    +0.168 C 
BRANCH  15  16
ATOM     16  C   LIG    1       23.722 -21.102   4.947  0.00  0.00    -0.022 A 
ATOM     17  C   LIG    1       24.630 -20.504   4.056  0.00  0.00    +0.006 A 
ATOM     18  C   LIG    1       24.343 -19.267   3.468  0.00  0.00    +0.000 A 
ATOM     19  C   LIG    1       23.151 -18.610   3.767  0.00  0.00    +0.000 A 
ATOM     20  C   LIG    1       22.248 -19.185   4.656  0.00  0.00    +0.000 A 
ATOM     21  C   LIG    1       22.531 -20.420   5.242  0.00  0.00    +0.006 A 
ENDBRANCH  15  16
BRANCH  15  22
ATOM     22  N   LIG    1       24.762 -23.328   4.655  0.00  0.00    -0.316 NA
ATOM     23  H   LIG    1       25.599 -22.845   4.331  0.00  0.00    +0.119 HD
ATOM     24  H   LIG    1       25.091 -24.134   5.195  0.00  0.00    +0.119 HD
ENDBRANCH  15  22
ENDBRANCH  13  15
ENDBRANCH   7  11
BRANCH   1  25
ATOM     25  C   LIG    1       30.810 -20.017   8.715  0.00  0.00    +0.332 C 
ATOM     26  O   LIG    1       31.535 -20.827   8.140  0.00  0.00    -0.249 OA
BRANCH  25  27
ATOM     27  O   LIG    1       31.182 -19.369   9.856  0.00  0.00    -0.423 OA
BRANCH  27  28
ATOM     28  C   LIG    1       31.616 -18.023   9.580  0.00  0.00    +0.370 C 
ATOM     29  C   LIG    1       30.402 -17.103   9.710  0.00  0.00    +0.100 C 
BRANCH  28  30
ATOM     30  O   LIG    1       32.606 -17.560  10.503  0.00  0.00    -0.394 OA
BRANCH  30  31
ATOM     31  C   LIG    1       32.842 -16.228  10.437  0.00  0.00    +0.513 C 
ATOM     32  O   LIG    1       32.958 -15.558   9.422  0.00  0.00    -0.203 OA
BRANCH  31  33
ATOM     33  O   LIG    1       33.025 -15.782  11.708  0.00  0.00    -0.434 OA
BRANCH  33  35
ATOM     34  C   LIG    1       32.471 -16.008  14.031  0.00  0.00    +0.048 C 
ATOM     35  C   LIG    1       31.939 -16.045  12.608  0.00  0.00    +0.232 C 
ENDBRANCH  33  35
ENDBRANCH  31  33
ENDBRANCH  30  31
ENDBRANCH  28  30
ENDBRANCH  27  28
ENDBRANCH  25  27
ENDBRANCH   1  25
TORSDOF 11
ENDMDL
MODEL 2
REMARK VINA RESULT:      -6.8      3.313      9.529
REMARK  Name = *****
REMARK                            x       y       z     vdW  Elec       q    Type
REMARK                         _______ _______ _______ _____ _____    ______ ____
ROOT
ATOM      1  C   LIG    1       24.674 -22.791   6.172  0.00  0.00    +0.201 C 
ATOM      2  C   LIG    1       24.428 -21.373   5.593  0.00  0.00    +0.042 C 
ATOM      3  C   LIG    1       25.532 -20.964   4.598  0.00  0.00    +0.025 C 
ATOM      4  C   LIG    1       23.079 -21.162   4.896  0.00  0.00    +0.025 C 
ATOM      5  S   LIG    1       24.526 -20.210   7.036  0.00  0.00    -0.127 S 
ATOM      6  C   LIG    1       25.322 -21.439   8.168  0.00  0.00    +0.165 C 
ATOM      7  C   LIG    1       26.850 -21.336   8.391  0.00  0.00    +0.190 C 
ATOM      8  C   LIG    1       26.916 -22.362   7.223  0.00  0.00    +0.240 C 
ATOM      9  O   LIG    1       27.747 -22.719   6.401  0.00  0.00    -0.273 OA
ATOM     10  N   LIG    1       25.587 -22.614   7.308  0.00  0.00    -0.271 N 
ENDROOT
BRANCH   7  11
ATOM     11  N   LIG    1       27.515 -20.019   8.155  0.00  0.00    -0.300 N 
ATOM     12  H   LIG    1       26.941 -19.198   8.009  0.00  0.00    +0.150 HD
ATOM     13  C   LIG    1       28.892 -19.875   8.160  0.00  0.00    +0.235 C 
ATOM     14  O   LIG    1       29.645 -20.829   8.366  0.00  0.00    -0.274 OA
BRANCH  13  15
ATOM     15  C   LIG    1       29.410 -18.427   7.880  0.00  0.00    +0.168 C 
BRANCH  15  16
ATOM     16  C   LIG    1       30.348 -17.932   8.970  0.00  0.00    -0.022 A 
ATOM     17  C   LIG    1       29.913 -17.821  10.302  0.00  0.00    +0.006 A 
ATOM     18  C   LIG    1       30.781 -17.366  11.301  0.00  0.00    +0.000 A 
ATOM     19  C   LIG    1       32.091 -17.012  10.982  0.00  0.00    +0.000 A 
ATOM     20  C   LIG    1       32.532 -17.106   9.665  0.00  0.00    +0.000 A 
ATOM     21  C   LIG    1       31.669 -17.561   8.668  0.00  0.00    +0.006 A 
ENDBRANCH  15  16
BRANCH  15  22
ATOM     22  N   LIG    1       30.070 -18.398   6.556  0.00  0.00    -0.316 NA
ATOM     23  H   LIG    1       30.903 -18.984   6.587  0.00  0.00    +0.119 HD
ATOM     24  H   LIG    1       29.433 -18.846   5.891  0.00  0.00    +0.119 HD
ENDBRANCH  15  22
ENDBRANCH  13  15
ENDBRANCH   7  11
BRANCH   1  25
ATOM     25  C   LIG    1       23.437 -23.445   6.809  0.00  0.00    +0.332 C 
ATOM     26  O   LIG    1       22.499 -22.810   7.288  0.00  0.00    -0.249 OA
BRANCH  25  27
ATOM     27  O   LIG    1       23.462 -24.807   6.763  0.00  0.00    -0.423 OA
BRANCH  27  28
ATOM     28  C   LIG    1       24.600 -25.289   6.022  0.00  0.00    +0.370 C 
ATOM     29  C   LIG    1       25.576 -25.917   7.016  0.00  0.00    +0.100 C 
BRANCH  28  30
ATOM     30  O   LIG    1       24.253 -26.297   5.066  0.00  0.00    -0.394 OA
BRANCH  30  31
ATOM     31  C   LIG    1       25.233 -27.202   4.839  0.00  0.00    +0.513 C 
ATOM     32  O   LIG    1       26.405 -26.962   4.593  0.00  0.00    -0.203 OA
BRANCH  31  33
ATOM     33  O   LIG    1       24.658 -28.434   4.837  0.00  0.00    -0.434 OA
BRANCH  33  35
ATOM     34  C   LIG    1       24.403 -29.398   7.019  0.00  0.00    +0.048 C 
ATOM     35  C   LIG    1       25.237 -29.379   5.749  0.00  0.00    +0.232 C 
ENDBRANCH  33  35
ENDBRANCH  31  33
ENDBRANCH  30  31
ENDBRANCH  28  30
ENDBRANCH  27  28
ENDBRANCH  25  27
ENDBRANCH   1  25
TORSDOF 11
ENDMDL
MODEL 3
REMARK VINA RESULT:      -6.7      8.064     12.207
REMARK  Name = *****
REMARK                            x       y       z     vdW  Elec       q    Type
REMARK                         _______ _______ _______ _____ _____    ______ ____
ROOT
ATOM      1  C   LIG    1       25.170 -31.292   7.934  0.00  0.00    +0.201 C 
ATOM      2  C   LIG    1       24.863 -30.440   9.192  0.00  0.00    +0.042 C 
ATOM      3  C   LIG    1       23.374 -30.046   9.266  0.00  0.00    +0.025 C 
ATOM      4  C   LIG    1       25.238 -31.076  10.536  0.00  0.00    +0.025 C 
ATOM      5  S   LIG    1       25.840 -28.874   8.998  0.00  0.00    -0.127 S 
ATOM      6  C   LIG    1       26.186 -29.134   7.199  0.00  0.00    +0.165 C 
ATOM      7  C   LIG    1       25.331 -28.350   6.175  0.00  0.00    +0.190 C 
ATOM      8  C   LIG    1       24.446 -29.629   6.193  0.00  0.00    +0.240 C 
ATOM      9  O   LIG    1       23.290 -29.912   5.917  0.00  0.00    -0.273 OA
ATOM     10  N   LIG    1       25.402 -30.337   6.842  0.00  0.00    -0.271 N 
ENDROOT
BRANCH   7  11
ATOM     11  N   LIG    1       24.676 -27.083   6.619  0.00  0.00    -0.300 N 
ATOM     12  H   LIG    1       23.836 -27.135   7.183  0.00  0.00    +0.150 HD
ATOM     13  C   LIG    1       25.195 -25.836   6.314  0.00  0.00    +0.235 C 
ATOM     14  O   LIG    1       26.232 -25.706   5.659  0.00  0.00    -0.274 OA
BRANCH  13  15
ATOM     15  C   LIG    1       24.367 -24.622   6.848  0.00  0.00    +0.168 C 
BRANCH  15  16
ATOM     16  C   LIG    1       25.125 -23.310   6.716  0.00  0.00    -0.022 A 
ATOM     17  C   LIG    1       26.275 -23.058   7.485  0.00  0.00    +0.006 A 
ATOM     18  C   LIG    1       26.968 -21.849   7.358  0.00  0.00    +0.000 A 
ATOM     19  C   LIG    1       26.518 -20.875   6.468  0.00  0.00    +0.000 A 
ATOM     20  C   LIG    1       25.376 -21.106   5.708  0.00  0.00    +0.000 A 
ATOM     21  C   LIG    1       24.684 -22.312   5.831  0.00  0.00    +0.006 A 
ENDBRANCH  15  16
BRANCH  15  22
ATOM     22  N   LIG    1       23.075 -24.565   6.131  0.00  0.00    -0.316 NA
ATOM     23  H   LIG    1       22.741 -23.603   6.123  0.00  0.00    +0.119 HD
ATOM     24  H   LIG    1       23.260 -24.809   5.154  0.00  0.00    +0.119 HD
ENDBRANCH  15  22
ENDBRANCH  13  15
ENDBRANCH   7  11
BRANCH   1  25
ATOM     25  C   LIG    1       26.487 -32.082   8.001  0.00  0.00    +0.332 C 
ATOM     26  O   LIG    1       27.424 -31.784   8.740  0.00  0.00    -0.249 OA
BRANCH  25  27
ATOM     27  O   LIG    1       26.506 -33.172   7.183  0.00  0.00    -0.423 OA
BRANCH  27  28
ATOM     28  C   LIG    1       27.427 -32.993   6.088  0.00  0.00    +0.370 C 
ATOM     29  C   LIG    1       28.741 -33.677   6.465  0.00  0.00    +0.100 C 
BRANCH  28  30
ATOM     30  O   LIG    1       26.965 -33.591   4.873  0.00  0.00    -0.394 OA
BRANCH  30  31
ATOM     31  C   LIG    1       25.883 -32.980   4.334  0.00  0.00    +0.513 C 
ATOM     32  O   LIG    1       25.835 -31.845   3.885  0.00  0.00    -0.203 OA
BRANCH  31  33
ATOM     33  O   LIG    1       24.827 -33.825   4.471  0.00  0.00    -0.434 OA
BRANCH  33  35
ATOM     34  C   LIG    1       23.235 -33.798   6.265  0.00  0.00    +0.048 C 
ATOM     35  C   LIG    1       23.609 -33.211   4.914  0.00  0.00    +0.232 C 
ENDBRANCH  33  35
ENDBRANCH  31  33
ENDBRANCH  30  31
ENDBRANCH  28  30
ENDBRANCH  27  28
ENDBRANCH  25  27
ENDBRANCH   1  25
TORSDOF 11
ENDMDL
MODEL 4
REMARK VINA RESULT:      -6.5     10.275     13.408
REMARK  Name = *****
REMARK                            x       y       z     vdW  Elec       q    Type
REMARK                         _______ _______ _______ _____ _____    ______ ____
ROOT
ATOM      1  C   LIG    1       25.696 -32.140   9.503  0.00  0.00    +0.201 C 
ATOM      2  C   LIG    1       25.626 -30.666   9.980  0.00  0.00    +0.042 C 
ATOM      3  C   LIG    1       26.016 -30.527  11.465  0.00  0.00    +0.025 C 
ATOM      4  C   LIG    1       26.476 -29.668   9.186  0.00  0.00    +0.025 C 
ATOM      5  S   LIG    1       23.845 -30.165   9.827  0.00  0.00    -0.127 S 
ATOM      6  C   LIG    1       23.216 -31.896   9.648  0.00  0.00    +0.165 C 
ATOM      7  C   LIG    1       22.587 -32.572  10.891  0.00  0.00    +0.190 C 
ATOM      8  C   LIG    1       24.029 -33.114  11.113  0.00  0.00    +0.240 C 
ATOM      9  O   LIG    1       24.679 -33.545  12.052  0.00  0.00    -0.273 OA
ATOM     10  N   LIG    1       24.408 -32.747   9.864  0.00  0.00    -0.271 N 
ENDROOT
BRANCH   7  11
ATOM     11  N   LIG    1       22.034 -31.698  11.969  0.00  0.00    -0.300 N 
ATOM     12  H   LIG    1       22.538 -31.617  12.844  0.00  0.00    +0.150 HD
ATOM     13  C   LIG    1       20.870 -30.968  11.804  0.00  0.00    +0.235 C 
ATOM     14  O   LIG    1       20.228 -30.997  10.751  0.00  0.00    -0.274 OA
BRANCH  13  15
ATOM     15  C   LIG    1       20.432 -30.121  13.044  0.00  0.00    +0.168 C 
BRANCH  15  16
ATOM     16  C   LIG    1       21.181 -28.800  13.130  0.00  0.00    -0.022 A 
ATOM     17  C   LIG    1       20.488 -27.577  13.160  0.00  0.00    +0.006 A 
ATOM     18  C   LIG    1       21.183 -26.365  13.240  0.00  0.00    +0.000 A 
ATOM     19  C   LIG    1       22.576 -26.359  13.284  0.00  0.00    +0.000 A 
ATOM     20  C   LIG    1       23.275 -27.561  13.244  0.00  0.00    +0.000 A 
ATOM     21  C   LIG    1       22.585 -28.772  13.167  0.00  0.00    +0.006 A 
ENDBRANCH  15  16
BRANCH  15  22
ATOM     22  N   LIG    1       18.971 -29.903  12.988  0.00  0.00    -0.316 NA
ATOM     23  H   LIG    1       18.538 -30.339  13.800  0.00  0.00    +0.119 HD
ATOM     24  H   LIG    1       18.811 -28.897  13.087  0.00  0.00    +0.119 HD
ENDBRANCH  15  22
ENDBRANCH  13  15
ENDBRANCH   7  11
BRANCH   1  25
ATOM     25  C   LIG    1       25.756 -32.317   7.977  0.00  0.00    +0.332 C 
ATOM     26  O   LIG    1       26.772 -32.137   7.309  0.00  0.00    -0.249 OA
BRANCH  25  27
ATOM     27  O   LIG    1       24.575 -32.727   7.434  0.00  0.00    -0.423 OA
BRANCH  27  28
ATOM     28  C   LIG    1       24.332 -32.096   6.161  0.00  0.00    +0.370 C 
ATOM     29  C   LIG    1       23.365 -32.981   5.375  0.00  0.00    +0.100 C 
BRANCH  28  30
ATOM     30  O   LIG    1       23.726 -30.806   6.289  0.00  0.00    -0.394 OA
BRANCH  30  31
ATOM     31  C   LIG    1       24.515 -29.783   5.884  0.00  0.00    +0.513 C 
ATOM     32  O   LIG    1       25.511 -29.864   5.182  0.00  0.00    -0.203 OA
BRANCH  31  33
ATOM     33  O   LIG    1       24.055 -28.651   6.481  0.00  0.00    -0.434 OA
BRANCH  33  35
ATOM     34  C   LIG    1       24.257 -26.309   6.002  0.00  0.00    +0.048 C 
ATOM     35  C   LIG    1       24.977 -27.553   6.498  0.00  0.00    +0.232 C 
ENDBRANCH  33  35
ENDBRANCH  31  33
ENDBRANCH  30  31
ENDBRANCH  28  30
ENDBRANCH  27  28
ENDBRANCH  25  27
ENDBRANCH   1  25
TORSDOF 11
ENDMDL
MODEL 5
REMARK VINA RESULT:      -6.5      8.679     11.889
REMARK  Name = *****
REMARK                            x       y       z     vdW  Elec       q    Type
REMARK                         _______ _______ _______ _____ _____    ______ ____
ROOT
ATOM      1  C   LIG    1       24.621 -32.877   9.716  0.00  0.00    +0.201 C 
ATOM      2  C   LIG    1       23.387 -32.373   8.924  0.00  0.00    +0.042 C 
ATOM      3  C   LIG    1       23.522 -32.656   7.415  0.00  0.00    +0.025 C 
ATOM      4  C   LIG    1       22.032 -32.930   9.377  0.00  0.00    +0.025 C 
ATOM      5  S   LIG    1       23.361 -30.530   9.142  0.00  0.00    -0.127 S 
ATOM      6  C   LIG    1       25.096 -30.427   9.775  0.00  0.00    +0.165 C 
ATOM      7  C   LIG    1       26.202 -29.975   8.792  0.00  0.00    +0.190 C 
ATOM      8  C   LIG    1       26.375 -31.503   8.553  0.00  0.00    +0.240 C 
ATOM      9  O   LIG    1       26.836 -32.216   7.675  0.00  0.00    -0.273 OA
ATOM     10  N   LIG    1       25.621 -31.804   9.638  0.00  0.00    -0.271 N 
ENDROOT
BRANCH   7  11
ATOM     11  N   LIG    1       25.805 -29.159   7.605  0.00  0.00    -0.300 N 
ATOM     12  H   LIG    1       25.287 -29.600   6.855  0.00  0.00    +0.150 HD
ATOM     13  C   LIG    1       26.094 -27.808   7.507  0.00  0.00    +0.235 C 
ATOM     14  O   LIG    1       26.693 -27.205   8.401  0.00  0.00    -0.274 OA
BRANCH  13  15
ATOM     15  C   LIG    1       25.617 -27.119   6.188  0.00  0.00    +0.168 C 
BRANCH  15  16
ATOM     16  C   LIG    1       25.121 -25.701   6.428  0.00  0.00    -0.022 A 
ATOM     17  C   LIG    1       23.749 -25.399   6.391  0.00  0.00    +0.006 A 
ATOM     18  C   LIG    1       23.299 -24.093   6.614  0.00  0.00    +0.000 A 
ATOM     19  C   LIG    1       24.213 -23.073   6.870  0.00  0.00    +0.000 A 
ATOM     20  C   LIG    1       25.576 -23.355   6.900  0.00  0.00    +0.000 A 
ATOM     21  C   LIG    1       26.026 -24.657   6.679  0.00  0.00    +0.006 A 
ENDBRANCH  15  16
BRANCH  15  22
ATOM     22  N   LIG    1       26.723 -27.137   5.206  0.00  0.00    -0.316 NA
ATOM     23  H   LIG    1       26.978 -28.104   5.010  0.00  0.00    +0.119 HD
ATOM     24  H   LIG    1       26.356 -26.758   4.329  0.00  0.00    +0.119 HD
ENDBRANCH  15  22
ENDBRANCH  13  15
ENDBRANCH   7  11
BRANCH   1  25
ATOM     25  C   LIG    1       24.390 -33.038  11.228  0.00  0.00    +0.332 C 
ATOM     26  O   LIG    1       23.277 -33.069  11.748  0.00  0.00    -0.249 OA
BRANCH  25  27
ATOM     27  O   LIG    1       25.545 -33.179  11.939  0.00  0.00    -0.423 OA
BRANCH  27  28
ATOM     28  C   LIG    1       25.523 -32.386  13.142  0.00  0.00    +0.370 C 
ATOM     29  C   LIG    1       26.034 -33.259  14.288  0.00  0.00    +0.100 C 
BRANCH  28  30
ATOM     30  O   LIG    1       26.373 -31.238  13.065  0.00  0.00    -0.394 OA
BRANCH  30  31
ATOM     31  C   LIG    1       25.777 -30.084  13.450  0.00  0.00    +0.513 C 
ATOM     32  O   LIG    1       24.577 -29.861  13.490  0.00  0.00    -0.203 OA
BRANCH  31  33
ATOM     33  O   LIG    1       26.762 -29.178  13.691  0.00  0.00    -0.434 OA
BRANCH  33  35
ATOM     34  C   LIG    1       26.842 -27.694  11.808  0.00  0.00    +0.048 C 
ATOM     35  C   LIG    1       27.551 -28.816  12.550  0.00  0.00    +0.232 C 
ENDBRANCH  33  35
ENDBRANCH  31  33
ENDBRANCH  30  31
ENDBRANCH  28  30
ENDBRANCH  27  28
ENDBRANCH  25  27
ENDBRANCH   1  25
TORSDOF 11
ENDMDL
MODEL 6
REMARK VINA RESULT:      -6.4      9.541     12.979
REMARK  Name = *****
REMARK                            x       y       z     vdW  Elec       q    Type
REMARK                         _______ _______ _______ _____ _____    ______ ____
ROOT
ATOM      1  C   LIG    1       25.856 -31.232   8.731  0.00  0.00    +0.201 C 
ATOM      2  C   LIG    1       24.536 -31.414   9.525  0.00  0.00    +0.042 C 
ATOM      3  C   LIG    1       23.608 -30.192   9.378  0.00  0.00    +0.025 C 
ATOM      4  C   LIG    1       23.715 -32.661   9.175  0.00  0.00    +0.025 C 
ATOM      5  S   LIG    1       25.028 -31.524  11.311  0.00  0.00    -0.127 S 
ATOM      6  C   LIG    1       26.738 -30.872  11.038  0.00  0.00    +0.165 C 
ATOM      7  C   LIG    1       27.013 -29.389  11.385  0.00  0.00    +0.190 C 
ATOM      8  C   LIG    1       26.680 -29.155   9.883  0.00  0.00    +0.240 C 
ATOM      9  O   LIG    1       26.311 -28.217   9.192  0.00  0.00    -0.273 OA
ATOM     10  N   LIG    1       26.760 -30.481   9.611  0.00  0.00    -0.271 N 
ENDROOT
BRANCH   7  11
ATOM     11  N   LIG    1       26.121 -28.715  12.375  0.00  0.00    -0.300 N 
ATOM     12  H   LIG    1       25.455 -29.272  12.897  0.00  0.00    +0.150 HD
ATOM     13  C   LIG    1       26.194 -27.356  12.630  0.00  0.00    +0.235 C 
ATOM     14  O   LIG    1       27.006 -26.629  12.054  0.00  0.00    -0.274 OA
BRANCH  13  15
ATOM     15  C   LIG    1       25.172 -26.821  13.686  0.00  0.00    +0.168 C 
BRANCH  15  16
ATOM     16  C   LIG    1       23.741 -27.212  13.349  0.00  0.00    -0.022 A 
ATOM     17  C   LIG    1       23.436 -28.500  12.879  0.00  0.00    +0.006 A 
ATOM     18  C   LIG    1       22.117 -28.854  12.572  0.00  0.00    +0.000 A 
ATOM     19  C   LIG    1       21.090 -27.924  12.725  0.00  0.00    +0.000 A 
ATOM     20  C   LIG    1       21.379 -26.641  13.180  0.00  0.00    +0.000 A 
ATOM     21  C   LIG    1       22.693 -26.287  13.488  0.00  0.00    +0.006 A 
ENDBRANCH  15  16
BRANCH  15  22
ATOM     22  N   LIG    1       25.558 -27.316  15.025  0.00  0.00    -0.316 NA
ATOM     23  H   LIG    1       24.749 -27.274  15.642  0.00  0.00    +0.119 HD
ATOM     24  H   LIG    1       25.788 -28.309  14.926  0.00  0.00    +0.119 HD
ENDBRANCH  15  22
ENDBRANCH  13  15
ENDBRANCH   7  11
BRANCH   1  25
ATOM     25  C   LIG    1       26.625 -32.535   8.460  0.00  0.00    +0.332 C 
ATOM     26  O   LIG    1       27.519 -32.963   9.187  0.00  0.00    -0.249 OA
BRANCH  25  27
ATOM     27  O   LIG    1       26.196 -33.194   7.347  0.00  0.00    -0.423 OA
BRANCH  27  28
ATOM     28  C   LIG    1       26.452 -32.432   6.151  0.00  0.00    +0.370 C 
ATOM     29  C   LIG    1       27.484 -33.195   5.320  0.00  0.00    +0.100 C 
BRANCH  28  30
ATOM     30  O   LIG    1       25.286 -32.265   5.339  0.00  0.00    -0.394 OA
BRANCH  30  31
ATOM     31  C   LIG    1       24.540 -31.181   5.660  0.00  0.00    +0.513 C 
ATOM     32  O   LIG    1       23.362 -31.176   5.982  0.00  0.00    -0.203 OA
BRANCH  31  33
ATOM     33  O   LIG    1       25.316 -30.081   5.466  0.00  0.00    -0.434 OA
BRANCH  33  35
ATOM     34  C   LIG    1       25.603 -27.708   5.265  0.00  0.00    +0.048 C 
ATOM     35  C   LIG    1       24.651 -28.825   5.662  0.00  0.00    +0.232 C 
ENDBRANCH  33  35
ENDBRANCH  31  33
ENDBRANCH  30  31
ENDBRANCH  28  30
ENDBRANCH  27  28
ENDBRANCH  25  27
ENDBRANCH   1  25
TORSDOF 11
ENDMDL
MODEL 7
REMARK VINA RESULT:      -6.4      8.730     12.840
REMARK  Name = *****
REMARK                            x       y       z     vdW  Elec       q    Type
REMARK                         _______ _______ _______ _____ _____    ______ ____
ROOT
ATOM      1  C   LIG    1       25.266 -32.757   8.123  0.00  0.00    +0.201 C 
ATOM      2  C   LIG    1       25.500 -32.597   6.599  0.00  0.00    +0.042 C 
ATOM      3  C   LIG    1       26.974 -32.279   6.278  0.00  0.00    +0.025 C 
ATOM      4  C   LIG    1       25.087 -33.793   5.732  0.00  0.00    +0.025 C 
ATOM      5  S   LIG    1       24.492 -31.127   6.080  0.00  0.00    -0.127 S 
ATOM      6  C   LIG    1       24.225 -30.511   7.804  0.00  0.00    +0.165 C 
ATOM      7  C   LIG    1       25.102 -29.334   8.298  0.00  0.00    +0.190 C 
ATOM      8  C   LIG    1       26.018 -30.468   8.840  0.00  0.00    +0.240 C 
ATOM      9  O   LIG    1       27.191 -30.584   9.161  0.00  0.00    -0.273 OA
ATOM     10  N   LIG    1       25.054 -31.402   8.647  0.00  0.00    -0.271 N 
ENDROOT
BRANCH   7  11
ATOM     11  N   LIG    1       25.706 -28.424   7.279  0.00  0.00    -0.300 N 
ATOM     12  H   LIG    1       26.710 -28.425   7.151  0.00  0.00    +0.150 HD
ATOM     13  C   LIG    1       24.936 -27.598   6.477  0.00  0.00    +0.235 C 
ATOM     14  O   LIG    1       23.706 -27.575   6.559  0.00  0.00    -0.274 OA
BRANCH  13  15
ATOM     15  C   LIG    1       25.739 -26.703   5.478  0.00  0.00    +0.168 C 
BRANCH  15  16
ATOM     16  C   LIG    1       25.566 -25.220   5.769  0.00  0.00    -0.022 A 
ATOM     17  C   LIG    1       26.007 -24.666   6.983  0.00  0.00    +0.006 A 
ATOM     18  C   LIG    1       25.846 -23.300   7.245  0.00  0.00    +0.000 A 
ATOM     19  C   LIG    1       25.236 -22.475   6.302  0.00  0.00    +0.000 A 
ATOM     20  C   LIG    1       24.784 -23.012   5.100  0.00  0.00    +0.000 A 
ATOM     21  C   LIG    1       24.946 -24.373   4.836  0.00  0.00    +0.006 A 
ENDBRANCH  15  16
BRANCH  15  22
ATOM     22  N   LIG    1       27.166 -27.091   5.522  0.00  0.00    -0.316 NA
ATOM     23  H   LIG    1       27.725 -26.354   5.094  0.00  0.00    +0.119 HD
ATOM     24  H   LIG    1       27.442 -27.119   6.507  0.00  0.00    +0.119 HD
ENDBRANCH  15  22
ENDBRANCH  13  15
ENDBRANCH   7  11
BRANCH   1  25
ATOM     25  C   LIG    1       23.967 -33.490   8.498  0.00  0.00    +0.332 C 
ATOM     26  O   LIG    1       23.103 -33.807   7.683  0.00  0.00    -0.249 OA
BRANCH  25  27
ATOM     27  O   LIG    1       23.879 -33.787   9.826  0.00  0.00    -0.423 OA
BRANCH  27  28
ATOM     28  C   LIG    1       22.567 -33.494  10.345  0.00  0.00    +0.370 C 
ATOM     29  C   LIG    1       22.583 -33.776  11.847  0.00  0.00    +0.100 C 
BRANCH  28  30
ATOM     30  O   LIG    1       22.194 -32.124  10.170  0.00  0.00    -0.394 OA
BRANCH  30  31
ATOM     31  C   LIG    1       20.859 -31.905  10.214  0.00  0.00    +0.513 C 
ATOM     32  O   LIG    1       19.981 -32.686   9.884  0.00  0.00    -0.203 OA
BRANCH  31  33
ATOM     33  O   LIG    1       20.670 -30.615  10.602  0.00  0.00    -0.434 OA
BRANCH  33  35
ATOM     34  C   LIG    1       22.067 -29.385  12.115  0.00  0.00    +0.048 C 
ATOM     35  C   LIG    1       20.904 -30.357  11.993  0.00  0.00    +0.232 C 
ENDBRANCH  33  35
ENDBRANCH  31  33
ENDBRANCH  30  31
ENDBRANCH  28  30
ENDBRANCH  27  28
ENDBRANCH  25  27
ENDBRANCH   1  25
TORSDOF 11
ENDMDL
MODEL 8
REMARK VINA RESULT:      -6.3      4.047      6.717
REMARK  Name = *****
REMARK                            x       y       z     vdW  Elec       q    Type
REMARK                         _______ _______ _______ _____ _____    ______ ____
ROOT
ATOM      1  C   LIG    1       25.138 -21.021   6.610  0.00  0.00    +0.201 C 
ATOM      2  C   LIG    1       23.904 -21.695   5.956  0.00  0.00    +0.042 C 
ATOM      3  C   LIG    1       22.936 -22.263   7.013  0.00  0.00    +0.025 C 
ATOM      4  C   LIG    1       23.084 -20.808   5.011  0.00  0.00    +0.025 C 
ATOM      5  S   LIG    1       24.563 -23.130   4.981  0.00  0.00    -0.127 S 
ATOM      6  C   LIG    1       26.223 -23.118   5.797  0.00  0.00    +0.165 C 
ATOM      7  C   LIG    1       26.493 -24.160   6.909  0.00  0.00    +0.190 C 
ATOM      8  C   LIG    1       26.015 -23.021   7.855  0.00  0.00    +0.240 C 
ATOM      9  O   LIG    1       25.561 -22.940   8.986  0.00  0.00    -0.273 OA
ATOM     10  N   LIG    1       26.103 -22.099   6.865  0.00  0.00    -0.271 N 
ENDROOT
BRANCH   7  11
ATOM     11  N   LIG    1       25.682 -25.414   6.917  0.00  0.00    -0.300 N 
ATOM     12  H   LIG    1       24.797 -25.425   7.409  0.00  0.00    +0.150 HD
ATOM     13  C   LIG    1       26.083 -26.558   6.247  0.00  0.00    +0.235 C 
ATOM     14  O   LIG    1       27.133 -26.599   5.602  0.00  0.00    -0.274 OA
BRANCH  13  15
ATOM     15  C   LIG    1       25.116 -27.780   6.379  0.00  0.00    +0.168 C 
BRANCH  15  16
ATOM     16  C   LIG    1       25.279 -28.499   7.709  0.00  0.00    -0.022 A 
ATOM     17  C   LIG    1       24.373 -29.497   8.108  0.00  0.00    +0.006 A 
ATOM     18  C   LIG    1       24.530 -30.156   9.332  0.00  0.00    +0.000 A 
ATOM     19  C   LIG    1       25.588 -29.823  10.175  0.00  0.00    +0.000 A 
ATOM     20  C   LIG    1       26.487 -28.829   9.799  0.00  0.00    +0.000 A 
ATOM     21  C   LIG    1       26.334 -28.172   8.577  0.00  0.00    +0.006 A 
ENDBRANCH  15  16
BRANCH  15  22
ATOM     22  N   LIG    1       23.724 -27.317   6.191  0.00  0.00    -0.316 NA
ATOM     23  H   LIG    1       23.249 -27.316   7.092  0.00  0.00    +0.119 HD
ATOM     24  H   LIG    1       23.768 -26.338   5.894  0.00  0.00    +0.119 HD
ENDBRANCH  15  22
ENDBRANCH  13  15
ENDBRANCH   7  11
BRANCH   1  25
ATOM     25  C   LIG    1       25.910 -20.066   5.685  0.00  0.00    +0.332 C 
ATOM     26  O   LIG    1       25.570 -19.808   4.533  0.00  0.00    -0.249 OA
BRANCH  25  27
ATOM     27  O   LIG    1       26.999 -19.500   6.281  0.00  0.00    -0.423 OA
BRANCH  27  28
ATOM     28  C   LIG    1       28.213 -19.824   5.576  0.00  0.00    +0.370 C 
ATOM     29  C   LIG    1       29.022 -18.536   5.419  0.00  0.00    +0.100 C 
BRANCH  28  30
ATOM     30  O   LIG    1       29.032 -20.761   6.283  0.00  0.00    -0.394 OA
BRANCH  30  31
ATOM     31  C   LIG    1       29.356 -20.372   7.539  0.00  0.00    +0.513 C 
ATOM     32  O   LIG    1       28.580 -20.131   8.451  0.00  0.00    -0.203 OA
BRANCH  31  33
ATOM     33  O   LIG    1       30.705 -20.203   7.579  0.00  0.00    -0.434 OA
BRANCH  33  35
ATOM     34  C   LIG    1       31.689 -18.245   8.554  0.00  0.00    +0.048 C 
ATOM     35  C   LIG    1       31.216 -19.668   8.807  0.00  0.00    +0.232 C 
ENDBRANCH  33  35
ENDBRANCH  31  33
ENDBRANCH  30  31
ENDBRANCH  28  30
ENDBRANCH  27  28
ENDBRANCH  25  27
ENDBRANCH   1  25
TORSDOF 11
ENDMDL
MODEL 9
REMARK VINA RESULT:      -6.1      2.424      8.692
REMARK  Name = *****
REMARK                            x       y       z     vdW  Elec       q    Type
REMARK                         _______ _______ _______ _____ _____    ______ ____
ROOT
ATOM      1  C   LIG    1       24.866 -22.296   7.252  0.00  0.00    +0.201 C 
ATOM      2  C   LIG    1       26.040 -23.295   7.422  0.00  0.00    +0.042 C 
ATOM      3  C   LIG    1       26.419 -23.485   8.904  0.00  0.00    +0.025 C 
ATOM      4  C   LIG    1       25.821 -24.688   6.821  0.00  0.00    +0.025 C 
ATOM      5  S   LIG    1       27.497 -22.517   6.574  0.00  0.00    -0.127 S 
ATOM      6  C   LIG    1       26.735 -20.834   6.477  0.00  0.00    +0.165 C 
ATOM      7  C   LIG    1       27.180 -19.776   7.516  0.00  0.00    +0.190 C 
ATOM      8  C   LIG    1       25.949 -20.292   8.314  0.00  0.00    +0.240 C 
ATOM      9  O   LIG    1       25.584 -20.289   9.480  0.00  0.00    -0.273 OA
ATOM     10  N   LIG    1       25.469 -20.957   7.235  0.00  0.00    -0.271 N 
ENDROOT
BRANCH   7  11
ATOM     11  N   LIG    1       28.512 -19.941   8.170  0.00  0.00    -0.300 N 
ATOM     12  H   LIG    1       28.601 -20.580   8.951  0.00  0.00    +0.150 HD
ATOM     13  C   LIG    1       29.641 -19.274   7.726  0.00  0.00    +0.235 C 
ATOM     14  O   LIG    1       29.607 -18.509   6.759  0.00  0.00    -0.274 OA
BRANCH  13  15
ATOM     15  C   LIG    1       30.946 -19.556   8.542  0.00  0.00    +0.168 C 
BRANCH  15  16
ATOM     16  C   LIG    1       31.346 -18.374   9.410  0.00  0.00    -0.022 A 
ATOM     17  C   LIG    1       30.723 -18.142  10.648  0.00  0.00    +0.006 A 
ATOM     18  C   LIG    1       31.097 -17.053  11.443  0.00  0.00    +0.000 A 
ATOM     19  C   LIG    1       32.092 -16.179  11.008  0.00  0.00    +0.000 A 
ATOM     20  C   LIG    1       32.711 -16.390   9.779  0.00  0.00    +0.000 A 
ATOM     21  C   LIG    1       32.341 -17.477   8.986  0.00  0.00    +0.006 A 
ENDBRANCH  15  16
BRANCH  15  22
ATOM     22  N   LIG    1       30.750 -20.774   9.358  0.00  0.00    -0.316 NA
ATOM     23  H   LIG    1       29.810 -21.133   9.200  0.00  0.00    +0.119 HD
ATOM     24  H   LIG    1       31.390 -21.487   8.996  0.00  0.00    +0.119 HD
ENDBRANCH  15  22
ENDBRANCH  13  15
ENDBRANCH   7  11
BRANCH   1  25
ATOM     25  C   LIG    1       24.146 -22.379   5.896  0.00  0.00    +0.332 C 
ATOM     26  O   LIG    1       24.677 -22.788   4.866  0.00  0.00    -0.249 OA
BRANCH  25  27
ATOM     27  O   LIG    1       22.842 -21.984   5.952  0.00  0.00    -0.423 OA
BRANCH  27  28
ATOM     28  C   LIG    1       22.555 -20.975   4.964  0.00  0.00    +0.370 C 
ATOM     29  C   LIG    1       21.072 -21.079   4.605  0.00  0.00    +0.100 C 
BRANCH  28  30
ATOM     30  O   LIG    1       22.787 -19.647   5.444  0.00  0.00    -0.394 OA
BRANCH  30  31
ATOM     31  C   LIG    1       22.819 -18.706   4.471  0.00  0.00    +0.513 C 
ATOM     32  O   LIG    1       22.188 -17.660   4.447  0.00  0.00    -0.203 OA
BRANCH  31  33
ATOM     33  O   LIG    1       23.608 -19.180   3.470  0.00  0.00    -0.434 OA
BRANCH  33  35
ATOM     34  C   LIG    1       25.610 -17.868   3.313  0.00  0.00    +0.048 C 
ATOM     35  C   LIG    1       25.013 -19.194   3.757  0.00  0.00    +0.232 C 
ENDBRANCH  33  35
ENDBRANCH  31  33
ENDBRANCH  30  31
ENDBRANCH  28  30
ENDBRANCH  27  28
ENDBRANCH  25  27
ENDBRANCH   1  25
TORSDOF 11
ENDMDL
