MODEL 1
REMARK VINA RESULT:       8.4      0.000      0.000
REMARK  Name = *****
REMARK                            x       y       z     vdW  Elec       q    Type
REMARK                         _______ _______ _______ _____ _____    ______ ____
ROOT
ATOM      1  C   LIG    1       23.631 -12.377   5.081  0.00  0.00    +0.011 C 
ATOM      2  C   LIG    1       24.089 -13.824   4.938  0.00  0.00    +0.026 C 
ATOM      3  C   LIG    1       25.622 -14.125   4.938  0.00  0.00    +0.134 C 
ATOM      4  C   LIG    1       25.921 -14.702   3.506  0.00  0.00    +0.010 C 
ATOM      5  C   LIG    1       24.599 -15.414   3.128  0.00  0.00    +0.005 C 
ATOM      6  C   LIG    1       24.400 -16.849   3.698  0.00  0.00    +0.034 C 
ATOM      7  C   LIG    1       25.648 -17.754   3.525  0.00  0.00    +0.153 C 
ATOM      8  C   LIG    1       26.932 -17.049   4.015  0.00  0.00    +0.154 C 
ATOM      9  F   LIG    1       25.813 -17.890   2.155  0.00  0.00    -0.238 F 
ATOM     10  C   LIG    1       25.415 -19.218   4.128  0.00  0.00    +0.044 C 
ATOM     11  C   LIG    1       23.925 -19.584   4.022  0.00  0.00    -0.053 C 
ATOM     12  C   LIG    1       23.243 -20.262   4.962  0.00  0.00    +0.051 C 
ATOM     13  C   LIG    1       23.876 -20.635   6.243  0.00  0.00    +0.179 C 
ATOM     14  C   LIG    1       25.207 -20.059   6.521  0.00  0.00    +0.047 C 
ATOM     15  O   LIG    1       23.297 -21.335   7.061  0.00  0.00    -0.288 OA
ATOM     16  C   LIG    1       23.213 -19.000   2.841  0.00  0.00    +0.032 C 
ATOM     17  C   LIG    1       26.204 -20.267   3.303  0.00  0.00    +0.023 C 
ATOM     18  C   LIG    1       25.886 -19.399   5.571  0.00  0.00    -0.009 C 
ATOM     19  C   LIG    1       23.147 -17.484   3.019  0.00  0.00    +0.011 C 
ATOM     20  C   LIG    1       26.182 -13.552   2.491  0.00  0.00    +0.015 C 
ATOM     21  C   LIG    1       27.115 -15.668   3.386  0.00  0.00    +0.044 C 
ATOM     22  C   LIG    1       23.529 -14.437   3.637  0.00  0.00    +0.011 C 
ENDROOT
BRANCH   3  23
ATOM     23  O   LIG    1       25.789 -15.172   5.905  0.00  0.00    -0.380 OA
ATOM     24  H   LIG    1       26.669 -15.066   6.320  0.00  0.00    +0.211 HD
ENDBRANCH   3  23
BRANCH   3  25
ATOM     25  C   LIG    1       26.586 -12.959   5.306  0.00  0.00    +0.190 C 
ATOM     26  O   LIG    1       26.201 -11.819   5.574  0.00  0.00    -0.292 OA
BRANCH  25  27
ATOM     27  C   LIG    1       28.078 -13.267   5.336  0.00  0.00    +0.233 C 
BRANCH  27  28
ATOM     28  O   LIG    1       28.817 -12.073   5.536  0.00  0.00    -0.387 OA
ATOM     29  H   LIG    1       28.203 -11.337   5.358  0.00  0.00    +0.210 HD
ENDBRANCH  27  28
ENDBRANCH  25  27
ENDBRANCH   3  25
BRANCH   8  30
ATOM     30  O   LIG    1       28.100 -17.812   3.680  0.00  0.00    -0.389 OA
ATOM     31  H   LIG    1       27.786 -18.630   3.251  0.00  0.00    +0.210 HD
ENDBRANCH   8  30
TORSDOF 5
ENDMDL
MODEL 2
REMARK VINA RESULT:      11.1      1.784      6.459
REMARK  Name = *****
REMARK                            x       y       z     vdW  Elec       q    Type
REMARK                         _______ _______ _______ _____ _____    ______ ____
ROOT
ATOM      1  C   LIG    1       25.207 -21.098   3.795  0.00  0.00    +0.011 C 
ATOM      2  C   LIG    1       25.101 -19.602   4.069  0.00  0.00    +0.026 C 
ATOM      3  C   LIG    1       23.921 -19.087   4.954  0.00  0.00    +0.134 C 
ATOM      4  C   LIG    1       23.058 -18.188   3.996  0.00  0.00    +0.010 C 
ATOM      5  C   LIG    1       24.105 -17.614   3.011  0.00  0.00    +0.005 C 
ATOM      6  C   LIG    1       24.907 -16.373   3.503  0.00  0.00    +0.034 C 
ATOM      7  C   LIG    1       24.011 -15.280   4.143  0.00  0.00    +0.153 C 
ATOM      8  C   LIG    1       23.056 -15.877   5.200  0.00  0.00    +0.154 C 
ATOM      9  F   LIG    1       23.187 -14.839   3.119  0.00  0.00    -0.238 F 
ATOM     10  C   LIG    1       24.866 -14.023   4.645  0.00  0.00    +0.044 C 
ATOM     11  C   LIG    1       26.112 -13.864   3.758  0.00  0.00    -0.053 C 
ATOM     12  C   LIG    1       27.325 -13.503   4.214  0.00  0.00    +0.051 C 
ATOM     13  C   LIG    1       27.573 -13.317   5.658  0.00  0.00    +0.179 C 
ATOM     14  C   LIG    1       26.497 -13.739   6.578  0.00  0.00    +0.047 C 
ATOM     15  O   LIG    1       28.642 -12.895   6.073  0.00  0.00    -0.288 OA
ATOM     16  C   LIG    1       25.932 -14.286   2.333  0.00  0.00    +0.032 C 
ATOM     17  C   LIG    1       24.035 -12.722   4.505  0.00  0.00    +0.023 C 
ATOM     18  C   LIG    1       25.286 -14.080   6.114  0.00  0.00    -0.009 C 
ATOM     19  C   LIG    1       25.722 -15.800   2.301  0.00  0.00    +0.011 C 
ATOM     20  C   LIG    1       22.037 -19.051   3.199  0.00  0.00    +0.015 C 
ATOM     21  C   LIG    1       22.249 -17.055   4.655  0.00  0.00    +0.044 C 
ATOM     22  C   LIG    1       25.016 -18.820   2.741  0.00  0.00    +0.011 C 
ENDROOT
BRANCH   3  23
ATOM     23  O   LIG    1       24.543 -18.252   5.942  0.00  0.00    -0.380 OA
ATOM     24  H   LIG    1       25.114 -18.816   6.502  0.00  0.00    +0.211 HD
ENDBRANCH   3  23
BRANCH   3  25
ATOM     25  C   LIG    1       23.053 -20.152   5.688  0.00  0.00    +0.190 C 
ATOM     26  O   LIG    1       22.006 -20.610   5.226  0.00  0.00    -0.292 OA
BRANCH  25  27
ATOM     27  C   LIG    1       23.545 -20.642   7.044  0.00  0.00    +0.233 C 
BRANCH  27  28
ATOM     28  O   LIG    1       24.963 -20.679   7.062  0.00  0.00    -0.387 OA
ATOM     29  H   LIG    1       25.248 -20.745   6.132  0.00  0.00    +0.210 HD
ENDBRANCH  27  28
ENDBRANCH  25  27
ENDBRANCH   3  25
BRANCH   8  30
ATOM     30  O   LIG    1       22.106 -14.899   5.648  0.00  0.00    -0.389 OA
ATOM     31  H   LIG    1       22.441 -14.031   5.356  0.00  0.00    +0.210 HD
ENDBRANCH   8  30
TORSDOF 5
ENDMDL
