MODEL 1
REMARK VINA RESULT:      -9.5      0.000      0.000
REMARK  Name = *****
REMARK                            x       y       z     vdW  Elec       q    Type
REMARK                         _______ _______ _______ _____ _____    ______ ____
ROOT
ATOM      1  C   LIG    1       27.411 -21.580   7.977  0.00  0.00    +0.021 C 
ENDROOT
BRANCH   1   2
ATOM      2  C   LIG    1       28.614 -21.466   7.033  0.00  0.00    +0.116 C 
BRANCH   2   5
ATOM      3  O   LIG    1       30.275 -21.773   9.234  0.00  0.00    -0.275 OA
ATOM      4  C   LIG    1       30.409 -20.760   8.536  0.00  0.00    +0.222 C 
ATOM      5  N   LIG    1       29.579 -20.450   7.468  0.00  0.00    -0.242 N 
ATOM      6  C   LIG    1       29.561 -19.222   6.813  0.00  0.00    +0.222 C 
ATOM      7  O   LIG    1       28.861 -19.001   5.825  0.00  0.00    -0.275 OA
ATOM      8  C   LIG    1       30.511 -18.144   7.298  0.00  0.00    +0.103 C 
ATOM      9  C   LIG    1       31.067 -18.352   8.710  0.00  0.00    -0.013 C 
ATOM     10  C   LIG    1       32.235 -17.365   8.966  0.00  0.00    +0.008 C 
ATOM     11  C   LIG    1       31.643 -16.263   9.832  0.00  0.00    +0.001 C 
ATOM     12  C   LIG    1       30.709 -17.027  10.748  0.00  0.00    +0.001 C 
ATOM     13  C   LIG    1       30.029 -18.024   9.816  0.00  0.00    +0.008 C 
ATOM     14  C   LIG    1       31.549 -19.796   8.792  0.00  0.00    +0.103 C 
ENDBRANCH   2   5
ENDBRANCH   1   2
BRANCH   1  15
ATOM     15  C   LIG    1       26.273 -20.594   7.661  0.00  0.00    +0.017 C 
BRANCH  15  16
ATOM     16  C   LIG    1       24.861 -21.149   7.927  0.00  0.00    +0.084 C 
BRANCH  16  17
ATOM     17  N   LIG    1       23.999 -21.217   6.734  0.00  0.00    -0.299 NA
ATOM     18  C   LIG    1       24.695 -21.558   5.475  0.00  0.00    +0.103 C 
ATOM     19  C   LIG    1       25.175 -23.021   5.335  0.00  0.00    +0.123 C 
ATOM     20  N   LIG    1       24.100 -23.979   5.633  0.00  0.00    -0.297 N 
ATOM     21  C   LIG    1       23.294 -23.690   6.827  0.00  0.00    +0.123 C 
ATOM     22  C   LIG    1       22.897 -22.197   6.918  0.00  0.00    +0.103 C 
BRANCH  20  23
ATOM     23  C   LIG    1       24.568 -25.301   5.590  0.00  0.00    +0.218 A 
ATOM     24  N   LIG    1       25.561 -25.619   4.740  0.00  0.00    -0.223 NA
ATOM     25  C   LIG    1       25.971 -26.900   4.694  0.00  0.00    +0.116 A 
ATOM     26  C   LIG    1       25.454 -27.888   5.488  0.00  0.00    +0.039 A 
ATOM     27  C   LIG    1       24.461 -27.480   6.341  0.00  0.00    +0.116 A 
ATOM     28  N   LIG    1       23.998 -26.214   6.398  0.00  0.00    -0.223 NA
ENDBRANCH  20  23
ENDBRANCH  16  17
ENDBRANCH  15  16
ENDBRANCH   1  15
TORSDOF 6
ENDMDL
MODEL 2
REMARK VINA RESULT:      -9.2      2.211      8.898
REMARK  Name = *****
REMARK                            x       y       z     vdW  Elec       q    Type
REMARK                         _______ _______ _______ _____ _____    ______ ____
ROOT
ATOM      1  C   LIG    1       24.689 -20.567   5.706  0.00  0.00    +0.021 C 
ENDROOT
BRANCH   1   2
ATOM      2  C   LIG    1       24.746 -21.233   7.087  0.00  0.00    +0.116 C 
BRANCH   2   5
ATOM      3  O   LIG    1       26.975 -22.872   7.298  0.00  0.00    -0.275 OA
ATOM      4  C   LIG    1       25.861 -23.405   7.213  0.00  0.00    +0.222 C 
ATOM      5  N   LIG    1       24.685 -22.697   7.010  0.00  0.00    -0.242 N 
ATOM      6  C   LIG    1       23.462 -23.275   6.687  0.00  0.00    +0.222 C 
ATOM      7  O   LIG    1       22.422 -22.625   6.580  0.00  0.00    -0.275 OA
ATOM      8  C   LIG    1       23.404 -24.783   6.543  0.00  0.00    +0.103 C 
ATOM      9  C   LIG    1       24.757 -25.470   6.331  0.00  0.00    -0.013 C 
ATOM     10  C   LIG    1       24.600 -27.003   6.500  0.00  0.00    +0.008 C 
ATOM     11  C   LIG    1       24.587 -27.562   5.085  0.00  0.00    +0.001 C 
ATOM     12  C   LIG    1       25.606 -26.693   4.377  0.00  0.00    +0.001 C 
ATOM     13  C   LIG    1       25.301 -25.289   4.889  0.00  0.00    +0.008 C 
ATOM     14  C   LIG    1       25.714 -24.904   7.374  0.00  0.00    +0.103 C 
ENDBRANCH   2   5
ENDBRANCH   1   2
BRANCH   1  15
ATOM     15  C   LIG    1       26.066 -20.175   5.144  0.00  0.00    +0.017 C 
BRANCH  15  16
ATOM     16  C   LIG    1       27.148 -19.951   6.218  0.00  0.00    +0.084 C 
BRANCH  16  17
ATOM     17  N   LIG    1       28.522 -20.231   5.764  0.00  0.00    -0.299 NA
ATOM     18  C   LIG    1       29.320 -19.039   5.407  0.00  0.00    +0.103 C 
ATOM     19  C   LIG    1       29.783 -18.149   6.583  0.00  0.00    +0.123 C 
ATOM     20  N   LIG    1       30.434 -18.936   7.640  0.00  0.00    -0.297 N 
ATOM     21  C   LIG    1       29.759 -20.186   8.019  0.00  0.00    +0.123 C 
ATOM     22  C   LIG    1       29.285 -20.993   6.787  0.00  0.00    +0.103 C 
BRANCH  20  23
ATOM     23  C   LIG    1       30.770 -18.135   8.741  0.00  0.00    +0.218 A 
ATOM     24  N   LIG    1       31.824 -17.304   8.651  0.00  0.00    -0.223 NA
ATOM     25  C   LIG    1       32.147 -16.568   9.731  0.00  0.00    +0.116 A 
ATOM     26  C   LIG    1       31.440 -16.596  10.903  0.00  0.00    +0.039 A 
ATOM     27  C   LIG    1       30.369 -17.452  10.908  0.00  0.00    +0.116 A 
ATOM     28  N   LIG    1       30.029 -18.231   9.861  0.00  0.00    -0.223 NA
ENDBRANCH  20  23
ENDBRANCH  16  17
ENDBRANCH  15  16
ENDBRANCH   1  15
TORSDOF 6
ENDMDL
MODEL 3
REMARK VINA RESULT:      -9.2      2.716      8.985
REMARK  Name = *****
REMARK                            x       y       z     vdW  Elec       q    Type
REMARK                         _______ _______ _______ _____ _____    ______ ____
ROOT
ATOM      1  C   LIG    1       27.263 -22.554   7.316  0.00  0.00    +0.021 C 
ENDROOT
BRANCH   1   2
ATOM      2  C   LIG    1       25.842 -23.063   7.591  0.00  0.00    +0.116 C 
BRANCH   2   5
ATOM      3  O   LIG    1       24.869 -23.585   5.045  0.00  0.00    -0.275 OA
ATOM      4  C   LIG    1       24.354 -22.664   5.692  0.00  0.00    +0.222 C 
ATOM      5  N   LIG    1       24.814 -22.249   6.934  0.00  0.00    -0.242 N 
ATOM      6  C   LIG    1       24.407 -21.085   7.578  0.00  0.00    +0.222 C 
ATOM      7  O   LIG    1       24.782 -20.778   8.709  0.00  0.00    -0.275 OA
ATOM      8  C   LIG    1       23.391 -20.203   6.877  0.00  0.00    +0.103 C 
ATOM      9  C   LIG    1       23.250 -20.441   5.370  0.00  0.00    -0.013 C 
ATOM     10  C   LIG    1       21.993 -19.708   4.836  0.00  0.00    +0.008 C 
ATOM     11  C   LIG    1       22.522 -18.458   4.148  0.00  0.00    +0.001 C 
ATOM     12  C   LIG    1       23.792 -18.955   3.490  0.00  0.00    +0.001 C 
ATOM     13  C   LIG    1       24.428 -19.840   4.557  0.00  0.00    +0.008 C 
ATOM     14  C   LIG    1       23.128 -21.947   5.165  0.00  0.00    +0.103 C 
ENDBRANCH   2   5
ENDBRANCH   1   2
BRANCH   1  15
ATOM     15  C   LIG    1       27.742 -21.478   8.305  0.00  0.00    +0.017 C 
BRANCH  15  16
ATOM     16  C   LIG    1       28.281 -20.198   7.637  0.00  0.00    +0.084 C 
BRANCH  16  17
ATOM     17  N   LIG    1       29.594 -20.358   6.986  0.00  0.00    -0.299 NA
ATOM     18  C   LIG    1       30.150 -19.128   6.384  0.00  0.00    +0.103 C 
ATOM     19  C   LIG    1       30.659 -18.054   7.372  0.00  0.00    +0.123 C 
ATOM     20  N   LIG    1       31.572 -18.623   8.375  0.00  0.00    -0.297 N 
ATOM     21  C   LIG    1       31.147 -19.892   8.983  0.00  0.00    +0.123 C 
ATOM     22  C   LIG    1       30.606 -20.892   7.934  0.00  0.00    +0.103 C 
BRANCH  20  23
ATOM     23  C   LIG    1       31.958 -17.660   9.319  0.00  0.00    +0.218 A 
ATOM     24  N   LIG    1       32.422 -16.472   8.893  0.00  0.00    -0.223 NA
ATOM     25  C   LIG    1       32.817 -15.576   9.817  0.00  0.00    +0.116 A 
ATOM     26  C   LIG    1       32.739 -15.798  11.166  0.00  0.00    +0.039 A 
ATOM     27  C   LIG    1       32.237 -17.024  11.519  0.00  0.00    +0.116 A 
ATOM     28  N   LIG    1       31.860 -17.963  10.627  0.00  0.00    -0.223 NA
ENDBRANCH  20  23
ENDBRANCH  16  17
ENDBRANCH  15  16
ENDBRANCH   1  15
TORSDOF 6
ENDMDL
MODEL 4
REMARK VINA RESULT:      -8.7      2.174      3.626
REMARK  Name = *****
REMARK                            x       y       z     vdW  Elec       q    Type
REMARK                         _______ _______ _______ _____ _____    ______ ____
ROOT
ATOM      1  C   LIG    1       24.764 -22.011   5.989  0.00  0.00    +0.021 C 
ENDROOT
BRANCH   1   2
ATOM      2  C   LIG    1       25.209 -20.736   6.716  0.00  0.00    +0.116 C 
BRANCH   2   5
ATOM      3  O   LIG    1       26.629 -21.628   8.926  0.00  0.00    -0.275 OA
ATOM      4  C   LIG    1       27.265 -21.193   7.957  0.00  0.00    +0.222 C 
ATOM      5  N   LIG    1       26.667 -20.634   6.836  0.00  0.00    -0.242 N 
ATOM      6  C   LIG    1       27.349 -19.938   5.843  0.00  0.00    +0.222 C 
ATOM      7  O   LIG    1       26.800 -19.513   4.827  0.00  0.00    -0.275 OA
ATOM      8  C   LIG    1       28.849 -19.773   5.993  0.00  0.00    +0.103 C 
ATOM      9  C   LIG    1       29.392 -19.994   7.408  0.00  0.00    -0.013 C 
ATOM     10  C   LIG    1       30.938 -20.095   7.369  0.00  0.00    +0.008 C 
ATOM     11  C   LIG    1       31.439 -18.744   7.858  0.00  0.00    +0.001 C 
ATOM     12  C   LIG    1       30.448 -18.399   8.950  0.00  0.00    +0.001 C 
ATOM     13  C   LIG    1       29.102 -18.798   8.354  0.00  0.00    +0.008 C 
ATOM     14  C   LIG    1       28.776 -21.289   7.926  0.00  0.00    +0.103 C 
ENDBRANCH   2   5
ENDBRANCH   1   2
BRANCH   1  15
ATOM     15  C   LIG    1       23.802 -22.892   6.805  0.00  0.00    +0.017 C 
BRANCH  15  16
ATOM     16  C   LIG    1       23.944 -24.403   6.536  0.00  0.00    +0.084 C 
BRANCH  16  17
ATOM     17  N   LIG    1       25.199 -24.786   5.867  0.00  0.00    -0.299 NA
ATOM     18  C   LIG    1       26.184 -25.477   6.727  0.00  0.00    +0.103 C 
ATOM     19  C   LIG    1       25.839 -26.928   7.130  0.00  0.00    +0.123 C 
ATOM     20  N   LIG    1       25.473 -27.747   5.965  0.00  0.00    -0.297 N 
ATOM     21  C   LIG    1       24.554 -27.122   5.004  0.00  0.00    +0.123 C 
ATOM     22  C   LIG    1       24.940 -25.657   4.691  0.00  0.00    +0.103 C 
BRANCH  20  23
ATOM     23  C   LIG    1       25.076 -29.036   6.351  0.00  0.00    +0.218 A 
ATOM     24  N   LIG    1       24.627 -29.237   7.604  0.00  0.00    -0.223 NA
ATOM     25  C   LIG    1       24.282 -30.488   7.961  0.00  0.00    +0.116 A 
ATOM     26  C   LIG    1       24.333 -31.558   7.108  0.00  0.00    +0.039 A 
ATOM     27  C   LIG    1       24.781 -31.267   5.846  0.00  0.00    +0.116 A 
ATOM     28  N   LIG    1       25.167 -30.035   5.455  0.00  0.00    -0.223 NA
ENDBRANCH  20  23
ENDBRANCH  16  17
ENDBRANCH  15  16
ENDBRANCH   1  15
TORSDOF 6
ENDMDL
MODEL 5
REMARK VINA RESULT:      -8.5      1.744      3.933
REMARK  Name = *****
REMARK                            x       y       z     vdW  Elec       q    Type
REMARK                         _______ _______ _______ _____ _____    ______ ____
ROOT
ATOM      1  C   LIG    1       26.645 -21.031   7.792  0.00  0.00    +0.021 C 
ENDROOT
BRANCH   1   2
ATOM      2  C   LIG    1       27.915 -21.424   7.027  0.00  0.00    +0.116 C 
BRANCH   2   5
ATOM      3  O   LIG    1       29.674 -21.868   9.127  0.00  0.00    -0.275 OA
ATOM      4  C   LIG    1       29.904 -20.925   8.358  0.00  0.00    +0.222 C 
ATOM      5  N   LIG    1       29.051 -20.547   7.331  0.00  0.00    -0.242 N 
ATOM      6  C   LIG    1       29.167 -19.368   6.602  0.00  0.00    +0.222 C 
ATOM      7  O   LIG    1       28.435 -19.093   5.651  0.00  0.00    -0.275 OA
ATOM      8  C   LIG    1       30.302 -18.424   6.953  0.00  0.00    +0.103 C 
ATOM      9  C   LIG    1       30.927 -18.641   8.334  0.00  0.00    -0.013 C 
ATOM     10  C   LIG    1       32.245 -17.833   8.448  0.00  0.00    +0.008 C 
ATOM     11  C   LIG    1       31.893 -16.609   9.280  0.00  0.00    +0.001 C 
ATOM     12  C   LIG    1       30.927 -17.171  10.304  0.00  0.00    +0.001 C 
ATOM     13  C   LIG    1       30.036 -18.100   9.485  0.00  0.00    +0.008 C 
ATOM     14  C   LIG    1       31.192 -20.135   8.476  0.00  0.00    +0.103 C 
ENDBRANCH   2   5
ENDBRANCH   1   2
BRANCH   1  15
ATOM     15  C   LIG    1       25.782 -22.229   8.226  0.00  0.00    +0.017 C 
BRANCH  15  16
ATOM     16  C   LIG    1       25.997 -23.503   7.386  0.00  0.00    +0.084 C 
BRANCH  16  17
ATOM     17  N   LIG    1       24.778 -24.018   6.738  0.00  0.00    -0.299 NA
ATOM     18  C   LIG    1       23.521 -23.358   7.151  0.00  0.00    +0.103 C 
ATOM     19  C   LIG    1       23.306 -21.916   6.636  0.00  0.00    +0.123 C 
ATOM     20  N   LIG    1       23.515 -21.818   5.184  0.00  0.00    -0.297 N 
ATOM     21  C   LIG    1       24.702 -22.507   4.657  0.00  0.00    +0.123 C 
ATOM     22  C   LIG    1       24.871 -23.923   5.258  0.00  0.00    +0.103 C 
BRANCH  20  23
ATOM     23  C   LIG    1       23.406 -20.491   4.741  0.00  0.00    +0.218 A 
ATOM     24  N   LIG    1       24.409 -19.954   4.023  0.00  0.00    -0.223 NA
ATOM     25  C   LIG    1       24.297 -18.671   3.636  0.00  0.00    +0.116 A 
ATOM     26  C   LIG    1       23.202 -17.894   3.905  0.00  0.00    +0.039 A 
ATOM     27  C   LIG    1       22.216 -18.519   4.623  0.00  0.00    +0.116 A 
ATOM     28  N   LIG    1       22.301 -19.793   5.058  0.00  0.00    -0.223 NA
ENDBRANCH  20  23
ENDBRANCH  16  17
ENDBRANCH  15  16
ENDBRANCH   1  15
TORSDOF 6
ENDMDL
MODEL 6
REMARK VINA RESULT:      -8.2      3.490      9.919
REMARK  Name = *****
REMARK                            x       y       z     vdW  Elec       q    Type
REMARK                         _______ _______ _______ _____ _____    ______ ____
ROOT
ATOM      1  C   LIG    1       24.954 -25.809   6.524  0.00  0.00    +0.021 C 
ENDROOT
BRANCH   1   2
ATOM      2  C   LIG    1       25.926 -26.990   6.410  0.00  0.00    +0.116 C 
BRANCH   2   5
ATOM      3  O   LIG    1       26.368 -28.152   8.890  0.00  0.00    -0.275 OA
ATOM      4  C   LIG    1       25.558 -28.693   8.127  0.00  0.00    +0.222 C 
ATOM      5  N   LIG    1       25.322 -28.260   6.829  0.00  0.00    -0.242 N 
ATOM      6  C   LIG    1       24.595 -28.972   5.880  0.00  0.00    +0.222 C 
ATOM      7  O   LIG    1       24.346 -28.531   4.758  0.00  0.00    -0.275 OA
ATOM      8  C   LIG    1       24.021 -30.316   6.286  0.00  0.00    +0.103 C 
ATOM      9  C   LIG    1       24.658 -30.949   7.527  0.00  0.00    -0.013 C 
ATOM     10  C   LIG    1       23.798 -32.147   8.006  0.00  0.00    +0.008 C 
ATOM     11  C   LIG    1       24.540 -33.387   7.529  0.00  0.00    +0.001 C 
ATOM     12  C   LIG    1       25.992 -33.003   7.732  0.00  0.00    +0.001 C 
ATOM     13  C   LIG    1       26.055 -31.561   7.237  0.00  0.00    +0.008 C 
ATOM     14  C   LIG    1       24.724 -29.866   8.597  0.00  0.00    +0.103 C 
ENDBRANCH   2   5
ENDBRANCH   1   2
BRANCH   1  15
ATOM     15  C   LIG    1       25.626 -24.483   6.921  0.00  0.00    +0.017 C 
BRANCH  15  16
ATOM     16  C   LIG    1       25.210 -23.278   6.055  0.00  0.00    +0.084 C 
BRANCH  16  17
ATOM     17  N   LIG    1       24.781 -22.097   6.824  0.00  0.00    -0.299 NA
ATOM     18  C   LIG    1       25.399 -21.958   8.160  0.00  0.00    +0.103 C 
ATOM     19  C   LIG    1       26.891 -21.556   8.183  0.00  0.00    +0.123 C 
ATOM     20  N   LIG    1       27.153 -20.377   7.344  0.00  0.00    -0.297 N 
ATOM     21  C   LIG    1       26.519 -20.379   6.018  0.00  0.00    +0.123 C 
ATOM     22  C   LIG    1       25.043 -20.840   6.075  0.00  0.00    +0.103 C 
BRANCH  20  23
ATOM     23  C   LIG    1       28.521 -20.074   7.301  0.00  0.00    +0.218 A 
ATOM     24  N   LIG    1       29.349 -20.646   8.194  0.00  0.00    -0.223 NA
ATOM     25  C   LIG    1       30.653 -20.316   8.154  0.00  0.00    +0.116 A 
ATOM     26  C   LIG    1       31.186 -19.454   7.233  0.00  0.00    +0.039 A 
ATOM     27  C   LIG    1       30.282 -18.930   6.346  0.00  0.00    +0.116 A 
ATOM     28  N   LIG    1       28.962 -19.208   6.370  0.00  0.00    -0.223 NA
ENDBRANCH  20  23
ENDBRANCH  16  17
ENDBRANCH  15  16
ENDBRANCH   1  15
TORSDOF 6
ENDMDL
MODEL 7
REMARK VINA RESULT:      -8.1      1.350      1.960
REMARK  Name = *****
REMARK                            x       y       z     vdW  Elec       q    Type
REMARK                         _______ _______ _______ _____ _____    ______ ____
ROOT
ATOM      1  C   LIG    1       26.783 -21.350   8.028  0.00  0.00    +0.021 C 
ENDROOT
BRANCH   1   2
ATOM      2  C   LIG    1       28.033 -21.606   7.176  0.00  0.00    +0.116 C 
BRANCH   2   5
ATOM      3  O   LIG    1       29.841 -21.923   9.257  0.00  0.00    -0.275 OA
ATOM      4  C   LIG    1       30.002 -20.972   8.480  0.00  0.00    +0.222 C 
ATOM      5  N   LIG    1       29.114 -20.656   7.461  0.00  0.00    -0.242 N 
ATOM      6  C   LIG    1       29.146 -19.477   6.724  0.00  0.00    +0.222 C 
ATOM      7  O   LIG    1       28.387 -19.255   5.781  0.00  0.00    -0.275 OA
ATOM      8  C   LIG    1       30.223 -18.461   7.055  0.00  0.00    +0.103 C 
ATOM      9  C   LIG    1       30.877 -18.628   8.430  0.00  0.00    -0.013 C 
ATOM     10  C   LIG    1       32.142 -17.738   8.523  0.00  0.00    +0.008 C 
ATOM     11  C   LIG    1       31.723 -16.533   9.353  0.00  0.00    +0.001 C 
ATOM     12  C   LIG    1       30.807 -17.149  10.391  0.00  0.00    +0.001 C 
ATOM     13  C   LIG    1       29.967 -18.138   9.589  0.00  0.00    +0.008 C 
ATOM     14  C   LIG    1       31.238 -20.102   8.577  0.00  0.00    +0.103 C 
ENDBRANCH   2   5
ENDBRANCH   1   2
BRANCH   1  15
ATOM     15  C   LIG    1       25.648 -22.361   7.791  0.00  0.00    +0.017 C 
BRANCH  15  16
ATOM     16  C   LIG    1       25.930 -23.379   6.668  0.00  0.00    +0.084 C 
BRANCH  16  17
ATOM     17  N   LIG    1       24.774 -23.663   5.801  0.00  0.00    -0.299 NA
ATOM     18  C   LIG    1       25.074 -24.471   4.599  0.00  0.00    +0.103 C 
ATOM     19  C   LIG    1       25.387 -25.964   4.841  0.00  0.00    +0.123 C 
ATOM     20  N   LIG    1       24.366 -26.608   5.681  0.00  0.00    -0.297 N 
ATOM     21  C   LIG    1       23.939 -25.851   6.866  0.00  0.00    +0.123 C 
ATOM     22  C   LIG    1       23.693 -24.356   6.549  0.00  0.00    +0.103 C 
BRANCH  20  23
ATOM     23  C   LIG    1       24.705 -27.938   5.968  0.00  0.00    +0.218 A 
ATOM     24  N   LIG    1       24.841 -28.815   4.957  0.00  0.00    -0.223 NA
ATOM     25  C   LIG    1       25.135 -30.093   5.259  0.00  0.00    +0.116 A 
ATOM     26  C   LIG    1       25.334 -30.540   6.537  0.00  0.00    +0.039 A 
ATOM     27  C   LIG    1       25.197 -29.583   7.509  0.00  0.00    +0.116 A 
ATOM     28  N   LIG    1       24.872 -28.299   7.254  0.00  0.00    -0.223 NA
ENDBRANCH  20  23
ENDBRANCH  16  17
ENDBRANCH  15  16
ENDBRANCH   1  15
TORSDOF 6
ENDMDL
MODEL 8
REMARK VINA RESULT:      -8.1      2.246      9.088
REMARK  Name = *****
REMARK                            x       y       z     vdW  Elec       q    Type
REMARK                         _______ _______ _______ _____ _____    ______ ____
ROOT
ATOM      1  C   LIG    1       24.407 -21.126   6.988  0.00  0.00    +0.021 C 
ENDROOT
BRANCH   1   2
ATOM      2  C   LIG    1       24.533 -22.414   7.812  0.00  0.00    +0.116 C 
BRANCH   2   5
ATOM      3  O   LIG    1       22.434 -23.906   6.780  0.00  0.00    -0.275 OA
ATOM      4  C   LIG    1       23.587 -24.213   6.453  0.00  0.00    +0.222 C 
ATOM      5  N   LIG    1       24.720 -23.604   6.975  0.00  0.00    -0.242 N 
ATOM      6  C   LIG    1       26.018 -24.073   6.802  0.00  0.00    +0.222 C 
ATOM      7  O   LIG    1       27.009 -23.472   7.220  0.00  0.00    -0.275 OA
ATOM      8  C   LIG    1       26.215 -25.339   5.990  0.00  0.00    +0.103 C 
ATOM      9  C   LIG    1       24.963 -26.205   5.820  0.00  0.00    -0.013 C 
ATOM     10  C   LIG    1       25.216 -27.289   4.740  0.00  0.00    +0.008 C 
ATOM     11  C   LIG    1       25.468 -28.573   5.515  0.00  0.00    +0.001 C 
ATOM     12  C   LIG    1       24.491 -28.463   6.667  0.00  0.00    +0.001 C 
ATOM     13  C   LIG    1       24.610 -27.006   7.102  0.00  0.00    +0.008 C 
ATOM     14  C   LIG    1       23.830 -25.276   5.401  0.00  0.00    +0.103 C 
ENDBRANCH   2   5
ENDBRANCH   1   2
BRANCH   1  15
ATOM     15  C   LIG    1       25.621 -20.840   6.088  0.00  0.00    +0.017 C 
BRANCH  15  16
ATOM     16  C   LIG    1       26.839 -20.259   6.832  0.00  0.00    +0.084 C 
BRANCH  16  17
ATOM     17  N   LIG    1       28.133 -20.514   6.174  0.00  0.00    -0.299 NA
ATOM     18  C   LIG    1       28.826 -19.311   5.665  0.00  0.00    +0.103 C 
ATOM     19  C   LIG    1       29.439 -18.375   6.730  0.00  0.00    +0.123 C 
ATOM     20  N   LIG    1       30.274 -19.112   7.690  0.00  0.00    -0.297 N 
ATOM     21  C   LIG    1       29.708 -20.368   8.203  0.00  0.00    +0.123 C 
ATOM     22  C   LIG    1       29.071 -21.224   7.081  0.00  0.00    +0.103 C 
BRANCH  20  23
ATOM     23  C   LIG    1       30.753 -18.269   8.704  0.00  0.00    +0.218 A 
ATOM     24  N   LIG    1       31.816 -17.482   8.456  0.00  0.00    -0.223 NA
ATOM     25  C   LIG    1       32.278 -16.706   9.453  0.00  0.00    +0.116 A 
ATOM     26  C   LIG    1       31.704 -16.650  10.695  0.00  0.00    +0.039 A 
ATOM     27  C   LIG    1       30.615 -17.465  10.862  0.00  0.00    +0.116 A 
ATOM     28  N   LIG    1       30.138 -18.283   9.901  0.00  0.00    -0.223 NA
ENDBRANCH  20  23
ENDBRANCH  16  17
ENDBRANCH  15  16
ENDBRANCH   1  15
TORSDOF 6
ENDMDL
MODEL 9
REMARK VINA RESULT:      -7.9      6.021      9.444
REMARK  Name = *****
REMARK                            x       y       z     vdW  Elec       q    Type
REMARK                         _______ _______ _______ _____ _____    ______ ____
ROOT
ATOM      1  C   LIG    1       24.963 -30.395   5.738  0.00  0.00    +0.021 C 
ENDROOT
BRANCH   1   2
ATOM      2  C   LIG    1       24.510 -31.413   6.792  0.00  0.00    +0.116 C 
BRANCH   2   5
ATOM      3  O   LIG    1       23.134 -30.100   8.812  0.00  0.00    -0.275 OA
ATOM      4  C   LIG    1       24.257 -30.552   9.067  0.00  0.00    +0.222 C 
ATOM      5  N   LIG    1       25.079 -31.144   8.117  0.00  0.00    -0.242 N 
ATOM      6  C   LIG    1       26.420 -31.453   8.318  0.00  0.00    +0.222 C 
ATOM      7  O   LIG    1       27.104 -32.041   7.480  0.00  0.00    -0.275 OA
ATOM      8  C   LIG    1       27.033 -31.120   9.665  0.00  0.00    +0.103 C 
ATOM      9  C   LIG    1       26.259 -30.095  10.498  0.00  0.00    -0.013 C 
ATOM     10  C   LIG    1       26.811 -30.068  11.946  0.00  0.00    +0.008 C 
ATOM     11  C   LIG    1       27.681 -28.822  12.019  0.00  0.00    +0.001 C 
ATOM     12  C   LIG    1       26.902 -27.825  11.186  0.00  0.00    +0.001 C 
ATOM     13  C   LIG    1       26.444 -28.642   9.982  0.00  0.00    +0.008 C 
ATOM     14  C   LIG    1       24.795 -30.520  10.483  0.00  0.00    +0.103 C 
ENDBRANCH   2   5
ENDBRANCH   1   2
BRANCH   1  15
ATOM     15  C   LIG    1       24.029 -29.179   5.602  0.00  0.00    +0.017 C 
BRANCH  15  16
ATOM     16  C   LIG    1       24.502 -27.928   6.367  0.00  0.00    +0.084 C 
BRANCH  16  17
ATOM     17  N   LIG    1       25.744 -27.330   5.847  0.00  0.00    -0.299 NA
ATOM     18  C   LIG    1       25.594 -26.565   4.591  0.00  0.00    +0.103 C 
ATOM     19  C   LIG    1       24.868 -25.205   4.703  0.00  0.00    +0.123 C 
ATOM     20  N   LIG    1       25.428 -24.373   5.777  0.00  0.00    -0.297 N 
ATOM     21  C   LIG    1       25.688 -25.057   7.051  0.00  0.00    +0.123 C 
ATOM     22  C   LIG    1       26.372 -26.431   6.849  0.00  0.00    +0.103 C 
BRANCH  20  23
ATOM     23  C   LIG    1       24.706 -23.180   5.929  0.00  0.00    +0.218 A 
ATOM     24  N   LIG    1       24.015 -22.971   7.064  0.00  0.00    -0.223 NA
ATOM     25  C   LIG    1       23.304 -21.834   7.175  0.00  0.00    +0.116 A 
ATOM     26  C   LIG    1       23.273 -20.865   6.208  0.00  0.00    +0.039 A 
ATOM     27  C   LIG    1       24.019 -21.143   5.092  0.00  0.00    +0.116 A 
ATOM     28  N   LIG    1       24.720 -22.283   4.925  0.00  0.00    -0.223 NA
ENDBRANCH  20  23
ENDBRANCH  16  17
ENDBRANCH  15  16
ENDBRANCH   1  15
TORSDOF 6
ENDMDL
