MODEL 1
REMARK VINA RESULT:      13.6      0.000      0.000
REMARK  Name = *****
REMARK                            x       y       z     vdW  Elec       q    Type
REMARK                         _______ _______ _______ _____ _____    ______ ____
ROOT
ATOM      1  C   LIG    1       22.391 -20.331   4.866  0.00  0.00    +0.221 A 
ATOM      2  N   LIG    1       21.199 -20.520   4.296  0.00  0.00    -0.180 NA
ATOM      3  C   LIG    1       20.530 -19.434   3.946  0.00  0.00    +0.216 A 
ATOM      4  N   LIG    1       20.960 -18.189   4.129  0.00  0.00    -0.214 NA
ATOM      5  C   LIG    1       22.139 -18.009   4.768  0.00  0.00    +0.080 A 
ATOM      6  C   LIG    1       22.898 -19.094   5.174  0.00  0.00    +0.095 A 
ENDROOT
BRANCH   5   7
ATOM      7  C   LIG    1       22.553 -16.591   4.948  0.00  0.00    +0.001 A 
ATOM      8  C   LIG    1       23.296 -15.906   3.962  0.00  0.00    +0.010 A 
ATOM      9  C   LIG    1       23.698 -14.571   4.129  0.00  0.00    +0.004 A 
ATOM     10  C   LIG    1       23.369 -13.872   5.295  0.00  0.00    -0.045 A 
ATOM     11  C   LIG    1       22.639 -14.532   6.283  0.00  0.00    +0.004 A 
ATOM     12  C   LIG    1       22.236 -15.861   6.106  0.00  0.00    +0.010 A 
BRANCH  10  13
ATOM     13  C   LIG    1       23.804 -12.438   5.503  0.00  0.00    +0.065 C 
BRANCH  13  14
ATOM     14  CA  LIG    1       25.114 -12.097   4.776  0.00  0.00    +0.165 C 
BRANCH  14  15
ATOM     15  N   LIG    1       24.943 -12.182   3.303  0.00  0.00    -0.318 NA
ATOM     16  H1  LIG    1       25.061 -11.253   2.895  0.00  0.00    +0.119 HD
ATOM     17  H2  LIG    1       25.722 -12.728   2.922  0.00  0.00    +0.119 HD
ENDBRANCH  14  15
BRANCH  14  18
ATOM     18  C   LIG    1       26.216 -13.062   5.219  0.00  0.00    +0.322 C 
ATOM     19  O   LIG    1       26.344 -13.465   6.385  0.00  0.00    -0.249 OA
BRANCH  18  20
ATOM     20  OXT LIG    1       27.038 -13.468   4.233  0.00  0.00    -0.479 OA
ATOM     21  HXT LIG    1       27.987 -13.306   4.414  0.00  0.00    +0.295 HD
ENDBRANCH  18  20
ENDBRANCH  14  18
ENDBRANCH  13  14
ENDBRANCH  10  13
ENDBRANCH   5   7
BRANCH   3  22
ATOM     22  N   LIG    1       19.353 -19.624   3.254  0.00  0.00    -0.327 N 
ATOM     23  H   LIG    1       18.669 -20.037   3.875  0.00  0.00    +0.145 HD
ATOM     24  H   LIG    1       19.552 -20.126   2.400  0.00  0.00    +0.145 HD
ENDBRANCH   3  22
BRANCH   1  25
ATOM     25  O   LIG    1       23.169 -21.444   5.133  0.00  0.00    -0.459 OA
BRANCH  25  26
ATOM     26  C   LIG    1       24.401 -21.453   4.334  0.00  0.00    +0.311 C 
BRANCH  26  28
ATOM     27  C   LIG    1       26.180 -19.573   4.753  0.00  0.00    +0.074 A 
ATOM     28  C   LIG    1       25.588 -20.822   5.095  0.00  0.00    +0.027 A 
ATOM     29  C   LIG    1       26.212 -21.572   6.128  0.00  0.00    +0.011 A 
ATOM     30  C   LIG    1       27.404 -21.155   6.735  0.00  0.00    +0.020 A 
ATOM     31  C   LIG    1       27.983 -19.957   6.356  0.00  0.00    +0.043 A 
ATOM     32 CL   LIG    1       29.474 -19.456   7.054  0.00  0.00    -0.084 Cl
ATOM     33  C   LIG    1       27.372 -19.161   5.395  0.00  0.00    +0.048 A 
BRANCH  27  37
ATOM     34  C   LIG    1       25.745 -15.596   1.976  0.00  0.00    +0.067 C 
ATOM     35  C   LIG    1       25.461 -16.943   2.528  0.00  0.00    +0.060 A 
ATOM     36  N   LIG    1       26.247 -17.499   3.460  0.00  0.00    -0.172 NA
ATOM     37  N   LIG    1       25.674 -18.693   3.744  0.00  0.00    -0.239 N 
ATOM     38  C   LIG    1       24.558 -18.900   2.956  0.00  0.00    +0.115 A 
ATOM     39  C   LIG    1       24.407 -17.797   2.157  0.00  0.00    +0.044 A 
ENDBRANCH  27  37
ENDBRANCH  26  28
BRANCH  26  40
ATOM     40  C   LIG    1       24.083 -20.925   2.915  0.00  0.00    +0.431 C 
ATOM     41  F   LIG    1       25.143 -21.023   2.072  0.00  0.00    -0.167 F 
ATOM     42  F   LIG    1       23.769 -19.601   2.966  0.00  0.00    -0.167 F 
ATOM     43  F   LIG    1       23.051 -21.558   2.312  0.00  0.00    -0.167 F 
ENDBRANCH  26  40
ENDBRANCH  25  26
ENDBRANCH   1  25
TORSDOF 12
ENDMDL
