MODEL 1
REMARK VINA RESULT:      -3.3      0.000      0.000
REMARK  Name = *****
REMARK                            x       y       z     vdW  Elec       q    Type
REMARK                         _______ _______ _______ _____ _____    ______ ____
ROOT
ATOM      1  C   LIG    1       27.210 -14.137   4.185  0.00  0.00    +0.165 C 
ENDROOT
BRANCH   1   2
ATOM      2  O   LIG    1       27.877 -15.400   4.009  0.00  0.00    -0.387 OA
ATOM      3  H   LIG    1       28.829 -15.182   4.068  0.00  0.00    +0.210 HD
ENDBRANCH   1   2
BRANCH   1   4
ATOM      4  C   LIG    1       26.198 -13.944   3.058  0.00  0.00    +0.189 C 
BRANCH   4   5
ATOM      5  O   LIG    1       26.866 -14.159   1.812  0.00  0.00    -0.392 OA
ATOM      6  H   LIG    1       27.025 -15.117   1.738  0.00  0.00    +0.209 HD
ENDBRANCH   4   5
ENDBRANCH   1   4
BRANCH   1   7
ATOM      7  C   LIG    1       28.266 -13.036   4.201  0.00  0.00    +0.189 C 
BRANCH   7   8
ATOM      8  O   LIG    1       29.296 -13.350   3.264  0.00  0.00    -0.392 OA
ATOM      9  H   LIG    1       29.487 -14.299   3.410  0.00  0.00    +0.209 HD
ENDBRANCH   7   8
ENDBRANCH   1   7
TORSDOF 5
ENDMDL
MODEL 2
REMARK VINA RESULT:      -3.2      1.284      2.966
REMARK  Name = *****
REMARK                            x       y       z     vdW  Elec       q    Type
REMARK                         _______ _______ _______ _____ _____    ______ ____
ROOT
ATOM      1  C   LIG    1       27.970 -13.218   3.649  0.00  0.00    +0.165 C 
ENDROOT
BRANCH   1   2
ATOM      2  O   LIG    1       29.356 -13.348   3.285  0.00  0.00    -0.387 OA
ATOM      3  H   LIG    1       29.825 -13.436   4.139  0.00  0.00    +0.210 HD
ENDBRANCH   1   2
BRANCH   1   4
ATOM      4  C   LIG    1       27.870 -12.970   5.152  0.00  0.00    +0.189 C 
BRANCH   4   5
ATOM      5  O   LIG    1       28.867 -12.013   5.518  0.00  0.00    -0.392 OA
ATOM      6  H   LIG    1       28.414 -11.311   6.019  0.00  0.00    +0.209 HD
ENDBRANCH   4   5
ENDBRANCH   1   4
BRANCH   1   7
ATOM      7  C   LIG    1       27.242 -14.491   3.228  0.00  0.00    +0.189 C 
BRANCH   7   8
ATOM      8  O   LIG    1       26.669 -14.306   1.934  0.00  0.00    -0.392 OA
ATOM      9  H   LIG    1       27.357 -13.834   1.420  0.00  0.00    +0.209 HD
ENDBRANCH   7   8
ENDBRANCH   1   7
TORSDOF 5
ENDMDL
MODEL 3
REMARK VINA RESULT:      -3.2      1.232      2.551
REMARK  Name = *****
REMARK                            x       y       z     vdW  Elec       q    Type
REMARK                         _______ _______ _______ _____ _____    ______ ____
ROOT
ATOM      1  C   LIG    1       27.348 -13.625   4.305  0.00  0.00    +0.165 C 
ENDROOT
BRANCH   1   2
ATOM      2  O   LIG    1       26.629 -13.277   5.502  0.00  0.00    -0.387 OA
ATOM      3  H   LIG    1       25.991 -14.009   5.624  0.00  0.00    +0.210 HD
ENDBRANCH   1   2
BRANCH   1   4
ATOM      4  C   LIG    1       28.575 -12.725   4.178  0.00  0.00    +0.189 C 
BRANCH   4   5
ATOM      5  O   LIG    1       29.474 -13.320   3.240  0.00  0.00    -0.392 OA
ATOM      6  H   LIG    1       29.856 -14.104   3.673  0.00  0.00    +0.209 HD
ENDBRANCH   4   5
ENDBRANCH   1   4
BRANCH   1   7
ATOM      7  C   LIG    1       26.403 -13.477   3.117  0.00  0.00    +0.189 C 
BRANCH   7   8
ATOM      8  O   LIG    1       26.966 -14.123   1.976  0.00  0.00    -0.392 OA
ATOM      9  H   LIG    1       26.209 -14.559   1.535  0.00  0.00    +0.209 HD
ENDBRANCH   7   8
ENDBRANCH   1   7
TORSDOF 5
ENDMDL
MODEL 4
REMARK VINA RESULT:      -3.2      1.531      2.093
REMARK  Name = *****
REMARK                            x       y       z     vdW  Elec       q    Type
REMARK                         _______ _______ _______ _____ _____    ______ ____
ROOT
ATOM      1  C   LIG    1       27.716 -14.203   4.066  0.00  0.00    +0.165 C 
ENDROOT
BRANCH   1   2
ATOM      2  O   LIG    1       28.466 -13.265   3.275  0.00  0.00    -0.387 OA
ATOM      3  H   LIG    1       27.930 -13.147   2.464  0.00  0.00    +0.210 HD
ENDBRANCH   1   2
BRANCH   1   4
ATOM      4  C   LIG    1       26.796 -15.007   3.150  0.00  0.00    +0.189 C 
BRANCH   4   5
ATOM      5  O   LIG    1       26.589 -14.256   1.950  0.00  0.00    -0.392 OA
ATOM      6  H   LIG    1       25.738 -14.547   1.578  0.00  0.00    +0.209 HD
ENDBRANCH   4   5
ENDBRANCH   1   4
BRANCH   1   7
ATOM      7  C   LIG    1       26.937 -13.425   5.122  0.00  0.00    +0.189 C 
BRANCH   7   8
ATOM      8  O   LIG    1       25.559 -13.373   4.755  0.00  0.00    -0.392 OA
ATOM      9  H   LIG    1       25.454 -14.068   4.073  0.00  0.00    +0.209 HD
ENDBRANCH   7   8
ENDBRANCH   1   7
TORSDOF 5
ENDMDL
MODEL 5
REMARK VINA RESULT:      -3.1      1.517      1.978
REMARK  Name = *****
REMARK                            x       y       z     vdW  Elec       q    Type
REMARK                         _______ _______ _______ _____ _____    ______ ____
ROOT
ATOM      1  C   LIG    1       26.781 -14.674   3.166  0.00  0.00    +0.165 C 
ENDROOT
BRANCH   1   2
ATOM      2  O   LIG    1       26.807 -14.174   1.817  0.00  0.00    -0.387 OA
ATOM      3  H   LIG    1       25.960 -14.475   1.430  0.00  0.00    +0.210 HD
ENDBRANCH   1   2
BRANCH   1   4
ATOM      4  C   LIG    1       25.444 -14.310   3.808  0.00  0.00    +0.189 C 
BRANCH   4   5
ATOM      5  O   LIG    1       25.673 -13.273   4.766  0.00  0.00    -0.392 OA
ATOM      6  H   LIG    1       25.533 -13.666   5.646  0.00  0.00    +0.209 HD
ENDBRANCH   4   5
ENDBRANCH   1   4
BRANCH   1   7
ATOM      7  C   LIG    1       27.962 -14.074   3.922  0.00  0.00    +0.189 C 
BRANCH   7   8
ATOM      8  O   LIG    1       28.379 -12.871   3.278  0.00  0.00    -0.392 OA
ATOM      9  H   LIG    1       27.549 -12.448   2.974  0.00  0.00    +0.209 HD
ENDBRANCH   7   8
ENDBRANCH   1   7
TORSDOF 5
ENDMDL
MODEL 6
REMARK VINA RESULT:      -3.1      1.428      2.704
REMARK  Name = *****
REMARK                            x       y       z     vdW  Elec       q    Type
REMARK                         _______ _______ _______ _____ _____    ______ ____
ROOT
ATOM      1  C   LIG    1       26.763 -13.378   2.898  0.00  0.00    +0.165 C 
ENDROOT
BRANCH   1   2
ATOM      2  O   LIG    1       26.586 -14.306   1.813  0.00  0.00    -0.387 OA
ATOM      3  H   LIG    1       25.683 -14.661   1.942  0.00  0.00    +0.210 HD
ENDBRANCH   1   2
BRANCH   1   4
ATOM      4  C   LIG    1       28.030 -13.746   3.668  0.00  0.00    +0.189 C 
BRANCH   4   5
ATOM      5  O   LIG    1       27.945 -15.124   4.041  0.00  0.00    -0.392 OA
ATOM      6  H   LIG    1       28.204 -15.645   3.260  0.00  0.00    +0.209 HD
ENDBRANCH   4   5
ENDBRANCH   1   4
BRANCH   1   7
ATOM      7  C   LIG    1       25.521 -13.430   3.781  0.00  0.00    +0.189 C 
BRANCH   7   8
ATOM      8  O   LIG    1       25.909 -13.371   5.153  0.00  0.00    -0.392 OA
ATOM      9  H   LIG    1       25.273 -13.952   5.619  0.00  0.00    +0.209 HD
ENDBRANCH   7   8
ENDBRANCH   1   7
TORSDOF 5
ENDMDL
MODEL 7
REMARK VINA RESULT:      -3.0      2.101      3.131
REMARK  Name = *****
REMARK                            x       y       z     vdW  Elec       q    Type
REMARK                         _______ _______ _______ _____ _____    ______ ____
ROOT
ATOM      1  C   LIG    1       25.634 -13.755   3.984  0.00  0.00    +0.165 C 
ENDROOT
BRANCH   1   2
ATOM      2  O   LIG    1       26.232 -13.359   5.231  0.00  0.00    -0.387 OA
ATOM      3  H   LIG    1       25.566 -13.598   5.907  0.00  0.00    +0.210 HD
ENDBRANCH   1   2
BRANCH   1   4
ATOM      4  C   LIG    1       26.527 -13.297   2.834  0.00  0.00    +0.189 C 
BRANCH   4   5
ATOM      5  O   LIG    1       26.546 -14.327   1.842  0.00  0.00    -0.392 OA
ATOM      6  H   LIG    1       26.062 -15.086   2.214  0.00  0.00    +0.209 HD
ENDBRANCH   4   5
ENDBRANCH   1   4
BRANCH   1   7
ATOM      7  C   LIG    1       24.239 -13.142   3.906  0.00  0.00    +0.189 C 
BRANCH   7   8
ATOM      8  O   LIG    1       23.801 -13.125   2.547  0.00  0.00    -0.392 OA
ATOM      9  H   LIG    1       22.854 -12.880   2.592  0.00  0.00    +0.209 HD
ENDBRANCH   7   8
ENDBRANCH   1   7
TORSDOF 5
ENDMDL
MODEL 8
REMARK VINA RESULT:      -3.0      2.401      3.573
REMARK  Name = *****
REMARK                            x       y       z     vdW  Elec       q    Type
REMARK                         _______ _______ _______ _____ _____    ______ ____
ROOT
ATOM      1  C   LIG    1       24.404 -13.259   2.711  0.00  0.00    +0.165 C 
ENDROOT
BRANCH   1   2
ATOM      2  O   LIG    1       23.737 -11.985   2.658  0.00  0.00    -0.387 OA
ATOM      3  H   LIG    1       24.313 -11.387   3.177  0.00  0.00    +0.210 HD
ENDBRANCH   1   2
BRANCH   1   4
ATOM      4  C   LIG    1       24.168 -13.890   4.081  0.00  0.00    +0.189 C 
BRANCH   4   5
ATOM      5  O   LIG    1       25.433 -14.038   4.732  0.00  0.00    -0.392 OA
ATOM      6  H   LIG    1       25.258 -14.439   5.602  0.00  0.00    +0.209 HD
ENDBRANCH   4   5
ENDBRANCH   1   4
BRANCH   1   7
ATOM      7  C   LIG    1       25.887 -13.035   2.431  0.00  0.00    +0.189 C 
BRANCH   7   8
ATOM      8  O   LIG    1       26.464 -14.241   1.929  0.00  0.00    -0.392 OA
ATOM      9  H   LIG    1       25.796 -14.933   2.111  0.00  0.00    +0.209 HD
ENDBRANCH   7   8
ENDBRANCH   1   7
TORSDOF 5
ENDMDL
MODEL 9
REMARK VINA RESULT:      -3.0      2.327      3.533
REMARK  Name = *****
REMARK                            x       y       z     vdW  Elec       q    Type
REMARK                         _______ _______ _______ _____ _____    ______ ____
ROOT
ATOM      1  C   LIG    1       25.900 -13.300   2.718  0.00  0.00    +0.165 C 
ENDROOT
BRANCH   1   2
ATOM      2  O   LIG    1       26.776 -14.084   1.888  0.00  0.00    -0.387 OA
ATOM      3  H   LIG    1       27.637 -14.059   2.353  0.00  0.00    +0.210 HD
ENDBRANCH   1   2
BRANCH   1   4
ATOM      4  C   LIG    1       25.559 -14.095   3.976  0.00  0.00    +0.189 C 
BRANCH   4   5
ATOM      5  O   LIG    1       24.193 -14.508   3.890  0.00  0.00    -0.392 OA
ATOM      6  H   LIG    1       23.988 -14.979   4.717  0.00  0.00    +0.209 HD
ENDBRANCH   4   5
ENDBRANCH   1   4
BRANCH   1   7
ATOM      7  C   LIG    1       24.656 -12.952   1.905  0.00  0.00    +0.189 C 
BRANCH   7   8
ATOM      8  O   LIG    1       23.865 -12.009   2.627  0.00  0.00    -0.392 OA
ATOM      9  H   LIG    1       24.414 -11.758   3.398  0.00  0.00    +0.209 HD
ENDBRANCH   7   8
ENDBRANCH   1   7
TORSDOF 5
ENDMDL
