MODEL 1
REMARK VINA RESULT:      -7.5      0.000      0.000
REMARK  Name = *****
REMARK                            x       y       z     vdW  Elec       q    Type
REMARK                         _______ _______ _______ _____ _____    ______ ____
ROOT
ATOM      1  C   LIG    1       26.440 -21.345   7.084  0.00  0.00    +0.141 C 
ATOM      2  C   LIG    1       27.690 -22.175   7.451  0.00  0.00    +0.053 C 
ATOM      3  C   LIG    1       29.036 -21.743   6.851  0.00  0.00    +0.087 C 
ATOM      4  N   LIG    1       29.390 -20.319   6.914  0.00  0.00    -0.302 NA
ATOM      5  C   LIG    1       28.338 -19.598   6.260  0.00  0.00    +0.087 C 
ATOM      6  C   LIG    1       26.894 -19.881   6.930  0.00  0.00    +0.053 C 
ENDROOT
BRANCH   1   8
ATOM      7  C   LIG    1       24.950 -21.480   4.705  0.00  0.00    +0.221 C 
ATOM      8  N   LIG    1       25.568 -22.012   5.874  0.00  0.00    -0.255 N 
ATOM      9  O   LIG    1       24.365 -22.246   3.913  0.00  0.00    -0.275 OA
BRANCH   8  10
ATOM     10  C   LIG    1       25.257 -23.467   6.111  0.00  0.00    +0.037 A 
ATOM     11  C   LIG    1       26.267 -24.450   6.204  0.00  0.00    +0.023 A 
ATOM     12  C   LIG    1       25.960 -25.827   6.351  0.00  0.00    +0.002 A 
ATOM     13  C   LIG    1       24.639 -26.251   6.459  0.00  0.00    +0.000 A 
ATOM     14  C   LIG    1       23.631 -25.293   6.452  0.00  0.00    +0.002 A 
ATOM     15  C   LIG    1       23.936 -23.921   6.284  0.00  0.00    +0.023 A 
ENDBRANCH   8  10
BRANCH   7  17
ATOM     16  C   LIG    1       23.628 -19.332   3.931  0.00  0.00    +0.013 C 
ATOM     17  C   LIG    1       24.905 -19.982   4.202  0.00  0.00    +0.093 C 
ENDBRANCH   7  17
ENDBRANCH   1   8
BRANCH   1  18
ATOM     18  C   LIG    1       25.431 -21.176   8.254  0.00  0.00    +0.331 C 
ATOM     19  O   LIG    1       25.472 -21.805   9.337  0.00  0.00    -0.248 OA
BRANCH  18  20
ATOM     20  O   LIG    1       24.485 -20.265   7.958  0.00  0.00    -0.466 OA
ATOM     21  C   LIG    1       23.225 -20.850   7.672  0.00  0.00    +0.280 C 
ENDBRANCH  18  20
ENDBRANCH   1  18
BRANCH   4  22
ATOM     22  C   LIG    1       29.702 -19.713   8.199  0.00  0.00    +0.095 C 
BRANCH  22  23
ATOM     23  C   LIG    1       30.312 -18.309   8.043  0.00  0.00    +0.136 C 
BRANCH  23  24
ATOM     24  C   LIG    1       31.656 -18.247   8.662  0.00  0.00    +0.308 C 
ATOM     25  O   LIG    1       32.179 -19.230   9.326  0.00  0.00    -0.251 OA
BRANCH  24  26
ATOM     26  O   LIG    1       32.195 -17.032   8.577  0.00  0.00    -0.468 OA
ATOM     27  C   LIG    1       32.694 -16.467   9.791  0.00  0.00    +0.280 C 
ENDBRANCH  24  26
ENDBRANCH  23  24
ENDBRANCH  22  23
ENDBRANCH   4  22
TORSDOF 9
ENDMDL
MODEL 2
REMARK VINA RESULT:      -7.5      0.887      3.246
REMARK  Name = *****
REMARK                            x       y       z     vdW  Elec       q    Type
REMARK                         _______ _______ _______ _____ _____    ______ ____
ROOT
ATOM      1  C   LIG    1       26.480 -21.334   7.248  0.00  0.00    +0.141 C 
ATOM      2  C   LIG    1       27.755 -22.170   7.500  0.00  0.00    +0.053 C 
ATOM      3  C   LIG    1       29.049 -21.728   6.803  0.00  0.00    +0.087 C 
ATOM      4  N   LIG    1       29.409 -20.305   6.861  0.00  0.00    -0.302 NA
ATOM      5  C   LIG    1       28.310 -19.573   6.306  0.00  0.00    +0.087 C 
ATOM      6  C   LIG    1       26.923 -19.867   7.084  0.00  0.00    +0.053 C 
ENDROOT
BRANCH   1   8
ATOM      7  C   LIG    1       25.244 -23.317   5.686  0.00  0.00    +0.221 C 
ATOM      8  N   LIG    1       25.514 -21.980   6.100  0.00  0.00    -0.255 N 
ATOM      9  O   LIG    1       24.409 -23.527   4.784  0.00  0.00    -0.275 OA
BRANCH   8  10
ATOM     10  C   LIG    1       24.869 -20.936   5.225  0.00  0.00    +0.037 A 
ATOM     11  C   LIG    1       25.564 -20.297   4.175  0.00  0.00    +0.023 A 
ATOM     12  C   LIG    1       24.971 -19.263   3.407  0.00  0.00    +0.002 A 
ATOM     13  C   LIG    1       23.655 -18.875   3.635  0.00  0.00    +0.000 A 
ATOM     14  C   LIG    1       22.924 -19.545   4.611  0.00  0.00    +0.002 A 
ATOM     15  C   LIG    1       23.522 -20.564   5.391  0.00  0.00    +0.023 A 
ENDBRANCH   8  10
BRANCH   7  17
ATOM     16  C   LIG    1       25.744 -25.899   5.466  0.00  0.00    +0.013 C 
ATOM     17  C   LIG    1       25.852 -24.667   6.240  0.00  0.00    +0.093 C 
ENDBRANCH   7  17
ENDBRANCH   1   8
BRANCH   1  18
ATOM     18  C   LIG    1       25.568 -21.185   8.498  0.00  0.00    +0.331 C 
ATOM     19  O   LIG    1       25.798 -20.432   9.472  0.00  0.00    -0.248 OA
BRANCH  18  20
ATOM     20  O   LIG    1       24.485 -21.981   8.412  0.00  0.00    -0.466 OA
ATOM     21  C   LIG    1       23.273 -21.254   8.287  0.00  0.00    +0.280 C 
ENDBRANCH  18  20
ENDBRANCH   1  18
BRANCH   4  22
ATOM     22  C   LIG    1       29.823 -19.721   8.128  0.00  0.00    +0.095 C 
BRANCH  22  23
ATOM     23  C   LIG    1       30.431 -18.319   7.947  0.00  0.00    +0.136 C 
BRANCH  23  24
ATOM     24  C   LIG    1       31.740 -18.220   8.632  0.00  0.00    +0.308 C 
ATOM     25  O   LIG    1       32.223 -19.162   9.381  0.00  0.00    -0.251 OA
BRANCH  24  26
ATOM     26  O   LIG    1       32.287 -17.013   8.504  0.00  0.00    -0.468 OA
ATOM     27  C   LIG    1       32.327 -16.200   9.679  0.00  0.00    +0.280 C 
ENDBRANCH  24  26
ENDBRANCH  23  24
ENDBRANCH  22  23
ENDBRANCH   4  22
TORSDOF 9
ENDMDL
MODEL 3
REMARK VINA RESULT:      -7.0      2.727      7.300
REMARK  Name = *****
REMARK                            x       y       z     vdW  Elec       q    Type
REMARK                         _______ _______ _______ _____ _____    ______ ____
ROOT
ATOM      1  C   LIG    1       25.142 -22.652   6.615  0.00  0.00    +0.141 C 
ATOM      2  C   LIG    1       24.163 -23.367   5.658  0.00  0.00    +0.053 C 
ATOM      3  C   LIG    1       24.692 -24.564   4.856  0.00  0.00    +0.087 C 
ATOM      4  N   LIG    1       25.466 -25.584   5.576  0.00  0.00    -0.302 NA
ATOM      5  C   LIG    1       26.571 -24.914   6.192  0.00  0.00    +0.087 C 
ATOM      6  C   LIG    1       26.093 -23.725   7.179  0.00  0.00    +0.053 C 
ENDROOT
BRANCH   1   8
ATOM      7  C   LIG    1       27.090 -20.704   6.052  0.00  0.00    +0.221 C 
ATOM      8  N   LIG    1       25.801 -21.308   5.961  0.00  0.00    -0.255 N 
ATOM      9  O   LIG    1       27.336 -19.672   5.397  0.00  0.00    -0.275 OA
BRANCH   8  10
ATOM     10  C   LIG    1       24.799 -20.476   5.201  0.00  0.00    +0.037 A 
ATOM     11  C   LIG    1       25.013 -20.070   3.866  0.00  0.00    +0.023 A 
ATOM     12  C   LIG    1       24.099 -19.225   3.186  0.00  0.00    +0.002 A 
ATOM     13  C   LIG    1       22.926 -18.805   3.804  0.00  0.00    +0.000 A 
ATOM     14  C   LIG    1       22.655 -19.258   5.092  0.00  0.00    +0.002 A 
ATOM     15  C   LIG    1       23.577 -20.085   5.778  0.00  0.00    +0.023 A 
ENDBRANCH   8  10
BRANCH   7  17
ATOM     16  C   LIG    1       29.283 -20.202   7.430  0.00  0.00    +0.013 C 
ATOM     17  C   LIG    1       28.348 -21.179   6.884  0.00  0.00    +0.093 C 
ENDBRANCH   7  17
ENDBRANCH   1   8
BRANCH   1  18
ATOM     18  C   LIG    1       24.489 -22.169   7.940  0.00  0.00    +0.331 C 
ATOM     19  O   LIG    1       23.263 -21.978   8.110  0.00  0.00    -0.248 OA
BRANCH  18  20
ATOM     20  O   LIG    1       25.414 -21.969   8.898  0.00  0.00    -0.466 OA
ATOM     21  C   LIG    1       25.704 -20.596   9.107  0.00  0.00    +0.280 C 
ENDBRANCH  18  20
ENDBRANCH   1  18
BRANCH   4  22
ATOM     22  C   LIG    1       24.795 -26.450   6.534  0.00  0.00    +0.095 C 
BRANCH  22  23
ATOM     23  C   LIG    1       24.300 -27.755   5.887  0.00  0.00    +0.136 C 
BRANCH  23  24
ATOM     24  C   LIG    1       24.497 -28.904   6.801  0.00  0.00    +0.308 C 
ATOM     25  O   LIG    1       23.755 -29.967   6.776  0.00  0.00    -0.251 OA
BRANCH  24  26
ATOM     26  O   LIG    1       25.422 -28.659   7.726  0.00  0.00    -0.468 OA
ATOM     27  C   LIG    1       25.637 -29.680   8.703  0.00  0.00    +0.280 C 
ENDBRANCH  24  26
ENDBRANCH  23  24
ENDBRANCH  22  23
ENDBRANCH   4  22
TORSDOF 9
ENDMDL
MODEL 4
REMARK VINA RESULT:      -6.8      1.647      2.542
REMARK  Name = *****
REMARK                            x       y       z     vdW  Elec       q    Type
REMARK                         _______ _______ _______ _____ _____    ______ ____
ROOT
ATOM      1  C   LIG    1       26.005 -20.926   5.972  0.00  0.00    +0.141 C 
ATOM      2  C   LIG    1       26.077 -19.961   7.175  0.00  0.00    +0.053 C 
ATOM      3  C   LIG    1       26.967 -20.360   8.360  0.00  0.00    +0.087 C 
ATOM      4  N   LIG    1       28.324 -20.840   8.068  0.00  0.00    -0.302 NA
ATOM      5  C   LIG    1       28.190 -21.964   7.190  0.00  0.00    +0.087 C 
ATOM      6  C   LIG    1       27.389 -21.590   5.836  0.00  0.00    +0.053 C 
ENDROOT
BRANCH   1   8
ATOM      7  C   LIG    1       23.291 -21.642   6.138  0.00  0.00    +0.221 C 
ATOM      8  N   LIG    1       24.689 -21.894   6.013  0.00  0.00    -0.255 N 
ATOM      9  O   LIG    1       22.486 -22.593   6.098  0.00  0.00    -0.275 OA
BRANCH   8  10
ATOM     10  C   LIG    1       25.042 -23.359   6.043  0.00  0.00    +0.037 A 
ATOM     11  C   LIG    1       25.468 -24.009   7.222  0.00  0.00    +0.023 A 
ATOM     12  C   LIG    1       25.870 -25.368   7.223  0.00  0.00    +0.002 A 
ATOM     13  C   LIG    1       25.810 -26.127   6.058  0.00  0.00    +0.000 A 
ATOM     14  C   LIG    1       25.317 -25.530   4.902  0.00  0.00    +0.002 A 
ATOM     15  C   LIG    1       24.935 -24.167   4.896  0.00  0.00    +0.023 A 
ENDBRANCH   8  10
BRANCH   7  17
ATOM     16  C   LIG    1       22.443 -19.336   5.176  0.00  0.00    +0.013 C 
ATOM     17  C   LIG    1       22.545 -20.257   6.302  0.00  0.00    +0.093 C 
ENDBRANCH   7  17
ENDBRANCH   1   8
BRANCH   1  18
ATOM     18  C   LIG    1       25.929 -20.212   4.593  0.00  0.00    +0.331 C 
ATOM     19  O   LIG    1       25.251 -20.603   3.616  0.00  0.00    -0.248 OA
BRANCH  18  20
ATOM     20  O   LIG    1       26.700 -19.107   4.571  0.00  0.00    -0.466 OA
ATOM     21  C   LIG    1       26.278 -18.159   3.603  0.00  0.00    +0.280 C 
ENDBRANCH  18  20
ENDBRANCH   1  18
BRANCH   4  22
ATOM     22  C   LIG    1       29.320 -19.910   7.560  0.00  0.00    +0.095 C 
BRANCH  22  23
ATOM     23  C   LIG    1       29.781 -18.910   8.635  0.00  0.00    +0.136 C 
BRANCH  23  24
ATOM     24  C   LIG    1       31.259 -18.846   8.697  0.00  0.00    +0.308 C 
ATOM     25  O   LIG    1       31.987 -19.770   9.242  0.00  0.00    -0.251 OA
BRANCH  24  26
ATOM     26  O   LIG    1       31.733 -17.681   8.260  0.00  0.00    -0.468 OA
ATOM     27  C   LIG    1       32.265 -16.796   9.248  0.00  0.00    +0.280 C 
ENDBRANCH  24  26
ENDBRANCH  23  24
ENDBRANCH  22  23
ENDBRANCH   4  22
TORSDOF 9
ENDMDL
MODEL 5
REMARK VINA RESULT:      -6.2      6.205     10.060
REMARK  Name = *****
REMARK                            x       y       z     vdW  Elec       q    Type
REMARK                         _______ _______ _______ _____ _____    ______ ____
ROOT
ATOM      1  C   LIG    1       25.015 -30.106   8.124  0.00  0.00    +0.141 C 
ATOM      2  C   LIG    1       25.243 -28.624   8.495  0.00  0.00    +0.053 C 
ATOM      3  C   LIG    1       26.021 -27.750   7.501  0.00  0.00    +0.087 C 
ATOM      4  N   LIG    1       25.643 -27.820   6.083  0.00  0.00    -0.302 NA
ATOM      5  C   LIG    1       25.762 -29.192   5.686  0.00  0.00    +0.087 C 
ATOM      6  C   LIG    1       24.851 -30.173   6.593  0.00  0.00    +0.053 C 
ENDROOT
BRANCH   1   8
ATOM      7  C   LIG    1       26.661 -32.362   8.445  0.00  0.00    +0.221 C 
ATOM      8  N   LIG    1       26.095 -31.110   8.826  0.00  0.00    -0.255 N 
ATOM      9  O   LIG    1       27.516 -32.902   9.175  0.00  0.00    -0.275 OA
BRANCH   8  10
ATOM     10  C   LIG    1       26.479 -30.675  10.217  0.00  0.00    +0.037 A 
ATOM     11  C   LIG    1       25.746 -31.062  11.359  0.00  0.00    +0.023 A 
ATOM     12  C   LIG    1       26.071 -30.585  12.654  0.00  0.00    +0.002 A 
ATOM     13  C   LIG    1       27.166 -29.749  12.849  0.00  0.00    +0.000 A 
ATOM     14  C   LIG    1       27.952 -29.418  11.749  0.00  0.00    +0.002 A 
ATOM     15  C   LIG    1       27.615 -29.878  10.453  0.00  0.00    +0.023 A 
ENDBRANCH   8  10
BRANCH   7  17
ATOM     16  C   LIG    1       27.162 -33.003   5.935  0.00  0.00    +0.013 C 
ATOM     17  C   LIG    1       26.381 -33.221   7.147  0.00  0.00    +0.093 C 
ENDBRANCH   7  17
ENDBRANCH   1   8
BRANCH   1  18
ATOM     18  C   LIG    1       23.626 -30.656   8.552  0.00  0.00    +0.331 C 
ATOM     19  O   LIG    1       22.917 -30.185   9.471  0.00  0.00    -0.248 OA
BRANCH  18  20
ATOM     20  O   LIG    1       23.271 -31.723   7.811  0.00  0.00    -0.466 OA
ATOM     21  C   LIG    1       22.891 -32.840   8.598  0.00  0.00    +0.280 C 
ENDBRANCH  18  20
ENDBRANCH   1  18
BRANCH   4  22
ATOM     22  C   LIG    1       24.365 -27.274   5.653  0.00  0.00    +0.095 C 
BRANCH  22  23
ATOM     23  C   LIG    1       24.498 -25.832   5.134  0.00  0.00    +0.136 C 
BRANCH  23  24
ATOM     24  C   LIG    1       24.402 -24.860   6.247  0.00  0.00    +0.308 C 
ATOM     25  O   LIG    1       25.438 -24.362   6.848  0.00  0.00    -0.251 OA
BRANCH  24  26
ATOM     26  O   LIG    1       23.145 -24.669   6.643  0.00  0.00    -0.468 OA
ATOM     27  C   LIG    1       22.730 -23.314   6.827  0.00  0.00    +0.280 C 
ENDBRANCH  24  26
ENDBRANCH  23  24
ENDBRANCH  22  23
ENDBRANCH   4  22
TORSDOF 9
ENDMDL
MODEL 6
REMARK VINA RESULT:      -6.2      2.866      7.214
REMARK  Name = *****
REMARK                            x       y       z     vdW  Elec       q    Type
REMARK                         _______ _______ _______ _____ _____    ______ ____
ROOT
ATOM      1  C   LIG    1       24.650 -22.461   6.108  0.00  0.00    +0.141 C 
ATOM      2  C   LIG    1       24.362 -23.366   4.891  0.00  0.00    +0.053 C 
ATOM      3  C   LIG    1       25.241 -24.609   4.698  0.00  0.00    +0.087 C 
ATOM      4  N   LIG    1       25.482 -25.467   5.866  0.00  0.00    -0.302 NA
ATOM      5  C   LIG    1       26.065 -24.639   6.880  0.00  0.00    +0.087 C 
ATOM      6  C   LIG    1       25.125 -23.377   7.254  0.00  0.00    +0.053 C 
ENDROOT
BRANCH   1   8
ATOM      7  C   LIG    1       25.546 -20.228   4.654  0.00  0.00    +0.221 C 
ATOM      8  N   LIG    1       25.566 -21.163   5.732  0.00  0.00    -0.255 N 
ATOM      9  O   LIG    1       26.362 -19.286   4.639  0.00  0.00    -0.275 OA
BRANCH   8  10
ATOM     10  C   LIG    1       26.747 -20.994   6.653  0.00  0.00    +0.037 A 
ATOM     11  C   LIG    1       26.646 -20.334   7.897  0.00  0.00    +0.023 A 
ATOM     12  C   LIG    1       27.779 -20.114   8.721  0.00  0.00    +0.002 A 
ATOM     13  C   LIG    1       29.032 -20.591   8.348  0.00  0.00    +0.000 A 
ATOM     14  C   LIG    1       29.141 -21.314   7.164  0.00  0.00    +0.002 A 
ATOM     15  C   LIG    1       28.014 -21.516   6.331  0.00  0.00    +0.023 A 
ENDBRANCH   8  10
BRANCH   7  17
ATOM     16  C   LIG    1       23.714 -19.018   3.192  0.00  0.00    +0.013 C 
ATOM     17  C   LIG    1       24.574 -20.175   3.408  0.00  0.00    +0.093 C 
ENDBRANCH   7  17
ENDBRANCH   1   8
BRANCH   1  18
ATOM     18  C   LIG    1       23.374 -21.869   6.770  0.00  0.00    +0.331 C 
ATOM     19  O   LIG    1       23.352 -21.230   7.847  0.00  0.00    -0.248 OA
BRANCH  18  20
ATOM     20  O   LIG    1       22.274 -22.135   6.040  0.00  0.00    -0.466 OA
ATOM     21  C   LIG    1       21.893 -21.057   5.201  0.00  0.00    +0.280 C 
ENDBRANCH  18  20
ENDBRANCH   1  18
BRANCH   4  22
ATOM     22  C   LIG    1       24.390 -26.254   6.416  0.00  0.00    +0.095 C 
BRANCH  22  23
ATOM     23  C   LIG    1       24.866 -27.623   6.934  0.00  0.00    +0.136 C 
BRANCH  23  24
ATOM     24  C   LIG    1       24.432 -28.710   6.026  0.00  0.00    +0.308 C 
ATOM     25  O   LIG    1       24.537 -28.642   4.736  0.00  0.00    -0.251 OA
BRANCH  24  26
ATOM     26  O   LIG    1       23.804 -29.688   6.676  0.00  0.00    -0.468 OA
ATOM     27  C   LIG    1       24.171 -29.888   8.042  0.00  0.00    +0.280 C 
ENDBRANCH  24  26
ENDBRANCH  23  24
ENDBRANCH  22  23
ENDBRANCH   4  22
TORSDOF 9
ENDMDL
MODEL 7
REMARK VINA RESULT:      -5.8      9.254     12.362
REMARK  Name = *****
REMARK                            x       y       z     vdW  Elec       q    Type
REMARK                         _______ _______ _______ _____ _____    ______ ____
ROOT
ATOM      1  C   LIG    1       22.641 -31.254  10.882  0.00  0.00    +0.141 C 
ATOM      2  C   LIG    1       23.248 -30.075  10.090  0.00  0.00    +0.053 C 
ATOM      3  C   LIG    1       24.775 -30.021   9.946  0.00  0.00    +0.087 C 
ATOM      4  N   LIG    1       25.471 -31.253   9.550  0.00  0.00    -0.302 NA
ATOM      5  C   LIG    1       25.132 -32.254  10.517  0.00  0.00    +0.087 C 
ATOM      6  C   LIG    1       23.535 -32.483  10.626  0.00  0.00    +0.053 C 
ENDROOT
BRANCH   1   8
ATOM      7  C   LIG    1       21.869 -31.627  13.560  0.00  0.00    +0.221 C 
ATOM      8  N   LIG    1       22.293 -30.866  12.430  0.00  0.00    -0.255 N 
ATOM      9  O   LIG    1       21.711 -31.063  14.660  0.00  0.00    -0.275 OA
BRANCH   8  10
ATOM     10  C   LIG    1       22.310 -29.379  12.678  0.00  0.00    +0.037 A 
ATOM     11  C   LIG    1       23.497 -28.678  12.982  0.00  0.00    +0.023 A 
ATOM     12  C   LIG    1       23.490 -27.293  13.288  0.00  0.00    +0.002 A 
ATOM     13  C   LIG    1       22.306 -26.564  13.250  0.00  0.00    +0.000 A 
ATOM     14  C   LIG    1       21.135 -27.216  12.875  0.00  0.00    +0.002 A 
ATOM     15  C   LIG    1       21.139 -28.603  12.589  0.00  0.00    +0.023 A 
ENDBRANCH   8  10
BRANCH   7  17
ATOM     16  C   LIG    1       20.253 -33.699  13.324  0.00  0.00    +0.013 C 
ATOM     17  C   LIG    1       21.574 -33.177  13.654  0.00  0.00    +0.093 C 
ENDBRANCH   7  17
ENDBRANCH   1   8
BRANCH   1  18
ATOM     18  C   LIG    1       21.304 -31.785  10.295  0.00  0.00    +0.331 C 
ATOM     19  O   LIG    1       21.103 -32.960   9.909  0.00  0.00    -0.248 OA
BRANCH  18  20
ATOM     20  O   LIG    1       20.372 -30.814  10.241  0.00  0.00    -0.466 OA
ATOM     21  C   LIG    1       19.063 -31.290  10.511  0.00  0.00    +0.280 C 
ENDBRANCH  18  20
ENDBRANCH   1  18
BRANCH   4  22
ATOM     22  C   LIG    1       25.304 -31.769   8.200  0.00  0.00    +0.095 C 
BRANCH  22  23
ATOM     23  C   LIG    1       25.313 -30.648   7.146  0.00  0.00    +0.136 C 
BRANCH  23  24
ATOM     24  C   LIG    1       24.021 -30.593   6.424  0.00  0.00    +0.308 C 
ATOM     25  O   LIG    1       23.401 -31.649   5.997  0.00  0.00    -0.251 OA
BRANCH  24  26
ATOM     26  O   LIG    1       23.650 -29.345   6.148  0.00  0.00    -0.468 OA
ATOM     27  C   LIG    1       24.561 -28.564   5.372  0.00  0.00    +0.280 C 
ENDBRANCH  24  26
ENDBRANCH  23  24
ENDBRANCH  22  23
ENDBRANCH   4  22
TORSDOF 9
ENDMDL
MODEL 8
REMARK VINA RESULT:      -5.7      8.517     11.907
REMARK  Name = *****
REMARK                            x       y       z     vdW  Elec       q    Type
REMARK                         _______ _______ _______ _____ _____    ______ ____
ROOT
ATOM      1  C   LIG    1       25.219 -30.275  11.700  0.00  0.00    +0.141 C 
ATOM      2  C   LIG    1       25.322 -31.794  11.440  0.00  0.00    +0.053 C 
ATOM      3  C   LIG    1       24.190 -32.463  10.650  0.00  0.00    +0.087 C 
ATOM      4  N   LIG    1       23.737 -31.811   9.414  0.00  0.00    -0.302 NA
ATOM      5  C   LIG    1       23.335 -30.482   9.765  0.00  0.00    +0.087 C 
ATOM      6  C   LIG    1       24.526 -29.649  10.474  0.00  0.00    +0.053 C 
ENDROOT
BRANCH   1   8
ATOM      7  C   LIG    1       24.911 -30.409  14.490  0.00  0.00    +0.221 C 
ATOM      8  N   LIG    1       24.627 -29.922  13.181  0.00  0.00    -0.255 N 
ATOM      9  O   LIG    1       24.318 -29.920  15.473  0.00  0.00    -0.275 OA
BRANCH   8  10
ATOM     10  C   LIG    1       23.458 -28.972  13.131  0.00  0.00    +0.037 A 
ATOM     11  C   LIG    1       22.131 -29.416  12.948  0.00  0.00    +0.023 A 
ATOM     12  C   LIG    1       21.048 -28.508  12.827  0.00  0.00    +0.002 A 
ATOM     13  C   LIG    1       21.257 -27.137  12.936  0.00  0.00    +0.000 A 
ATOM     14  C   LIG    1       22.545 -26.679  13.197  0.00  0.00    +0.002 A 
ATOM     15  C   LIG    1       23.629 -27.585  13.297  0.00  0.00    +0.023 A 
ENDBRANCH   8  10
BRANCH   7  17
ATOM     16  C   LIG    1       27.341 -31.185  15.163  0.00  0.00    +0.013 C 
ATOM     17  C   LIG    1       25.942 -31.524  14.931  0.00  0.00    +0.093 C 
ENDBRANCH   7  17
ENDBRANCH   1   8
BRANCH   1  18
ATOM     18  C   LIG    1       26.581 -29.529  11.629  0.00  0.00    +0.331 C 
ATOM     19  O   LIG    1       27.692 -30.032  11.915  0.00  0.00    -0.248 OA
BRANCH  18  20
ATOM     20  O   LIG    1       26.423 -28.254  11.225  0.00  0.00    -0.466 OA
ATOM     21  C   LIG    1       26.989 -27.316  12.125  0.00  0.00    +0.280 C 
ENDBRANCH  18  20
ENDBRANCH   1  18
BRANCH   4  22
ATOM     22  C   LIG    1       24.612 -31.790   8.252  0.00  0.00    +0.095 C 
BRANCH  22  23
ATOM     23  C   LIG    1       23.822 -31.799   6.932  0.00  0.00    +0.136 C 
BRANCH  23  24
ATOM     24  C   LIG    1       24.312 -30.741   6.017  0.00  0.00    +0.308 C 
ATOM     25  O   LIG    1       25.324 -30.901   5.223  0.00  0.00    -0.251 OA
BRANCH  24  26
ATOM     26  O   LIG    1       23.687 -29.581   6.208  0.00  0.00    -0.468 OA
ATOM     27  C   LIG    1       24.317 -28.418   5.666  0.00  0.00    +0.280 C 
ENDBRANCH  24  26
ENDBRANCH  23  24
ENDBRANCH  22  23
ENDBRANCH   4  22
TORSDOF 9
ENDMDL
MODEL 9
REMARK VINA RESULT:      -5.6      8.583     12.271
REMARK  Name = *****
REMARK                            x       y       z     vdW  Elec       q    Type
REMARK                         _______ _______ _______ _____ _____    ______ ____
ROOT
ATOM      1  C   LIG    1       22.837 -31.206  11.162  0.00  0.00    +0.141 C 
ATOM      2  C   LIG    1       23.266 -30.043  10.241  0.00  0.00    +0.053 C 
ATOM      3  C   LIG    1       24.729 -29.997   9.781  0.00  0.00    +0.087 C 
ATOM      4  N   LIG    1       25.327 -31.237   9.269  0.00  0.00    -0.302 NA
ATOM      5  C   LIG    1       25.197 -32.221  10.302  0.00  0.00    +0.087 C 
ATOM      6  C   LIG    1       23.658 -32.442  10.746  0.00  0.00    +0.053 C 
ENDROOT
BRANCH   1   8
ATOM      7  C   LIG    1       22.876 -31.543  13.953  0.00  0.00    +0.221 C 
ATOM      8  N   LIG    1       22.819 -30.792  12.742  0.00  0.00    -0.255 N 
ATOM      9  O   LIG    1       22.883 -30.948  15.049  0.00  0.00    -0.275 OA
BRANCH   8  10
ATOM     10  C   LIG    1       22.571 -29.321  12.957  0.00  0.00    +0.037 A 
ATOM     11  C   LIG    1       21.275 -28.761  12.929  0.00  0.00    +0.023 A 
ATOM     12  C   LIG    1       21.060 -27.365  13.058  0.00  0.00    +0.002 A 
ATOM     13  C   LIG    1       22.128 -26.499  13.266  0.00  0.00    +0.000 A 
ATOM     14  C   LIG    1       23.407 -27.036  13.377  0.00  0.00    +0.002 A 
ATOM     15  C   LIG    1       23.624 -28.427  13.229  0.00  0.00    +0.023 A 
ENDBRANCH   8  10
BRANCH   7  17
ATOM     16  C   LIG    1       24.228 -33.740  14.506  0.00  0.00    +0.013 C 
ATOM     17  C   LIG    1       22.964 -33.110  14.142  0.00  0.00    +0.093 C 
ENDBRANCH   7  17
ENDBRANCH   1   8
BRANCH   1  18
ATOM     18  C   LIG    1       21.407 -31.743  10.875  0.00  0.00    +0.331 C 
ATOM     19  O   LIG    1       20.979 -32.869  11.217  0.00  0.00    -0.248 OA
BRANCH  18  20
ATOM     20  O   LIG    1       20.671 -30.841  10.197  0.00  0.00    -0.466 OA
ATOM     21  C   LIG    1       19.278 -31.096  10.272  0.00  0.00    +0.280 C 
ENDBRANCH  18  20
ENDBRANCH   1  18
BRANCH   4  22
ATOM     22  C   LIG    1       24.882 -31.775   7.993  0.00  0.00    +0.095 C 
BRANCH  22  23
ATOM     23  C   LIG    1       25.519 -31.039   6.801  0.00  0.00    +0.136 C 
BRANCH  23  24
ATOM     24  C   LIG    1       24.596 -30.015   6.259  0.00  0.00    +0.308 C 
ATOM     25  O   LIG    1       23.355 -30.259   5.973  0.00  0.00    -0.251 OA
BRANCH  24  26
ATOM     26  O   LIG    1       25.220 -28.874   5.975  0.00  0.00    -0.468 OA
ATOM     27  C   LIG    1       24.425 -27.687   6.000  0.00  0.00    +0.280 C 
ENDBRANCH  24  26
ENDBRANCH  23  24
ENDBRANCH  22  23
ENDBRANCH   4  22
TORSDOF 9
ENDMDL
