MODEL 1
REMARK VINA RESULT:      -3.3      0.000      0.000
REMARK  Name = *****
REMARK                            x       y       z     vdW  Elec       q    Type
REMARK                         _______ _______ _______ _____ _____    ______ ____
ROOT
ATOM      1 CL   LIG    1       25.291 -18.534   3.438  0.00  0.00    -0.090 Cl
ATOM      2  C   LIG    1       24.313 -19.777   4.103  0.00  0.00    +0.111 C 
ATOM      3  C   LIG    1       23.063 -19.632   4.552  0.00  0.00    +0.118 C 
ATOM      4 CL   LIG    1       22.225 -21.003   5.192  0.00  0.00    -0.070 Cl
ATOM      5 CL   LIG    1       22.215 -18.129   4.531  0.00  0.00    -0.070 Cl
ENDROOT
TORSDOF 0
ENDMDL
MODEL 2
REMARK VINA RESULT:      -3.3      1.545      1.545
REMARK  Name = *****
REMARK                            x       y       z     vdW  Elec       q    Type
REMARK                         _______ _______ _______ _____ _____    ______ ____
ROOT
ATOM      1 CL   LIG    1       25.311 -19.664   3.796  0.00  0.00    -0.090 Cl
ATOM      2  C   LIG    1       24.743 -20.572   5.135  0.00  0.00    +0.111 C 
ATOM      3  C   LIG    1       23.546 -20.446   5.713  0.00  0.00    +0.118 C 
ATOM      4 CL   LIG    1       23.142 -21.452   7.062  0.00  0.00    -0.070 Cl
ATOM      5 CL   LIG    1       22.350 -19.318   5.187  0.00  0.00    -0.070 Cl
ENDROOT
TORSDOF 0
ENDMDL
MODEL 3
REMARK VINA RESULT:      -3.3      1.107      1.952
REMARK  Name = *****
REMARK                            x       y       z     vdW  Elec       q    Type
REMARK                         _______ _______ _______ _____ _____    ______ ____
ROOT
ATOM      1 CL   LIG    1       25.488 -20.170   4.075  0.00  0.00    -0.090 Cl
ATOM      2  C   LIG    1       24.033 -19.315   3.771  0.00  0.00    +0.111 C 
ATOM      3  C   LIG    1       22.953 -19.305   4.558  0.00  0.00    +0.118 C 
ATOM      4 CL   LIG    1       21.568 -18.381   4.090  0.00  0.00    -0.070 Cl
ATOM      5 CL   LIG    1       22.854 -20.175   6.045  0.00  0.00    -0.070 Cl
ENDROOT
TORSDOF 0
ENDMDL
MODEL 4
REMARK VINA RESULT:      -3.2      1.726      2.500
REMARK  Name = *****
REMARK                            x       y       z     vdW  Elec       q    Type
REMARK                         _______ _______ _______ _____ _____    ______ ____
ROOT
ATOM      1 CL   LIG    1       22.160 -18.098   4.527  0.00  0.00    -0.090 Cl
ATOM      2  C   LIG    1       23.270 -19.360   4.189  0.00  0.00    +0.111 C 
ATOM      3  C   LIG    1       23.625 -20.335   5.031  0.00  0.00    +0.118 C 
ATOM      4 CL   LIG    1       24.765 -21.531   4.517  0.00  0.00    -0.070 Cl
ATOM      5 CL   LIG    1       23.001 -20.480   6.634  0.00  0.00    -0.070 Cl
ENDROOT
TORSDOF 0
ENDMDL
MODEL 5
REMARK VINA RESULT:      -3.1      5.963      6.671
REMARK  Name = *****
REMARK                            x       y       z     vdW  Elec       q    Type
REMARK                         _______ _______ _______ _____ _____    ______ ____
ROOT
ATOM      1 CL   LIG    1       26.927 -15.206   3.312  0.00  0.00    -0.090 Cl
ATOM      2  C   LIG    1       26.259 -13.825   2.546  0.00  0.00    +0.111 C 
ATOM      3  C   LIG    1       25.057 -13.299   2.794  0.00  0.00    +0.118 C 
ATOM      4 CL   LIG    1       24.546 -11.895   1.920  0.00  0.00    -0.070 Cl
ATOM      5 CL   LIG    1       23.958 -13.945   3.958  0.00  0.00    -0.070 Cl
ENDROOT
TORSDOF 0
ENDMDL
MODEL 6
REMARK VINA RESULT:      -3.1      0.871      2.822
REMARK  Name = *****
REMARK                            x       y       z     vdW  Elec       q    Type
REMARK                         _______ _______ _______ _____ _____    ______ ____
ROOT
ATOM      1 CL   LIG    1       22.680 -21.545   5.917  0.00  0.00    -0.090 Cl
ATOM      2  C   LIG    1       23.855 -20.717   4.983  0.00  0.00    +0.111 C 
ATOM      3  C   LIG    1       23.681 -19.542   4.372  0.00  0.00    +0.118 C 
ATOM      4 CL   LIG    1       24.985 -18.852   3.468  0.00  0.00    -0.070 Cl
ATOM      5 CL   LIG    1       22.205 -18.649   4.431  0.00  0.00    -0.070 Cl
ENDROOT
TORSDOF 0
ENDMDL
MODEL 7
REMARK VINA RESULT:      -3.1      1.548      2.974
REMARK  Name = *****
REMARK                            x       y       z     vdW  Elec       q    Type
REMARK                         _______ _______ _______ _____ _____    ______ ____
ROOT
ATOM      1 CL   LIG    1       23.950 -21.498   6.765  0.00  0.00    -0.090 Cl
ATOM      2  C   LIG    1       22.954 -20.302   6.046  0.00  0.00    +0.111 C 
ATOM      3  C   LIG    1       23.160 -19.721   4.861  0.00  0.00    +0.118 C 
ATOM      4 CL   LIG    1       22.044 -18.528   4.293  0.00  0.00    -0.070 Cl
ATOM      5 CL   LIG    1       24.499 -20.098   3.839  0.00  0.00    -0.070 Cl
ENDROOT
TORSDOF 0
ENDMDL
MODEL 8
REMARK VINA RESULT:      -3.1      5.602      6.368
REMARK  Name = *****
REMARK                            x       y       z     vdW  Elec       q    Type
REMARK                         _______ _______ _______ _____ _____    ______ ____
ROOT
ATOM      1 CL   LIG    1       24.298 -11.842   2.328  0.00  0.00    -0.090 Cl
ATOM      2  C   LIG    1       25.450 -13.096   2.529  0.00  0.00    +0.111 C 
ATOM      3  C   LIG    1       25.314 -14.163   3.321  0.00  0.00    +0.118 C 
ATOM      4 CL   LIG    1       26.586 -15.333   3.399  0.00  0.00    -0.070 Cl
ATOM      5 CL   LIG    1       23.916 -14.453   4.291  0.00  0.00    -0.070 Cl
ENDROOT
TORSDOF 0
ENDMDL
MODEL 9
REMARK VINA RESULT:      -3.1      5.291      6.457
REMARK  Name = *****
REMARK                            x       y       z     vdW  Elec       q    Type
REMARK                         _______ _______ _______ _____ _____    ______ ____
ROOT
ATOM      1 CL   LIG    1       23.836 -14.311   4.382  0.00  0.00    -0.090 Cl
ATOM      2  C   LIG    1       25.453 -13.759   4.228  0.00  0.00    +0.111 C 
ATOM      3  C   LIG    1       26.489 -14.485   3.801  0.00  0.00    +0.118 C 
ATOM      4 CL   LIG    1       28.057 -13.759   3.711  0.00  0.00    -0.070 Cl
ATOM      5 CL   LIG    1       26.358 -16.138   3.322  0.00  0.00    -0.070 Cl
ENDROOT
TORSDOF 0
ENDMDL
