MODEL 1
REMARK VINA RESULT:       2.8      0.000      0.000
REMARK  Name = *****
REMARK                            x       y       z     vdW  Elec       q    Type
REMARK                         _______ _______ _______ _____ _____    ______ ____
ROOT
ATOM      1  C   LIG    1       26.919 -20.604   4.641  0.00  0.00    +0.044 C 
ATOM      2  C   LIG    1       27.620 -19.296   4.185  0.00  0.00    +0.006 C 
ATOM      3  C   LIG    1       28.693 -18.982   5.231  0.00  0.00    -0.001 C 
ATOM      4  C   LIG    1       28.887 -17.463   5.220  0.00  0.00    +0.034 C 
ATOM      5  C   LIG    1       27.740 -16.937   4.398  0.00  0.00    -0.073 C 
ATOM      6  C   LIG    1       27.724 -15.706   3.857  0.00  0.00    -0.027 C 
ATOM      7  C   LIG    1       28.106 -19.515   6.529  0.00  0.00    +0.036 C 
ATOM      8  C   LIG    1       26.749 -18.039   4.143  0.00  0.00    +0.035 C 
ATOM      9  C   LIG    1       27.356 -20.786   6.129  0.00  0.00    +0.122 C 
ENDROOT
BRANCH   1  11
ATOM     10  C   LIG    1       24.521 -21.570   4.518  0.00  0.00    +0.000 C 
ATOM     11  C   LIG    1       25.467 -20.668   4.199  0.00  0.00    -0.022 C 
BRANCH  10  12
ATOM     12  C   LIG    1       23.098 -21.544   3.991  0.00  0.00    +0.141 C 
BRANCH  12  13
ATOM     13  C   LIG    1       22.139 -20.518   4.641  0.00  0.00    +0.030 C 
ATOM     14  C   LIG    1       22.650 -20.121   6.040  0.00  0.00    +0.011 C 
BRANCH  13  15
ATOM     15  C   LIG    1       21.884 -19.263   3.799  0.00  0.00    +0.095 C 
BRANCH  15  18
ATOM     16  C   LIG    1       21.947 -15.767   5.997  0.00  0.00    +0.106 C 
ATOM     17  C   LIG    1       21.953 -17.012   5.221  0.00  0.00    -0.106 C 
ATOM     18  C   LIG    1       21.941 -18.016   4.588  0.00  0.00    -0.102 C 
ENDBRANCH  15  18
ENDBRANCH  13  15
ENDBRANCH  12  13
BRANCH  12  19
ATOM     19  O   LIG    1       23.112 -21.272   2.584  0.00  0.00    -0.388 OA
ATOM     20  H   LIG    1       22.251 -20.883   2.335  0.00  0.00    +0.210 HD
ENDBRANCH  12  19
ENDBRANCH  10  12
ENDBRANCH   1  11
BRANCH   9  21
ATOM     21  O   LIG    1       26.315 -21.017   7.062  0.00  0.00    -0.391 OA
ATOM     22  H   LIG    1       26.480 -21.889   7.462  0.00  0.00    +0.210 HD
ENDBRANCH   9  21
BRANCH   6  23
ATOM     23  C   LIG    1       26.701 -15.220   2.871  0.00  0.00    +0.028 C 
BRANCH  23  24
ATOM     24  C   LIG    1       25.309 -15.813   3.100  0.00  0.00    +0.015 C 
BRANCH  24  25
ATOM     25  C   LIG    1       24.569 -15.120   4.236  0.00  0.00    +0.121 C 
BRANCH  25  26
ATOM     26  C   LIG    1       23.555 -14.116   3.757  0.00  0.00    +0.307 C 
ATOM     27  O   LIG    1       22.790 -14.283   2.818  0.00  0.00    -0.251 OA
BRANCH  26  28
ATOM     28  O   LIG    1       23.567 -13.037   4.587  0.00  0.00    -0.457 OA
BRANCH  28  29
ATOM     29  C   LIG    1       23.927 -11.826   3.941  0.00  0.00    +0.311 C 
BRANCH  29  30
ATOM     30  C   LIG    1       25.163 -11.871   3.037  0.00  0.00    +0.200 C 
ATOM     31  O   LIG    1       25.097 -11.731   1.816  0.00  0.00    -0.288 OA
BRANCH  30  32
ATOM     32  C   LIG    1       26.474 -12.178   3.684  0.00  0.00    +0.021 A 
ATOM     33  C   LIG    1       26.564 -12.535   5.036  0.00  0.00    +0.011 A 
ATOM     34  C   LIG    1       27.801 -12.823   5.612  0.00  0.00    +0.001 A 
ATOM     35  C   LIG    1       28.961 -12.737   4.847  0.00  0.00    +0.000 A 
ATOM     36  C   LIG    1       28.885 -12.369   3.504  0.00  0.00    +0.001 A 
ATOM     37  C   LIG    1       27.643 -12.093   2.923  0.00  0.00    +0.011 A 
ENDBRANCH  30  32
ENDBRANCH  29  30
ENDBRANCH  28  29
ENDBRANCH  26  28
ENDBRANCH  25  26
ENDBRANCH  24  25
ENDBRANCH  23  24
ENDBRANCH   6  23
TORSDOF 15
ENDMDL
