MODEL 1
REMARK VINA RESULT:      88.8      0.000      0.000
REMARK  Name = *****
REMARK                            x       y       z     vdW  Elec       q    Type
REMARK                         _______ _______ _______ _____ _____    ______ ____
ROOT
ATOM      1  C   LIG    1       24.849 -19.537   6.351  0.00  0.00    +0.147 C 
ATOM      2  C   LIG    1       25.726 -18.263   6.404  0.00  0.00    +0.068 C 
ATOM      3  C   LIG    1       26.999 -18.149   5.550  0.00  0.00    +0.141 C 
ATOM      4  O   LIG    1       26.627 -17.413   4.377  0.00  0.00    -0.344 OA
ATOM      5  C   LIG    1       27.503 -17.461   3.265  0.00  0.00    +0.172 C 
ATOM      6  C   LIG    1       28.935 -17.825   3.655  0.00  0.00    +0.097 C 
ATOM      7  C   LIG    1       28.962 -19.194   4.356  0.00  0.00    +0.136 C 
ATOM      8  C   LIG    1       27.381 -16.146   2.465  0.00  0.00    +0.096 C 
ATOM      9  C   LIG    1       27.009 -14.833   3.186  0.00  0.00    +0.122 C 
ATOM     10  C   LIG    1       28.133 -14.061   3.890  0.00  0.00    +0.066 C 
ATOM     11  C   LIG    1       28.463 -14.460   5.300  0.00  0.00    +0.154 C 
ATOM     12  C   LIG    1       27.925 -13.800   6.564  0.00  0.00    +0.171 C 
ATOM     13  C   LIG    1       26.702 -13.001   6.462  0.00  0.00    +0.014 C 
ATOM     14  C   LIG    1       25.474 -13.455   6.751  0.00  0.00    +0.090 C 
ATOM     15  C   LIG    1       24.276 -12.668   6.406  0.00  0.00    +0.332 C 
ATOM     16  O   LIG    1       24.275 -11.520   5.981  0.00  0.00    -0.246 OA
ATOM     17  O   LIG    1       23.206 -13.485   6.544  0.00  0.00    -0.458 OA
ATOM     18  C   LIG    1       21.989 -13.056   5.891  0.00  0.00    +0.177 C 
ATOM     19  C   LIG    1       21.207 -12.164   6.845  0.00  0.00    +0.052 C 
ATOM     20  C   LIG    1       21.180 -14.323   5.537  0.00  0.00    +0.071 C 
ATOM     21  C   LIG    1       21.925 -15.201   4.568  0.00  0.00    -0.023 C 
ATOM     22  C   LIG    1       21.384 -16.005   3.638  0.00  0.00    -0.004 C 
ATOM     23  C   LIG    1       22.263 -16.838   2.855  0.00  0.00    -0.000 C 
ATOM     24  C   LIG    1       21.947 -17.993   2.246  0.00  0.00    +0.000 C 
ATOM     25  C   LIG    1       23.053 -18.882   1.844  0.00  0.00    +0.000 C 
ATOM     26  C   LIG    1       23.404 -19.803   2.773  0.00  0.00    -0.000 C 
ATOM     27  C   LIG    1       24.218 -19.360   3.906  0.00  0.00    -0.002 C 
ATOM     28  O   LIG    1       29.175 -13.414   5.986  0.00  0.00    -0.364 OA
ATOM     29  C   LIG    1       27.743 -19.448   5.248  0.00  0.00    +0.155 C 
ATOM     30  C   LIG    1       24.420 -20.089   5.011  0.00  0.00    +0.004 C 
ENDROOT
BRANCH   7  31
ATOM     31  O   LIG    1       28.993 -20.239   3.372  0.00  0.00    -0.391 OA
ATOM     32  H   LIG    1       28.199 -20.796   3.537  0.00  0.00    +0.210 HD
ENDBRANCH   7  31
BRANCH   5  33
ATOM     33  O   LIG    1       27.062 -18.535   2.427  0.00  0.00    -0.364 OA
ATOM     34  H   LIG    1       26.093 -18.458   2.367  0.00  0.00    +0.213 HD
ENDBRANCH   5  33
BRANCH   9  35
ATOM     35  O   LIG    1       25.851 -14.968   4.002  0.00  0.00    -0.392 OA
ATOM     36  H   LIG    1       25.279 -15.643   3.587  0.00  0.00    +0.210 HD
ENDBRANCH   9  35
BRANCH  29  37
ATOM     37  C   LIG    1       28.217 -20.081   6.534  0.00  0.00    +0.313 C 
ATOM     38  O   LIG    1       27.681 -21.050   7.053  0.00  0.00    -0.251 OA
BRANCH  37  39
ATOM     39  O   LIG    1       29.304 -19.482   7.060  0.00  0.00    -0.480 OA
ATOM     40  H   LIG    1       29.135 -18.587   7.420  0.00  0.00    +0.295 HD
ENDBRANCH  37  39
ENDBRANCH  29  37
BRANCH   1  41
ATOM     41  O   LIG    1       23.582 -19.294   7.007  0.00  0.00    -0.341 OA
BRANCH  41  47
ATOM     42  C   LIG    1       22.294 -21.572   3.116  0.00  0.00    +0.040 C 
ATOM     43  C   LIG    1       21.720 -20.801   4.297  0.00  0.00    +0.148 C 
ATOM     44  C   LIG    1       20.873 -19.602   3.847  0.00  0.00    +0.162 C 
ATOM     45  C   LIG    1       20.388 -18.813   5.083  0.00  0.00    +0.116 C 
ATOM     46  C   LIG    1       21.580 -18.444   5.981  0.00  0.00    +0.189 C 
ATOM     47  C   LIG    1       22.425 -19.707   6.279  0.00  0.00    +0.281 C 
ATOM     48  O   LIG    1       22.830 -20.361   5.086  0.00  0.00    -0.343 OA
BRANCH  45  49
ATOM     49  N   LIG    1       19.623 -17.626   4.626  0.00  0.00    -0.323 NA
ATOM     50  H   LIG    1       20.221 -16.802   4.703  0.00  0.00    +0.119 HD
ATOM     51  H   LIG    1       19.503 -17.739   3.611  0.00  0.00    +0.119 HD
ENDBRANCH  45  49
BRANCH  44  52
ATOM     52  O   LIG    1       19.732 -20.029   3.100  0.00  0.00    -0.388 OA
ATOM     53  H   LIG    1       19.917 -19.728   2.186  0.00  0.00    +0.210 HD
ENDBRANCH  44  52
BRANCH  46  54
ATOM     54  O   LIG    1       22.375 -17.440   5.322  0.00  0.00    -0.385 OA
ATOM     55  H   LIG    1       22.252 -17.609   4.365  0.00  0.00    +0.210 HD
ENDBRANCH  46  54
ENDBRANCH  41  47
ENDBRANCH   1  41
TORSDOF 10
ENDMDL
MODEL 2
REMARK VINA RESULT:      91.4      2.358      7.917
REMARK  Name = *****
REMARK                            x       y       z     vdW  Elec       q    Type
REMARK                         _______ _______ _______ _____ _____    ______ ____
ROOT
ATOM      1  C   LIG    1       23.773 -14.177   6.254  0.00  0.00    +0.147 C 
ATOM      2  C   LIG    1       23.338 -15.657   6.130  0.00  0.00    +0.068 C 
ATOM      3  C   LIG    1       22.253 -16.077   5.125  0.00  0.00    +0.141 C 
ATOM      4  O   LIG    1       22.949 -16.556   3.967  0.00  0.00    -0.344 OA
ATOM      5  C   LIG    1       22.215 -16.678   2.762  0.00  0.00    +0.172 C 
ATOM      6  C   LIG    1       20.709 -16.804   2.996  0.00  0.00    +0.097 C 
ATOM      7  C   LIG    1       20.188 -15.578   3.763  0.00  0.00    +0.136 C 
ATOM      8  C   LIG    1       22.819 -17.815   1.911  0.00  0.00    +0.096 C 
ATOM      9  C   LIG    1       23.511 -19.012   2.598  0.00  0.00    +0.122 C 
ATOM     10  C   LIG    1       22.623 -20.150   3.118  0.00  0.00    +0.066 C 
ATOM     11  C   LIG    1       22.050 -19.999   4.498  0.00  0.00    +0.154 C 
ATOM     12  C   LIG    1       22.642 -20.573   5.779  0.00  0.00    +0.171 C 
ATOM     13  C   LIG    1       24.057 -20.950   5.781  0.00  0.00    +0.014 C 
ATOM     14  C   LIG    1       25.047 -20.170   6.239  0.00  0.00    +0.090 C 
ATOM     15  C   LIG    1       26.459 -20.521   5.998  0.00  0.00    +0.332 C 
ATOM     16  O   LIG    1       26.860 -21.571   5.514  0.00  0.00    -0.246 OA
ATOM     17  O   LIG    1       27.201 -19.432   6.308  0.00  0.00    -0.458 OA
ATOM     18  C   LIG    1       28.548 -19.408   5.784  0.00  0.00    +0.177 C 
ATOM     19  C   LIG    1       29.474 -20.102   6.774  0.00  0.00    +0.052 C 
ATOM     20  C   LIG    1       28.950 -17.930   5.600  0.00  0.00    +0.071 C 
ATOM     21  C   LIG    1       28.065 -17.237   4.599  0.00  0.00    -0.023 C 
ATOM     22  C   LIG    1       28.415 -16.227   3.786  0.00  0.00    -0.004 C 
ATOM     23  C   LIG    1       27.401 -15.634   2.951  0.00  0.00    -0.000 C 
ATOM     24  C   LIG    1       27.396 -14.388   2.448  0.00  0.00    +0.000 C 
ATOM     25  C   LIG    1       26.112 -13.847   1.966  0.00  0.00    +0.000 C 
ATOM     26  C   LIG    1       25.402 -13.163   2.895  0.00  0.00    -0.000 C 
ATOM     27  C   LIG    1       24.662 -13.933   3.897  0.00  0.00    -0.002 C 
ATOM     28  O   LIG    1       21.638 -21.269   5.034  0.00  0.00    -0.364 OA
ATOM     29  C   LIG    1       21.173 -15.045   4.808  0.00  0.00    +0.155 C 
ATOM     30  C   LIG    1       24.136 -13.403   5.008  0.00  0.00    +0.004 C 
ENDROOT
BRANCH   7  31
ATOM     31  O   LIG    1       19.927 -14.508   2.842  0.00  0.00    -0.391 OA
ATOM     32  H   LIG    1       19.480 -13.801   3.361  0.00  0.00    +0.210 HD
ENDBRANCH   7  31
BRANCH   5  33
ATOM     33  O   LIG    1       22.376 -15.449   2.044  0.00  0.00    -0.364 OA
ATOM     34  H   LIG    1       23.142 -15.574   1.455  0.00  0.00    +0.213 HD
ENDBRANCH   5  33
BRANCH   9  35
ATOM     35  O   LIG    1       24.485 -18.604   3.553  0.00  0.00    -0.392 OA
ATOM     36  H   LIG    1       25.059 -17.944   3.120  0.00  0.00    +0.210 HD
ENDBRANCH   9  35
BRANCH  29  37
ATOM     37  C   LIG    1       20.403 -14.704   6.061  0.00  0.00    +0.313 C 
ATOM     38  O   LIG    1       19.879 -15.537   6.786  0.00  0.00    -0.251 OA
BRANCH  37  39
ATOM     39  O   LIG    1       20.352 -13.381   6.318  0.00  0.00    -0.480 OA
ATOM     40  H   LIG    1       21.005 -13.076   6.982  0.00  0.00    +0.295 HD
ENDBRANCH  37  39
ENDBRANCH  29  37
BRANCH   1  41
ATOM     41  O   LIG    1       24.982 -14.080   7.043  0.00  0.00    -0.341 OA
BRANCH  41  47
ATOM     42  C   LIG    1       26.234 -11.976   3.044  0.00  0.00    +0.040 C 
ATOM     43  C   LIG    1       26.817 -12.544   4.331  0.00  0.00    +0.148 C 
ATOM     44  C   LIG    1       27.865 -13.632   4.058  0.00  0.00    +0.162 C 
ATOM     45  C   LIG    1       28.358 -14.228   5.395  0.00  0.00    +0.116 C 
ATOM     46  C   LIG    1       27.165 -14.698   6.242  0.00  0.00    +0.189 C 
ATOM     47  C   LIG    1       26.122 -13.559   6.358  0.00  0.00    +0.281 C 
ATOM     48  O   LIG    1       25.724 -13.080   5.083  0.00  0.00    -0.343 OA
BRANCH  45  49
ATOM     49  N   LIG    1       29.324 -15.318   5.109  0.00  0.00    -0.323 NA
ATOM     50  H   LIG    1       29.895 -15.047   4.307  0.00  0.00    +0.119 HD
ATOM     51  H   LIG    1       29.994 -15.315   5.889  0.00  0.00    +0.119 HD
ENDBRANCH  45  49
BRANCH  44  52
ATOM     52  O   LIG    1       28.988 -13.101   3.351  0.00  0.00    -0.388 OA
ATOM     53  H   LIG    1       28.612 -12.369   2.819  0.00  0.00    +0.210 HD
ENDBRANCH  44  52
BRANCH  46  54
ATOM     54  O   LIG    1       26.582 -15.865   5.632  0.00  0.00    -0.385 OA
ATOM     55  H   LIG    1       26.433 -15.614   4.697  0.00  0.00    +0.210 HD
ENDBRANCH  46  54
ENDBRANCH  41  47
ENDBRANCH   1  41
TORSDOF 10
ENDMDL
