MODEL 1
REMARK VINA RESULT:     -10.0      0.000      0.000
REMARK  Name = *****
REMARK                            x       y       z     vdW  Elec       q    Type
REMARK                         _______ _______ _______ _____ _____    ______ ____
ROOT
ATOM      1  C   LIG    1       25.763 -21.582   5.874  0.00  0.00    +0.051 C 
ATOM      2  C   LIG    1       24.784 -20.618   5.220  0.00  0.00    -0.026 A 
ATOM      3  C   LIG    1       23.431 -20.584   5.602  0.00  0.00    +0.017 A 
ATOM      4  C   LIG    1       22.565 -19.649   5.020  0.00  0.00    +0.015 A 
ATOM      5  C   LIG    1       23.030 -18.760   4.051  0.00  0.00    +0.001 A 
ATOM      6  C   LIG    1       24.361 -18.803   3.650  0.00  0.00    +0.000 A 
ATOM      7  S   LIG    1       22.769 -21.739   6.791  0.00  0.00    -0.089 S 
ATOM      8  C   LIG    1       23.840 -23.139   6.503  0.00  0.00    +0.017 A 
ATOM      9  C   LIG    1       23.335 -24.424   6.728  0.00  0.00    +0.015 A 
ATOM     10  C   LIG    1       24.124 -25.547   6.478  0.00  0.00    +0.001 A 
ATOM     11  C   LIG    1       25.424 -25.391   6.001  0.00  0.00    +0.000 A 
ATOM     12  C   LIG    1       25.943 -24.113   5.791  0.00  0.00    +0.005 A 
ATOM     13  C   LIG    1       25.231 -19.727   4.227  0.00  0.00    +0.005 A 
ATOM     14  C   LIG    1       25.160 -22.973   6.044  0.00  0.00    -0.026 A 
ENDROOT
BRANCH   1  15
ATOM     15  C   LIG    1       26.289 -21.085   7.249  0.00  0.00    +0.017 C 
BRANCH  15  19
ATOM     16  C   LIG    1       29.694 -18.677   8.941  0.00  0.00    +0.105 C 
ATOM     17  N   LIG    1       29.856 -19.902   8.163  0.00  0.00    -0.305 NA
ATOM     18  C   LIG    1       28.628 -20.711   8.135  0.00  0.00    +0.087 C 
ATOM     19  C   LIG    1       27.519 -20.154   7.215  0.00  0.00    +0.004 C 
ATOM     20  C   LIG    1       28.083 -19.969   5.800  0.00  0.00    +0.006 C 
ATOM     21  C   LIG    1       29.326 -19.085   5.841  0.00  0.00    +0.016 C 
ATOM     22  C   LIG    1       30.368 -19.644   6.812  0.00  0.00    +0.084 C 
ENDBRANCH  15  19
ENDBRANCH   1  15
TORSDOF 2
ENDMDL
MODEL 2
REMARK VINA RESULT:      -8.2      2.189      5.680
REMARK  Name = *****
REMARK                            x       y       z     vdW  Elec       q    Type
REMARK                         _______ _______ _______ _____ _____    ______ ____
ROOT
ATOM      1  C   LIG    1       26.323 -21.064   7.442  0.00  0.00    +0.051 C 
ATOM      2  C   LIG    1       25.170 -20.612   6.557  0.00  0.00    -0.026 A 
ATOM      3  C   LIG    1       25.384 -20.242   5.218  0.00  0.00    +0.017 A 
ATOM      4  C   LIG    1       24.295 -19.881   4.413  0.00  0.00    +0.015 A 
ATOM      5  C   LIG    1       23.001 -19.870   4.933  0.00  0.00    +0.001 A 
ATOM      6  C   LIG    1       22.785 -20.213   6.263  0.00  0.00    +0.000 A 
ATOM      7  S   LIG    1       27.024 -20.177   4.518  0.00  0.00    -0.089 S 
ATOM      8  C   LIG    1       27.976 -19.783   5.977  0.00  0.00    +0.017 A 
ATOM      9  C   LIG    1       29.154 -19.044   5.827  0.00  0.00    +0.015 A 
ATOM     10  C   LIG    1       29.907 -18.681   6.944  0.00  0.00    +0.001 A 
ATOM     11  C   LIG    1       29.485 -19.055   8.218  0.00  0.00    +0.000 A 
ATOM     12  C   LIG    1       28.322 -19.808   8.377  0.00  0.00    +0.005 A 
ATOM     13  C   LIG    1       23.861 -20.577   7.072  0.00  0.00    +0.005 A 
ATOM     14  C   LIG    1       27.556 -20.185   7.260  0.00  0.00    -0.026 A 
ENDROOT
BRANCH   1  15
ATOM     15  C   LIG    1       26.722 -22.550   7.221  0.00  0.00    +0.017 C 
BRANCH  15  19
ATOM     16  C   LIG    1       25.199 -25.602   4.286  0.00  0.00    +0.105 C 
ATOM     17  N   LIG    1       25.292 -25.818   5.728  0.00  0.00    -0.305 NA
ATOM     18  C   LIG    1       26.222 -24.879   6.372  0.00  0.00    +0.087 C 
ATOM     19  C   LIG    1       25.675 -23.442   6.521  0.00  0.00    +0.004 C 
ATOM     20  C   LIG    1       24.338 -23.486   7.272  0.00  0.00    +0.006 C 
ATOM     21  C   LIG    1       23.368 -24.424   6.560  0.00  0.00    +0.016 C 
ATOM     22  C   LIG    1       23.978 -25.815   6.381  0.00  0.00    +0.084 C 
ENDBRANCH  15  19
ENDBRANCH   1  15
TORSDOF 2
ENDMDL
MODEL 3
REMARK VINA RESULT:      -7.9      2.480      5.378
REMARK  Name = *****
REMARK                            x       y       z     vdW  Elec       q    Type
REMARK                         _______ _______ _______ _____ _____    ______ ____
ROOT
ATOM      1  C   LIG    1       24.604 -21.846   5.941  0.00  0.00    +0.051 C 
ATOM      2  C   LIG    1       23.808 -20.741   5.264  0.00  0.00    -0.026 A 
ATOM      3  C   LIG    1       24.439 -19.781   4.454  0.00  0.00    +0.017 A 
ATOM      4  C   LIG    1       23.672 -18.807   3.801  0.00  0.00    +0.015 A 
ATOM      5  C   LIG    1       22.287 -18.771   3.959  0.00  0.00    +0.001 A 
ATOM      6  C   LIG    1       21.658 -19.702   4.777  0.00  0.00    +0.000 A 
ATOM      7  S   LIG    1       26.213 -19.741   4.265  0.00  0.00    -0.089 S 
ATOM      8  C   LIG    1       26.715 -20.413   5.842  0.00  0.00    +0.017 A 
ATOM      9  C   LIG    1       27.939 -20.005   6.383  0.00  0.00    +0.015 A 
ATOM     10  C   LIG    1       28.351 -20.474   7.631  0.00  0.00    +0.001 A 
ATOM     11  C   LIG    1       27.540 -21.354   8.345  0.00  0.00    +0.000 A 
ATOM     12  C   LIG    1       26.326 -21.780   7.806  0.00  0.00    +0.005 A 
ATOM     13  C   LIG    1       22.412 -20.678   5.429  0.00  0.00    +0.005 A 
ATOM     14  C   LIG    1       25.901 -21.320   6.548  0.00  0.00    -0.026 A 
ENDROOT
BRANCH   1  15
ATOM     15  C   LIG    1       24.932 -23.036   4.996  0.00  0.00    +0.017 C 
BRANCH  15  19
ATOM     16  C   LIG    1       24.005 -27.423   5.374  0.00  0.00    +0.105 C 
ATOM     17  N   LIG    1       25.332 -26.881   5.091  0.00  0.00    -0.305 NA
ATOM     18  C   LIG    1       25.271 -25.506   4.574  0.00  0.00    +0.087 C 
ATOM     19  C   LIG    1       24.953 -24.437   5.643  0.00  0.00    +0.004 C 
ATOM     20  C   LIG    1       25.971 -24.546   6.786  0.00  0.00    +0.006 C 
ATOM     21  C   LIG    1       25.982 -25.966   7.344  0.00  0.00    +0.016 C 
ATOM     22  C   LIG    1       26.239 -26.991   6.239  0.00  0.00    +0.084 C 
ENDBRANCH  15  19
ENDBRANCH   1  15
TORSDOF 2
ENDMDL
MODEL 4
REMARK VINA RESULT:      -7.2      2.441      5.881
REMARK  Name = *****
REMARK                            x       y       z     vdW  Elec       q    Type
REMARK                         _______ _______ _______ _____ _____    ______ ____
ROOT
ATOM      1  C   LIG    1       26.516 -22.236   6.310  0.00  0.00    +0.051 C 
ATOM      2  C   LIG    1       27.515 -21.304   6.981  0.00  0.00    -0.026 A 
ATOM      3  C   LIG    1       27.137 -20.489   8.062  0.00  0.00    +0.017 A 
ATOM      4  C   LIG    1       28.092 -19.682   8.694  0.00  0.00    +0.015 A 
ATOM      5  C   LIG    1       29.414 -19.667   8.249  0.00  0.00    +0.001 A 
ATOM      6  C   LIG    1       29.790 -20.452   7.165  0.00  0.00    +0.000 A 
ATOM      7  S   LIG    1       25.447 -20.422   8.634  0.00  0.00    -0.089 S 
ATOM      8  C   LIG    1       24.584 -20.771   7.109  0.00  0.00    +0.017 A 
ATOM      9  C   LIG    1       23.308 -20.226   6.924  0.00  0.00    +0.015 A 
ATOM     10  C   LIG    1       22.615 -20.441   5.733  0.00  0.00    +0.001 A 
ATOM     11  C   LIG    1       23.194 -21.201   4.719  0.00  0.00    +0.000 A 
ATOM     12  C   LIG    1       24.458 -21.763   4.901  0.00  0.00    +0.005 A 
ATOM     13  C   LIG    1       28.848 -21.262   6.532  0.00  0.00    +0.005 A 
ATOM     14  C   LIG    1       25.165 -21.560   6.099  0.00  0.00    -0.026 A 
ENDROOT
BRANCH   1  15
ATOM     15  C   LIG    1       26.302 -23.567   7.082  0.00  0.00    +0.017 C 
BRANCH  15  19
ATOM     16  C   LIG    1       26.472 -27.352   4.653  0.00  0.00    +0.105 C 
ATOM     17  N   LIG    1       25.936 -27.265   6.010  0.00  0.00    -0.305 NA
ATOM     18  C   LIG    1       26.411 -26.068   6.719  0.00  0.00    +0.087 C 
ATOM     19  C   LIG    1       25.744 -24.750   6.263  0.00  0.00    +0.004 C 
ATOM     20  C   LIG    1       24.221 -24.887   6.384  0.00  0.00    +0.006 C 
ATOM     21  C   LIG    1       23.740 -26.104   5.598  0.00  0.00    +0.016 C 
ATOM     22  C   LIG    1       24.473 -27.371   6.042  0.00  0.00    +0.084 C 
ENDBRANCH  15  19
ENDBRANCH   1  15
TORSDOF 2
ENDMDL
