MODEL 1
REMARK VINA RESULT:      -4.4      0.000      0.000
REMARK  Name = *****
REMARK                            x       y       z     vdW  Elec       q    Type
REMARK                         _______ _______ _______ _____ _____    ______ ____
ROOT
ATOM      1  C   LIG    1       25.811 -20.074   4.051  0.00  0.00    +0.171 C 
ATOM      2  C   LIG    1       24.678 -20.856   4.683  0.00  0.00    +0.180 C 
ATOM      3  O   LIG    1       24.506 -20.571   6.082  0.00  0.00    -0.369 OA
ATOM      4  C   LIG    1       23.103 -20.402   6.343  0.00  0.00    +0.194 C 
ATOM      5  C   LIG    1       22.364 -20.374   5.008  0.00  0.00    +0.171 C 
ATOM      6  C   LIG    1       23.467 -20.283   3.975  0.00  0.00    +0.180 C 
ATOM      7  O   LIG    1       23.776 -18.910   3.653  0.00  0.00    -0.369 OA
ATOM      8  C   LIG    1       25.181 -18.701   3.877  0.00  0.00    +0.194 C 
ENDROOT
BRANCH   1   9
ATOM      9  O   LIG    1       27.010 -20.068   4.810  0.00  0.00    -0.387 OA
ATOM     10  H   LIG    1       27.296 -19.151   4.920  0.00  0.00    +0.210 HD
ENDBRANCH   1   9
BRANCH   5  11
ATOM     11  O   LIG    1       21.601 -21.572   4.822  0.00  0.00    -0.387 OA
ATOM     12  H   LIG    1       21.560 -22.050   5.668  0.00  0.00    +0.210 HD
ENDBRANCH   5  11
TORSDOF 2
ENDMDL
MODEL 2
REMARK VINA RESULT:      -4.3      6.142      7.670
REMARK  Name = *****
REMARK                            x       y       z     vdW  Elec       q    Type
REMARK                         _______ _______ _______ _____ _____    ______ ____
ROOT
ATOM      1  C   LIG    1       24.269 -12.905   2.653  0.00  0.00    +0.171 C 
ATOM      2  C   LIG    1       25.577 -13.665   2.552  0.00  0.00    +0.180 C 
ATOM      3  O   LIG    1       26.732 -12.809   2.586  0.00  0.00    -0.369 OA
ATOM      4  C   LIG    1       27.703 -13.390   3.471  0.00  0.00    +0.194 C 
ATOM      5  C   LIG    1       27.054 -14.567   4.195  0.00  0.00    +0.171 C 
ATOM      6  C   LIG    1       25.585 -14.449   3.849  0.00  0.00    +0.180 C 
ATOM      7  O   LIG    1       24.874 -13.659   4.826  0.00  0.00    -0.369 OA
ATOM      8  C   LIG    1       24.211 -12.585   4.139  0.00  0.00    +0.194 C 
ENDROOT
BRANCH   1   9
ATOM      9  O   LIG    1       24.192 -11.765   1.812  0.00  0.00    -0.387 OA
ATOM     10  H   LIG    1       25.087 -11.534   1.529  0.00  0.00    +0.210 HD
ENDBRANCH   1   9
BRANCH   5  11
ATOM     11  O   LIG    1       27.583 -15.811   3.722  0.00  0.00    -0.387 OA
ATOM     12  H   LIG    1       28.416 -15.994   4.190  0.00  0.00    +0.210 HD
ENDBRANCH   5  11
TORSDOF 2
ENDMDL
MODEL 3
REMARK VINA RESULT:      -4.2      5.828      6.743
REMARK  Name = *****
REMARK                            x       y       z     vdW  Elec       q    Type
REMARK                         _______ _______ _______ _____ _____    ______ ____
ROOT
ATOM      1  C   LIG    1       27.562 -13.855   4.209  0.00  0.00    +0.171 C 
ATOM      2  C   LIG    1       26.150 -13.929   4.756  0.00  0.00    +0.180 C 
ATOM      3  O   LIG    1       25.494 -12.650   4.800  0.00  0.00    -0.369 OA
ATOM      4  C   LIG    1       24.158 -12.807   4.295  0.00  0.00    +0.194 C 
ATOM      5  C   LIG    1       24.024 -14.210   3.709  0.00  0.00    +0.171 C 
ATOM      6  C   LIG    1       25.443 -14.739   3.688  0.00  0.00    +0.180 C 
ATOM      7  O   LIG    1       26.095 -14.447   2.433  0.00  0.00    -0.369 OA
ATOM      8  C   LIG    1       27.310 -13.731   2.715  0.00  0.00    +0.194 C 
ENDROOT
BRANCH   1   9
ATOM      9  O   LIG    1       28.342 -12.802   4.753  0.00  0.00    -0.387 OA
ATOM     10  H   LIG    1       28.155 -12.742   5.700  0.00  0.00    +0.210 HD
ENDBRANCH   1   9
BRANCH   5  11
ATOM     11  O   LIG    1       23.195 -15.032   4.538  0.00  0.00    -0.387 OA
ATOM     12  H   LIG    1       22.480 -14.484   4.906  0.00  0.00    +0.210 HD
ENDBRANCH   5  11
TORSDOF 2
ENDMDL
MODEL 4
REMARK VINA RESULT:      -4.0      5.480      7.523
REMARK  Name = *****
REMARK                            x       y       z     vdW  Elec       q    Type
REMARK                         _______ _______ _______ _____ _____    ______ ____
ROOT
ATOM      1  C   LIG    1       24.674 -14.354   3.477  0.00  0.00    +0.171 C 
ATOM      2  C   LIG    1       25.799 -13.381   3.767  0.00  0.00    +0.180 C 
ATOM      3  O   LIG    1       26.206 -13.382   5.146  0.00  0.00    -0.369 OA
ATOM      4  C   LIG    1       27.642 -13.391   5.197  0.00  0.00    +0.194 C 
ATOM      5  C   LIG    1       28.174 -13.614   3.784  0.00  0.00    +0.171 C 
ATOM      6  C   LIG    1       26.945 -13.983   2.980  0.00  0.00    +0.180 C 
ATOM      7  O   LIG    1       26.739 -15.412   2.958  0.00  0.00    -0.369 OA
ATOM      8  C   LIG    1       25.413 -15.682   3.444  0.00  0.00    +0.194 C 
ENDROOT
BRANCH   1   9
ATOM      9  O   LIG    1       23.609 -14.308   4.414  0.00  0.00    -0.387 OA
ATOM     10  H   LIG    1       23.009 -15.043   4.229  0.00  0.00    +0.210 HD
ENDBRANCH   1   9
BRANCH   5  11
ATOM     11  O   LIG    1       28.770 -12.418   3.268  0.00  0.00    -0.387 OA
ATOM     12  H   LIG    1       29.712 -12.409   3.511  0.00  0.00    +0.210 HD
ENDBRANCH   5  11
TORSDOF 2
ENDMDL
MODEL 5
REMARK VINA RESULT:      -3.9      5.662      6.701
REMARK  Name = *****
REMARK                            x       y       z     vdW  Elec       q    Type
REMARK                         _______ _______ _______ _____ _____    ______ ____
ROOT
ATOM      1  C   LIG    1       27.434 -14.605   3.891  0.00  0.00    +0.171 C 
ATOM      2  C   LIG    1       26.079 -14.453   3.229  0.00  0.00    +0.180 C 
ATOM      3  O   LIG    1       25.077 -15.320   3.786  0.00  0.00    -0.369 OA
ATOM      4  C   LIG    1       23.872 -14.560   3.976  0.00  0.00    +0.194 C 
ATOM      5  C   LIG    1       24.184 -13.089   3.718  0.00  0.00    +0.171 C 
ATOM      6  C   LIG    1       25.694 -13.041   3.623  0.00  0.00    +0.180 C 
ATOM      7  O   LIG    1       26.297 -12.781   4.909  0.00  0.00    -0.369 OA
ATOM      8  C   LIG    1       27.233 -13.836   5.187  0.00  0.00    +0.194 C 
ENDROOT
BRANCH   1   9
ATOM      9  O   LIG    1       27.845 -15.951   4.075  0.00  0.00    -0.387 OA
ATOM     10  H   LIG    1       28.360 -16.003   4.891  0.00  0.00    +0.210 HD
ENDBRANCH   1   9
BRANCH   5  11
ATOM     11  O   LIG    1       23.590 -12.648   2.492  0.00  0.00    -0.387 OA
ATOM     12  H   LIG    1       22.640 -12.858   2.513  0.00  0.00    +0.210 HD
ENDBRANCH   5  11
TORSDOF 2
ENDMDL
MODEL 6
REMARK VINA RESULT:      -3.9      5.812      7.064
REMARK  Name = *****
REMARK                            x       y       z     vdW  Elec       q    Type
REMARK                         _______ _______ _______ _____ _____    ______ ____
ROOT
ATOM      1  C   LIG    1       28.067 -12.933   3.794  0.00  0.00    +0.171 C 
ATOM      2  C   LIG    1       26.813 -13.477   3.138  0.00  0.00    +0.180 C 
ATOM      3  O   LIG    1       26.862 -14.897   2.916  0.00  0.00    -0.369 OA
ATOM      4  C   LIG    1       25.604 -15.463   3.318  0.00  0.00    +0.194 C 
ATOM      5  C   LIG    1       24.789 -14.381   4.021  0.00  0.00    +0.171 C 
ATOM      6  C   LIG    1       25.771 -13.245   4.213  0.00  0.00    +0.180 C 
ATOM      7  O   LIG    1       26.446 -13.341   5.486  0.00  0.00    -0.369 OA
ATOM      8  C   LIG    1       27.863 -13.347   5.243  0.00  0.00    +0.194 C 
ENDROOT
BRANCH   1   9
ATOM      9  O   LIG    1       29.276 -13.406   3.221  0.00  0.00    -0.387 OA
ATOM     10  H   LIG    1       29.983 -13.299   3.871  0.00  0.00    +0.210 HD
ENDBRANCH   1   9
BRANCH   5  11
ATOM     11  O   LIG    1       23.689 -13.961   3.206  0.00  0.00    -0.387 OA
ATOM     12  H   LIG    1       23.583 -14.593   2.475  0.00  0.00    +0.210 HD
ENDBRANCH   5  11
TORSDOF 2
ENDMDL
MODEL 7
REMARK VINA RESULT:      -3.9      5.924      7.358
REMARK  Name = *****
REMARK                            x       y       z     vdW  Elec       q    Type
REMARK                         _______ _______ _______ _____ _____    ______ ____
ROOT
ATOM      1  C   LIG    1       27.714 -14.062   3.963  0.00  0.00    +0.171 C 
ATOM      2  C   LIG    1       26.613 -13.032   3.807  0.00  0.00    +0.180 C 
ATOM      3  O   LIG    1       26.434 -12.597   2.448  0.00  0.00    -0.369 OA
ATOM      4  C   LIG    1       25.027 -12.571   2.160  0.00  0.00    +0.194 C 
ATOM      5  C   LIG    1       24.283 -13.215   3.327  0.00  0.00    +0.171 C 
ATOM      6  C   LIG    1       25.379 -13.834   4.168  0.00  0.00    +0.180 C 
ATOM      7  O   LIG    1       25.634 -15.201   3.780  0.00  0.00    -0.369 OA
ATOM      8  C   LIG    1       27.030 -15.324   3.461  0.00  0.00    +0.194 C 
ENDROOT
BRANCH   1   9
ATOM      9  O   LIG    1       28.913 -13.741   3.277  0.00  0.00    -0.387 OA
ATOM     10  H   LIG    1       29.568 -14.425   3.473  0.00  0.00    +0.210 HD
ENDBRANCH   1   9
BRANCH   5  11
ATOM     11  O   LIG    1       23.566 -12.232   4.081  0.00  0.00    -0.387 OA
ATOM     12  H   LIG    1       23.012 -11.714   3.472  0.00  0.00    +0.210 HD
ENDBRANCH   5  11
TORSDOF 2
ENDMDL
MODEL 8
REMARK VINA RESULT:      -3.9      1.703      2.614
REMARK  Name = *****
REMARK                            x       y       z     vdW  Elec       q    Type
REMARK                         _______ _______ _______ _____ _____    ______ ____
ROOT
ATOM      1  C   LIG    1       26.784 -20.271   6.015  0.00  0.00    +0.171 C 
ATOM      2  C   LIG    1       25.482 -20.015   5.283  0.00  0.00    +0.180 C 
ATOM      3  O   LIG    1       25.324 -20.831   4.109  0.00  0.00    -0.369 OA
ATOM      4  C   LIG    1       23.985 -21.352   4.093  0.00  0.00    +0.194 C 
ATOM      5  C   LIG    1       23.321 -21.018   5.426  0.00  0.00    +0.171 C 
ATOM      6  C   LIG    1       24.456 -20.502   6.286  0.00  0.00    +0.180 C 
ATOM      7  O   LIG    1       25.074 -21.568   7.039  0.00  0.00    -0.369 OA
ATOM      8  C   LIG    1       26.480 -21.571   6.742  0.00  0.00    +0.194 C 
ENDROOT
BRANCH   1   9
ATOM      9  O   LIG    1       27.924 -20.331   5.173  0.00  0.00    -0.387 OA
ATOM     10  H   LIG    1       27.712 -19.886   4.341  0.00  0.00    +0.210 HD
ENDBRANCH   1   9
BRANCH   5  11
ATOM     11  O   LIG    1       22.320 -20.009   5.259  0.00  0.00    -0.387 OA
ATOM     12  H   LIG    1       22.759 -19.162   5.066  0.00  0.00    +0.210 HD
ENDBRANCH   5  11
TORSDOF 2
ENDMDL
MODEL 9
REMARK VINA RESULT:      -3.8      0.895      3.769
REMARK  Name = *****
REMARK                            x       y       z     vdW  Elec       q    Type
REMARK                         _______ _______ _______ _____ _____    ______ ____
ROOT
ATOM      1  C   LIG    1       22.945 -21.567   5.491  0.00  0.00    +0.171 C 
ATOM      2  C   LIG    1       24.160 -21.183   4.671  0.00  0.00    +0.180 C 
ATOM      3  O   LIG    1       23.990 -19.950   3.952  0.00  0.00    -0.369 OA
ATOM      4  C   LIG    1       25.182 -19.163   4.110  0.00  0.00    +0.194 C 
ATOM      5  C   LIG    1       26.073 -19.838   5.148  0.00  0.00    +0.171 C 
ATOM      6  C   LIG    1       25.192 -20.915   5.748  0.00  0.00    +0.180 C 
ATOM      7  O   LIG    1       24.480 -20.428   6.906  0.00  0.00    -0.369 OA
ATOM      8  C   LIG    1       23.075 -20.642   6.691  0.00  0.00    +0.194 C 
ENDROOT
BRANCH   1   9
ATOM      9  O   LIG    1       21.713 -21.446   4.798  0.00  0.00    -0.387 OA
ATOM     10  H   LIG    1       21.228 -22.277   4.891  0.00  0.00    +0.210 HD
ENDBRANCH   1   9
BRANCH   5  11
ATOM     11  O   LIG    1       27.226 -20.421   4.530  0.00  0.00    -0.387 OA
ATOM     12  H   LIG    1       27.554 -19.812   3.847  0.00  0.00    +0.210 HD
ENDBRANCH   5  11
TORSDOF 2
ENDMDL
