MODEL 1
REMARK VINA RESULT:      -6.1      0.000      0.000
REMARK  Name = *****
REMARK                            x       y       z     vdW  Elec       q    Type
REMARK                         _______ _______ _______ _____ _____    ______ ____
ROOT
ATOM      1  C   LIG    1       23.341 -19.860   4.524  0.00  0.00    +0.240 C 
ATOM      2  S   LIG    1       22.123 -20.775   5.215  0.00  0.00    +0.007 S 
ENDROOT
BRANCH   1   3
ATOM      3  N   LIG    1       24.670 -20.229   4.195  0.00  0.00    -0.268 N 
ATOM      4  C   LIG    1       24.974 -20.427   2.770  0.00  0.00    +0.139 C 
BRANCH   3   8
ATOM      5  C   LIG    1       29.238 -18.936   5.832  0.00  0.00    +0.044 C 
ATOM      6  C   LIG    1       28.007 -19.780   5.978  0.00  0.00    -0.049 A 
ATOM      7  C   LIG    1       26.935 -19.637   5.071  0.00  0.00    +0.027 A 
ATOM      8  C   LIG    1       25.773 -20.440   5.127  0.00  0.00    +0.037 A 
ATOM      9  C   LIG    1       25.745 -21.386   6.160  0.00  0.00    +0.023 A 
ATOM     10  C   LIG    1       26.804 -21.549   7.062  0.00  0.00    +0.002 A 
ATOM     11  C   LIG    1       27.934 -20.751   6.972  0.00  0.00    +0.003 A 
ENDBRANCH   3   8
ENDBRANCH   1   3
BRANCH   1  12
ATOM     12  O   LIG    1       23.023 -18.537   4.097  0.00  0.00    -0.435 OA
BRANCH  12  13
ATOM     13  C   LIG    1       23.664 -17.246   4.040  0.00  0.00    +0.131 A 
ATOM     14  C   LIG    1       24.968 -17.035   3.610  0.00  0.00    +0.055 A 
ATOM     15  C   LIG    1       25.521 -15.742   3.637  0.00  0.00    -0.014 A 
ATOM     16  C   LIG    1       24.715 -14.646   4.054  0.00  0.00    -0.018 A 
ATOM     17  C   LIG    1       25.277 -13.360   4.097  0.00  0.00    +0.008 A 
ATOM     18  C   LIG    1       26.613 -13.147   3.756  0.00  0.00    +0.001 A 
ATOM     19  C   LIG    1       27.405 -14.219   3.350  0.00  0.00    +0.001 A 
ATOM     20  C   LIG    1       23.384 -14.882   4.421  0.00  0.00    +0.012 A 
ATOM     21  C   LIG    1       26.857 -15.501   3.283  0.00  0.00    +0.008 A 
ATOM     22  C   LIG    1       22.855 -16.175   4.423  0.00  0.00    +0.047 A 
ENDBRANCH  12  13
ENDBRANCH   1  12
TORSDOF 4
ENDMDL
MODEL 2
REMARK VINA RESULT:      -4.8      2.374      3.745
REMARK  Name = *****
REMARK                            x       y       z     vdW  Elec       q    Type
REMARK                         _______ _______ _______ _____ _____    ______ ____
ROOT
ATOM      1  C   LIG    1       28.050 -19.518   5.707  0.00  0.00    +0.240 C 
ATOM      2  S   LIG    1       29.472 -18.959   6.388  0.00  0.00    +0.007 S 
ENDROOT
BRANCH   1   3
ATOM      3  N   LIG    1       27.137 -20.488   6.194  0.00  0.00    -0.268 N 
ATOM      4  C   LIG    1       27.684 -21.541   7.062  0.00  0.00    +0.139 C 
BRANCH   3   8
ATOM      5  C   LIG    1       23.394 -20.742   2.856  0.00  0.00    +0.044 C 
ATOM      6  C   LIG    1       23.850 -20.728   4.286  0.00  0.00    -0.049 A 
ATOM      7  C   LIG    1       25.223 -20.623   4.594  0.00  0.00    +0.027 A 
ATOM      8  C   LIG    1       25.706 -20.554   5.920  0.00  0.00    +0.037 A 
ATOM      9  C   LIG    1       24.727 -20.614   6.920  0.00  0.00    +0.023 A 
ATOM     10  C   LIG    1       23.359 -20.707   6.632  0.00  0.00    +0.002 A 
ATOM     11  C   LIG    1       22.919 -20.763   5.319  0.00  0.00    +0.003 A 
ENDBRANCH   3   8
ENDBRANCH   1   3
BRANCH   1  12
ATOM     12  O   LIG    1       27.593 -18.897   4.507  0.00  0.00    -0.435 OA
BRANCH  12  13
ATOM     13  C   LIG    1       27.093 -17.610   4.090  0.00  0.00    +0.131 A 
ATOM     14  C   LIG    1       27.848 -16.443   4.069  0.00  0.00    +0.055 A 
ATOM     15  C   LIG    1       27.257 -15.224   3.692  0.00  0.00    -0.014 A 
ATOM     16  C   LIG    1       25.896 -15.207   3.278  0.00  0.00    -0.018 A 
ATOM     17  C   LIG    1       25.304 -13.986   2.919  0.00  0.00    +0.008 A 
ATOM     18  C   LIG    1       26.024 -12.792   2.982  0.00  0.00    +0.001 A 
ATOM     19  C   LIG    1       27.357 -12.806   3.390  0.00  0.00    +0.001 A 
ATOM     20  C   LIG    1       25.179 -16.410   3.249  0.00  0.00    +0.012 A 
ATOM     21  C   LIG    1       27.967 -14.014   3.730  0.00  0.00    +0.008 A 
ATOM     22  C   LIG    1       25.766 -17.609   3.658  0.00  0.00    +0.047 A 
ENDBRANCH  12  13
ENDBRANCH   1  12
TORSDOF 4
ENDMDL
MODEL 3
REMARK VINA RESULT:      -4.6      3.039      7.179
REMARK  Name = *****
REMARK                            x       y       z     vdW  Elec       q    Type
REMARK                         _______ _______ _______ _____ _____    ______ ____
ROOT
ATOM      1  C   LIG    1       27.263 -15.818   3.846  0.00  0.00    +0.240 C 
ATOM      2  S   LIG    1       28.465 -16.760   4.530  0.00  0.00    +0.007 S 
ENDROOT
BRANCH   1   3
ATOM      3  N   LIG    1       27.233 -14.419   3.619  0.00  0.00    -0.268 N 
ATOM      4  C   LIG    1       28.523 -13.712   3.645  0.00  0.00    +0.139 C 
BRANCH   3   8
ATOM      5  C   LIG    1       23.592 -11.448   5.387  0.00  0.00    +0.044 C 
ATOM      6  C   LIG    1       24.277 -12.093   4.219  0.00  0.00    -0.049 A 
ATOM      7  C   LIG    1       25.398 -12.926   4.424  0.00  0.00    +0.027 A 
ATOM      8  C   LIG    1       26.052 -13.601   3.368  0.00  0.00    +0.037 A 
ATOM      9  C   LIG    1       25.523 -13.376   2.091  0.00  0.00    +0.023 A 
ATOM     10  C   LIG    1       24.404 -12.561   1.871  0.00  0.00    +0.002 A 
ATOM     11  C   LIG    1       23.781 -11.922   2.931  0.00  0.00    +0.003 A 
ENDBRANCH   3   8
ENDBRANCH   1   3
BRANCH   1  12
ATOM     12  O   LIG    1       26.119 -16.480   3.310  0.00  0.00    -0.435 OA
BRANCH  12  13
ATOM     13  C   LIG    1       25.334 -17.658   3.587  0.00  0.00    +0.131 A 
ATOM     14  C   LIG    1       23.953 -17.664   3.736  0.00  0.00    +0.055 A 
ATOM     15  C   LIG    1       23.280 -18.857   4.054  0.00  0.00    -0.014 A 
ATOM     16  C   LIG    1       24.020 -20.068   4.165  0.00  0.00    -0.018 A 
ATOM     17  C   LIG    1       23.348 -21.253   4.501  0.00  0.00    +0.008 A 
ATOM     18  C   LIG    1       21.974 -21.257   4.744  0.00  0.00    +0.001 A 
ATOM     19  C   LIG    1       21.247 -20.072   4.638  0.00  0.00    +0.001 A 
ATOM     20  C   LIG    1       25.404 -20.040   3.947  0.00  0.00    +0.012 A 
ATOM     21  C   LIG    1       21.897 -18.888   4.286  0.00  0.00    +0.008 A 
ATOM     22  C   LIG    1       26.066 -18.844   3.665  0.00  0.00    +0.047 A 
ENDBRANCH  12  13
ENDBRANCH   1  12
TORSDOF 4
ENDMDL
MODEL 4
REMARK VINA RESULT:      -4.2      1.142      2.101
REMARK  Name = *****
REMARK                            x       y       z     vdW  Elec       q    Type
REMARK                         _______ _______ _______ _____ _____    ______ ____
ROOT
ATOM      1  C   LIG    1       24.271 -19.862   3.866  0.00  0.00    +0.240 C 
ATOM      2  S   LIG    1       23.136 -20.625   2.902  0.00  0.00    +0.007 S 
ENDROOT
BRANCH   1   3
ATOM      3  N   LIG    1       24.653 -20.141   5.202  0.00  0.00    -0.268 N 
ATOM      4  C   LIG    1       23.578 -20.208   6.203  0.00  0.00    +0.139 C 
BRANCH   3   8
ATOM      5  C   LIG    1       29.470 -18.730   5.361  0.00  0.00    +0.044 C 
ATOM      6  C   LIG    1       28.380 -19.653   5.820  0.00  0.00    -0.049 A 
ATOM      7  C   LIG    1       27.064 -19.496   5.336  0.00  0.00    +0.027 A 
ATOM      8  C   LIG    1       26.009 -20.365   5.693  0.00  0.00    +0.037 A 
ATOM      9  C   LIG    1       26.351 -21.394   6.580  0.00  0.00    +0.023 A 
ATOM     10  C   LIG    1       27.655 -21.571   7.062  0.00  0.00    +0.002 A 
ATOM     11  C   LIG    1       28.668 -20.705   6.683  0.00  0.00    +0.003 A 
ENDBRANCH   3   8
ENDBRANCH   1   3
BRANCH   1  12
ATOM     12  O   LIG    1       25.065 -18.835   3.276  0.00  0.00    -0.435 OA
BRANCH  12  13
ATOM     13  C   LIG    1       25.338 -17.435   3.491  0.00  0.00    +0.131 A 
ATOM     14  C   LIG    1       24.362 -16.466   3.687  0.00  0.00    +0.055 A 
ATOM     15  C   LIG    1       24.726 -15.116   3.840  0.00  0.00    -0.014 A 
ATOM     16  C   LIG    1       26.103 -14.761   3.850  0.00  0.00    -0.018 A 
ATOM     17  C   LIG    1       26.462 -13.410   3.985  0.00  0.00    +0.008 A 
ATOM     18  C   LIG    1       25.489 -12.415   4.090  0.00  0.00    +0.001 A 
ATOM     19  C   LIG    1       24.139 -12.760   4.078  0.00  0.00    +0.001 A 
ATOM     20  C   LIG    1       27.066 -15.769   3.714  0.00  0.00    +0.012 A 
ATOM     21  C   LIG    1       23.765 -14.100   3.965  0.00  0.00    +0.008 A 
ATOM     22  C   LIG    1       26.693 -17.102   3.529  0.00  0.00    +0.047 A 
ENDBRANCH  12  13
ENDBRANCH   1  12
TORSDOF 4
ENDMDL
MODEL 5
REMARK VINA RESULT:      -3.5      2.282      3.885
REMARK  Name = *****
REMARK                            x       y       z     vdW  Elec       q    Type
REMARK                         _______ _______ _______ _____ _____    ______ ____
ROOT
ATOM      1  C   LIG    1       27.899 -19.102   5.243  0.00  0.00    +0.240 C 
ATOM      2  S   LIG    1       29.475 -18.620   5.533  0.00  0.00    +0.007 S 
ENDROOT
BRANCH   1   3
ATOM      3  N   LIG    1       27.131 -20.107   5.884  0.00  0.00    -0.268 N 
ATOM      4  C   LIG    1       27.872 -21.174   6.573  0.00  0.00    +0.139 C 
BRANCH   3   8
ATOM      5  C   LIG    1       22.698 -19.386   3.639  0.00  0.00    +0.044 C 
ATOM      6  C   LIG    1       23.482 -19.894   4.812  0.00  0.00    -0.049 A 
ATOM      7  C   LIG    1       24.889 -19.785   4.828  0.00  0.00    +0.027 A 
ATOM      8  C   LIG    1       25.676 -20.199   5.927  0.00  0.00    +0.037 A 
ATOM      9  C   LIG    1       24.965 -20.743   7.005  0.00  0.00    +0.023 A 
ATOM     10  C   LIG    1       23.568 -20.847   7.011  0.00  0.00    +0.002 A 
ATOM     11  C   LIG    1       22.826 -20.423   5.920  0.00  0.00    +0.003 A 
ENDBRANCH   3   8
ENDBRANCH   1   3
BRANCH   1  12
ATOM     12  O   LIG    1       27.140 -18.365   4.287  0.00  0.00    -0.435 OA
BRANCH  12  13
ATOM     13  C   LIG    1       26.779 -16.992   4.033  0.00  0.00    +0.131 A 
ATOM     14  C   LIG    1       25.473 -16.535   3.904  0.00  0.00    +0.055 A 
ATOM     15  C   LIG    1       25.223 -15.183   3.608  0.00  0.00    -0.014 A 
ATOM     16  C   LIG    1       26.315 -14.278   3.500  0.00  0.00    -0.018 A 
ATOM     17  C   LIG    1       26.062 -12.933   3.187  0.00  0.00    +0.008 A 
ATOM     18  C   LIG    1       24.762 -12.479   2.963  0.00  0.00    +0.001 A 
ATOM     19  C   LIG    1       23.691 -13.364   3.066  0.00  0.00    +0.001 A 
ATOM     20  C   LIG    1       27.617 -14.757   3.698  0.00  0.00    +0.012 A 
ATOM     21  C   LIG    1       23.922 -14.701   3.396  0.00  0.00    +0.008 A 
ATOM     22  C   LIG    1       27.856 -16.108   3.958  0.00  0.00    +0.047 A 
ENDBRANCH  12  13
ENDBRANCH   1  12
TORSDOF 4
ENDMDL
