MODEL 1
REMARK VINA RESULT:      -8.5      0.000      0.000
REMARK  Name = *****
REMARK                            x       y       z     vdW  Elec       q    Type
REMARK                         _______ _______ _______ _____ _____    ______ ____
ROOT
ATOM      1  C   LIG    1       27.329 -20.934   6.635  0.00  0.00    +0.144 C 
ENDROOT
BRANCH   1   2
ATOM      2  C   LIG    1       28.670 -20.317   7.001  0.00  0.00    -0.019 A 
ATOM      3  C   LIG    1       29.087 -19.133   6.370  0.00  0.00    +0.008 A 
ATOM      4  C   LIG    1       30.277 -18.496   6.746  0.00  0.00    +0.025 A 
ATOM      5  C   LIG    1       31.061 -19.030   7.764  0.00  0.00    +0.048 A 
ATOM      6  C   LIG    1       30.694 -20.235   8.361  0.00  0.00    +0.025 A 
ATOM      7  C   LIG    1       29.509 -20.878   7.978  0.00  0.00    +0.008 A 
BRANCH   5   8
ATOM      8  N   LIG    1       32.237 -18.340   8.212  0.00  0.00    -0.221 N 
ATOM      9  H   LIG    1       33.027 -18.933   8.426  0.00  0.00    +0.173 HD
BRANCH   8  10
ATOM     10  S   LIG    1       32.075 -17.197   9.444  0.00  0.00    +0.040 S 
ATOM     11  O   LIG    1       32.494 -15.928   8.858  0.00  0.00    -0.155 OA
ATOM     12  O   LIG    1       32.686 -17.696  10.647  0.00  0.00    -0.155 OA
ATOM     13  C   LIG    1       30.311 -17.150   9.669  0.00  0.00    +0.218 C 
ENDBRANCH   8  10
ENDBRANCH   5   8
ENDBRANCH   1   2
BRANCH   1  14
ATOM     14  O   LIG    1       26.887 -20.439   5.367  0.00  0.00    -0.387 OA
ATOM     15  H   LIG    1       26.457 -19.581   5.529  0.00  0.00    +0.210 HD
ENDBRANCH   1  14
BRANCH   1  16
ATOM     16  C   LIG    1       26.235 -20.698   7.688  0.00  0.00    +0.037 C 
BRANCH  16  17
ATOM     17  C   LIG    1       25.826 -21.996   8.412  0.00  0.00    +0.018 C 
BRANCH  17  18
ATOM     18  C   LIG    1       26.167 -23.223   7.549  0.00  0.00    +0.084 C 
BRANCH  18  19
ATOM     19  N   LIG    1       25.050 -23.914   6.885  0.00  0.00    -0.303 NA
BRANCH  19  20
ATOM     20  C   LIG    1       25.417 -25.186   6.230  0.00  0.00    +0.081 C 
ATOM     21  C   LIG    1       24.266 -26.181   6.028  0.00  0.00    +0.020 C 
ENDBRANCH  19  20
BRANCH  19  22
ATOM     22  C   LIG    1       24.286 -23.061   5.948  0.00  0.00    +0.084 C 
BRANCH  22  23
ATOM     23  C   LIG    1       23.025 -22.374   6.510  0.00  0.00    +0.015 C 
BRANCH  23  24
ATOM     24  C   LIG    1       22.932 -20.861   6.278  0.00  0.00    +0.001 C 
BRANCH  24  25
ATOM     25  C   LIG    1       22.238 -20.419   4.986  0.00  0.00    +0.000 C 
BRANCH  25  26
ATOM     26  C   LIG    1       22.563 -18.993   4.532  0.00  0.00    -0.000 C 
BRANCH  26  28
ATOM     27  C   LIG    1       24.332 -20.205   3.133  0.00  0.00    +0.004 C 
ATOM     28  C   LIG    1       23.911 -18.905   3.803  0.00  0.00    -0.003 C 
ENDBRANCH  26  28
ENDBRANCH  25  26
ENDBRANCH  24  25
ENDBRANCH  23  24
ENDBRANCH  22  23
ENDBRANCH  19  22
ENDBRANCH  18  19
ENDBRANCH  17  18
ENDBRANCH  16  17
ENDBRANCH   1  16
TORSDOF 15
ENDMDL
MODEL 2
REMARK VINA RESULT:      -8.4      1.346      3.919
REMARK  Name = *****
REMARK                            x       y       z     vdW  Elec       q    Type
REMARK                         _______ _______ _______ _____ _____    ______ ____
ROOT
ATOM      1  C   LIG    1       27.404 -21.393   6.510  0.00  0.00    +0.144 C 
ENDROOT
BRANCH   1   2
ATOM      2  C   LIG    1       28.620 -20.586   6.939  0.00  0.00    -0.019 A 
ATOM      3  C   LIG    1       28.886 -19.349   6.328  0.00  0.00    +0.008 A 
ATOM      4  C   LIG    1       29.949 -18.545   6.759  0.00  0.00    +0.025 A 
ATOM      5  C   LIG    1       30.757 -18.964   7.813  0.00  0.00    +0.048 A 
ATOM      6  C   LIG    1       30.546 -20.215   8.391  0.00  0.00    +0.025 A 
ATOM      7  C   LIG    1       29.488 -21.024   7.953  0.00  0.00    +0.008 A 
BRANCH   5   8
ATOM      8  N   LIG    1       31.796 -18.112   8.315  0.00  0.00    -0.221 N 
ATOM      9  H   LIG    1       32.706 -18.544   8.391  0.00  0.00    +0.173 HD
BRANCH   8  10
ATOM     10  S   LIG    1       31.499 -17.233   9.726  0.00  0.00    +0.040 S 
ATOM     11  O   LIG    1       31.993 -18.065  10.817  0.00  0.00    -0.155 OA
ATOM     12  O   LIG    1       30.143 -16.751   9.715  0.00  0.00    -0.155 OA
ATOM     13  C   LIG    1       32.603 -15.851   9.535  0.00  0.00    +0.218 C 
ENDBRANCH   8  10
ENDBRANCH   5   8
ENDBRANCH   1   2
BRANCH   1  14
ATOM     14  O   LIG    1       26.682 -20.694   5.491  0.00  0.00    -0.387 OA
ATOM     15  H   LIG    1       25.913 -21.243   5.257  0.00  0.00    +0.210 HD
ENDBRANCH   1  14
BRANCH   1  16
ATOM     16  C   LIG    1       26.454 -21.735   7.669  0.00  0.00    +0.037 C 
BRANCH  16  17
ATOM     17  C   LIG    1       25.531 -20.558   8.041  0.00  0.00    +0.018 C 
BRANCH  17  18
ATOM     18  C   LIG    1       24.078 -20.869   7.645  0.00  0.00    +0.084 C 
BRANCH  18  19
ATOM     19  N   LIG    1       23.868 -21.810   6.532  0.00  0.00    -0.303 NA
BRANCH  19  20
ATOM     20  C   LIG    1       23.470 -21.175   5.258  0.00  0.00    +0.081 C 
ATOM     21  C   LIG    1       22.655 -19.881   5.391  0.00  0.00    +0.020 C 
ENDBRANCH  19  20
BRANCH  19  22
ATOM     22  C   LIG    1       22.951 -22.926   6.852  0.00  0.00    +0.084 C 
BRANCH  22  23
ATOM     23  C   LIG    1       23.495 -24.351   6.629  0.00  0.00    +0.015 C 
BRANCH  23  24
ATOM     24  C   LIG    1       24.809 -24.447   5.843  0.00  0.00    +0.001 C 
BRANCH  24  25
ATOM     25  C   LIG    1       25.973 -25.136   6.559  0.00  0.00    +0.000 C 
BRANCH  25  26
ATOM     26  C   LIG    1       26.278 -26.558   6.079  0.00  0.00    -0.000 C 
BRANCH  26  28
ATOM     27  C   LIG    1       24.421 -28.246   5.569  0.00  0.00    +0.004 C 
ATOM     28  C   LIG    1       25.286 -27.588   6.635  0.00  0.00    -0.003 C 
ENDBRANCH  26  28
ENDBRANCH  25  26
ENDBRANCH  24  25
ENDBRANCH  23  24
ENDBRANCH  22  23
ENDBRANCH  19  22
ENDBRANCH  18  19
ENDBRANCH  17  18
ENDBRANCH  16  17
ENDBRANCH   1  16
TORSDOF 15
ENDMDL
MODEL 3
REMARK VINA RESULT:      -7.8      4.779      8.566
REMARK  Name = *****
REMARK                            x       y       z     vdW  Elec       q    Type
REMARK                         _______ _______ _______ _____ _____    ______ ____
ROOT
ATOM      1  C   LIG    1       24.994 -23.745   6.309  0.00  0.00    +0.144 C 
ENDROOT
BRANCH   1   2
ATOM      2  C   LIG    1       25.064 -25.263   6.379  0.00  0.00    -0.019 A 
ATOM      3  C   LIG    1       24.190 -26.037   5.597  0.00  0.00    +0.008 A 
ATOM      4  C   LIG    1       24.286 -27.434   5.577  0.00  0.00    +0.025 A 
ATOM      5  C   LIG    1       25.263 -28.076   6.333  0.00  0.00    +0.048 A 
ATOM      6  C   LIG    1       26.099 -27.329   7.161  0.00  0.00    +0.025 A 
ATOM      7  C   LIG    1       25.997 -25.931   7.189  0.00  0.00    +0.008 A 
BRANCH   5   8
ATOM      8  N   LIG    1       25.422 -29.500   6.255  0.00  0.00    -0.221 N 
ATOM      9  H   LIG    1       25.522 -29.870   5.320  0.00  0.00    +0.173 HD
BRANCH   8  10
ATOM     10  S   LIG    1       24.338 -30.475   7.105  0.00  0.00    +0.040 S 
ATOM     11  O   LIG    1       23.490 -31.094   6.092  0.00  0.00    -0.155 OA
ATOM     12  O   LIG    1       23.768 -29.725   8.193  0.00  0.00    -0.155 OA
ATOM     13  C   LIG    1       25.414 -31.726   7.769  0.00  0.00    +0.218 C 
ENDBRANCH   8  10
ENDBRANCH   5   8
ENDBRANCH   1   2
BRANCH   1  14
ATOM     14  O   LIG    1       24.883 -23.318   4.948  0.00  0.00    -0.387 OA
ATOM     15  H   LIG    1       25.558 -22.630   4.807  0.00  0.00    +0.210 HD
ENDBRANCH   1  14
BRANCH   1  16
ATOM     16  C   LIG    1       26.190 -23.043   6.972  0.00  0.00    +0.037 C 
BRANCH  16  17
ATOM     17  C   LIG    1       25.753 -21.951   7.968  0.00  0.00    +0.018 C 
BRANCH  17  18
ATOM     18  C   LIG    1       26.477 -20.628   7.667  0.00  0.00    +0.084 C 
BRANCH  18  19
ATOM     19  N   LIG    1       27.507 -20.647   6.615  0.00  0.00    -0.303 NA
BRANCH  19  20
ATOM     20  C   LIG    1       28.874 -20.349   7.089  0.00  0.00    +0.081 C 
ATOM     21  C   LIG    1       29.529 -19.103   6.476  0.00  0.00    +0.020 C 
ENDBRANCH  19  20
BRANCH  19  22
ATOM     22  C   LIG    1       27.182 -19.809   5.440  0.00  0.00    +0.084 C 
BRANCH  22  23
ATOM     23  C   LIG    1       25.862 -20.126   4.710  0.00  0.00    +0.015 C 
BRANCH  23  24
ATOM     24  C   LIG    1       25.299 -19.001   3.833  0.00  0.00    +0.001 C 
BRANCH  24  25
ATOM     25  C   LIG    1       23.860 -19.184   3.342  0.00  0.00    +0.000 C 
BRANCH  25  26
ATOM     26  C   LIG    1       22.782 -18.998   4.414  0.00  0.00    -0.000 C 
BRANCH  26  28
ATOM     27  C   LIG    1       22.929 -20.601   6.404  0.00  0.00    +0.004 C 
ATOM     28  C   LIG    1       22.334 -20.330   5.030  0.00  0.00    -0.003 C 
ENDBRANCH  26  28
ENDBRANCH  25  26
ENDBRANCH  24  25
ENDBRANCH  23  24
ENDBRANCH  22  23
ENDBRANCH  19  22
ENDBRANCH  18  19
ENDBRANCH  17  18
ENDBRANCH  16  17
ENDBRANCH   1  16
TORSDOF 15
ENDMDL
MODEL 4
REMARK VINA RESULT:      -7.5      4.715      9.448
REMARK  Name = *****
REMARK                            x       y       z     vdW  Elec       q    Type
REMARK                         _______ _______ _______ _____ _____    ______ ____
ROOT
ATOM      1  C   LIG    1       24.890 -22.949   6.223  0.00  0.00    +0.144 C 
ENDROOT
BRANCH   1   2
ATOM      2  C   LIG    1       25.261 -24.402   5.969  0.00  0.00    -0.019 A 
ATOM      3  C   LIG    1       25.796 -25.176   7.013  0.00  0.00    +0.008 A 
ATOM      4  C   LIG    1       26.069 -26.539   6.834  0.00  0.00    +0.025 A 
ATOM      5  C   LIG    1       25.803 -27.147   5.610  0.00  0.00    +0.048 A 
ATOM      6  C   LIG    1       25.330 -26.382   4.545  0.00  0.00    +0.025 A 
ATOM      7  C   LIG    1       25.065 -25.017   4.721  0.00  0.00    +0.008 A 
BRANCH   5   8
ATOM      8  N   LIG    1       26.002 -28.558   5.443  0.00  0.00    -0.221 N 
ATOM      9  H   LIG    1       26.091 -28.868   4.485  0.00  0.00    +0.173 HD
BRANCH   8  10
ATOM     10  S   LIG    1       24.966 -29.615   6.256  0.00  0.00    +0.040 S 
ATOM     11  O   LIG    1       23.618 -29.212   5.874  0.00  0.00    -0.155 OA
ATOM     12  O   LIG    1       25.353 -29.697   7.639  0.00  0.00    -0.155 OA
ATOM     13  C   LIG    1       25.330 -31.165   5.463  0.00  0.00    +0.218 C 
ENDBRANCH   8  10
ENDBRANCH   5   8
ENDBRANCH   1   2
BRANCH   1  14
ATOM     14  O   LIG    1       25.279 -22.138   5.110  0.00  0.00    -0.387 OA
ATOM     15  H   LIG    1       25.819 -22.697   4.524  0.00  0.00    +0.210 HD
ENDBRANCH   1  14
BRANCH   1  16
ATOM     16  C   LIG    1       25.496 -22.376   7.514  0.00  0.00    +0.037 C 
BRANCH  16  17
ATOM     17  C   LIG    1       26.281 -21.072   7.267  0.00  0.00    +0.018 C 
BRANCH  17  18
ATOM     18  C   LIG    1       27.677 -21.156   7.906  0.00  0.00    +0.084 C 
BRANCH  18  19
ATOM     19  N   LIG    1       28.692 -20.198   7.438  0.00  0.00    -0.303 NA
BRANCH  19  20
ATOM     20  C   LIG    1       28.615 -19.877   5.998  0.00  0.00    +0.081 C 
ATOM     21  C   LIG    1       29.198 -18.516   5.593  0.00  0.00    +0.020 C 
ENDBRANCH  19  20
BRANCH  19  22
ATOM     22  C   LIG    1       30.078 -20.563   7.804  0.00  0.00    +0.084 C 
BRANCH  22  23
ATOM     23  C   LIG    1       30.743 -19.723   8.912  0.00  0.00    +0.015 C 
BRANCH  23  24
ATOM     24  C   LIG    1       31.563 -18.518   8.433  0.00  0.00    +0.001 C 
BRANCH  24  25
ATOM     25  C   LIG    1       31.243 -17.177   9.098  0.00  0.00    +0.000 C 
BRANCH  25  26
ATOM     26  C   LIG    1       30.480 -17.277  10.423  0.00  0.00    -0.000 C 
BRANCH  26  28
ATOM     27  C   LIG    1       32.626 -16.196  11.306  0.00  0.00    +0.004 C 
ATOM     28  C   LIG    1       31.378 -17.002  11.636  0.00  0.00    -0.003 C 
ENDBRANCH  26  28
ENDBRANCH  25  26
ENDBRANCH  24  25
ENDBRANCH  23  24
ENDBRANCH  22  23
ENDBRANCH  19  22
ENDBRANCH  18  19
ENDBRANCH  17  18
ENDBRANCH  16  17
ENDBRANCH   1  16
TORSDOF 15
ENDMDL
MODEL 5
REMARK VINA RESULT:      -7.5      1.709      4.620
REMARK  Name = *****
REMARK                            x       y       z     vdW  Elec       q    Type
REMARK                         _______ _______ _______ _____ _____    ______ ____
ROOT
ATOM      1  C   LIG    1       26.808 -21.183   6.503  0.00  0.00    +0.144 C 
ENDROOT
BRANCH   1   2
ATOM      2  C   LIG    1       28.179 -20.587   6.784  0.00  0.00    -0.019 A 
ATOM      3  C   LIG    1       28.629 -19.489   6.031  0.00  0.00    +0.008 A 
ATOM      4  C   LIG    1       29.849 -18.866   6.322  0.00  0.00    +0.025 A 
ATOM      5  C   LIG    1       30.633 -19.327   7.377  0.00  0.00    +0.048 A 
ATOM      6  C   LIG    1       30.232 -20.451   8.096  0.00  0.00    +0.025 A 
ATOM      7  C   LIG    1       29.016 -21.082   7.799  0.00  0.00    +0.008 A 
BRANCH   5   8
ATOM      8  N   LIG    1       31.843 -18.644   7.734  0.00  0.00    -0.221 N 
ATOM      9  H   LIG    1       32.667 -19.226   7.778  0.00  0.00    +0.173 HD
BRANCH   8  10
ATOM     10  S   LIG    1       31.824 -17.637   9.090  0.00  0.00    +0.040 S 
ATOM     11  O   LIG    1       32.491 -16.408   8.674  0.00  0.00    -0.155 OA
ATOM     12  O   LIG    1       32.273 -18.372  10.242  0.00  0.00    -0.155 OA
ATOM     13  C   LIG    1       30.087 -17.295   9.266  0.00  0.00    +0.218 C 
ENDBRANCH   8  10
ENDBRANCH   5   8
ENDBRANCH   1   2
BRANCH   1  14
ATOM     14  O   LIG    1       26.050 -20.305   5.666  0.00  0.00    -0.387 OA
ATOM     15  H   LIG    1       25.121 -20.370   5.950  0.00  0.00    +0.210 HD
ENDBRANCH   1  14
BRANCH   1  16
ATOM     16  C   LIG    1       26.005 -21.504   7.773  0.00  0.00    +0.037 C 
BRANCH  16  17
ATOM     17  C   LIG    1       25.764 -23.017   7.950  0.00  0.00    +0.018 C 
BRANCH  17  18
ATOM     18  C   LIG    1       25.750 -23.721   6.583  0.00  0.00    +0.084 C 
BRANCH  18  19
ATOM     19  N   LIG    1       24.437 -23.993   5.976  0.00  0.00    -0.303 NA
BRANCH  19  20
ATOM     20  C   LIG    1       23.283 -23.555   6.789  0.00  0.00    +0.081 C 
ATOM     21  C   LIG    1       22.650 -22.220   6.373  0.00  0.00    +0.020 C 
ENDBRANCH  19  20
BRANCH  19  22
ATOM     22  C   LIG    1       24.252 -25.395   5.544  0.00  0.00    +0.084 C 
BRANCH  22  23
ATOM     23  C   LIG    1       25.408 -26.030   4.746  0.00  0.00    +0.015 C 
BRANCH  23  24
ATOM     24  C   LIG    1       25.931 -27.369   5.281  0.00  0.00    +0.001 C 
BRANCH  24  25
ATOM     25  C   LIG    1       25.112 -28.012   6.404  0.00  0.00    +0.000 C 
BRANCH  25  26
ATOM     26  C   LIG    1       24.078 -29.043   5.941  0.00  0.00    -0.000 C 
BRANCH  26  28
ATOM     27  C   LIG    1       25.716 -30.993   5.684  0.00  0.00    +0.004 C 
ATOM     28  C   LIG    1       24.452 -30.472   6.355  0.00  0.00    -0.003 C 
ENDBRANCH  26  28
ENDBRANCH  25  26
ENDBRANCH  24  25
ENDBRANCH  23  24
ENDBRANCH  22  23
ENDBRANCH  19  22
ENDBRANCH  18  19
ENDBRANCH  17  18
ENDBRANCH  16  17
ENDBRANCH   1  16
TORSDOF 15
ENDMDL
MODEL 6
REMARK VINA RESULT:      -7.4      4.776      8.999
REMARK  Name = *****
REMARK                            x       y       z     vdW  Elec       q    Type
REMARK                         _______ _______ _______ _____ _____    ______ ____
ROOT
ATOM      1  C   LIG    1       25.074 -23.938   6.104  0.00  0.00    +0.144 C 
ENDROOT
BRANCH   1   2
ATOM      2  C   LIG    1       25.161 -25.432   5.832  0.00  0.00    -0.019 A 
ATOM      3  C   LIG    1       26.397 -26.007   5.491  0.00  0.00    +0.008 A 
ATOM      4  C   LIG    1       26.526 -27.391   5.317  0.00  0.00    +0.025 A 
ATOM      5  C   LIG    1       25.421 -28.221   5.491  0.00  0.00    +0.048 A 
ATOM      6  C   LIG    1       24.174 -27.663   5.770  0.00  0.00    +0.025 A 
ATOM      7  C   LIG    1       24.043 -26.277   5.934  0.00  0.00    +0.008 A 
BRANCH   5   8
ATOM      8  N   LIG    1       25.561 -29.646   5.396  0.00  0.00    -0.221 N 
ATOM      9  H   LIG    1       25.215 -30.055   4.540  0.00  0.00    +0.173 HD
BRANCH   8  10
ATOM     10  S   LIG    1       25.035 -30.590   6.693  0.00  0.00    +0.040 S 
ATOM     11  O   LIG    1       23.650 -30.934   6.391  0.00  0.00    -0.155 OA
ATOM     12  O   LIG    1       25.386 -29.945   7.931  0.00  0.00    -0.155 OA
ATOM     13  C   LIG    1       26.026 -32.055   6.505  0.00  0.00    +0.218 C 
ENDBRANCH   8  10
ENDBRANCH   5   8
ENDBRANCH   1   2
BRANCH   1  14
ATOM     14  O   LIG    1       26.320 -23.456   6.618  0.00  0.00    -0.387 OA
ATOM     15  H   LIG    1       26.897 -23.285   5.853  0.00  0.00    +0.210 HD
ENDBRANCH   1  14
BRANCH   1  16
ATOM     16  C   LIG    1       23.938 -23.553   7.065  0.00  0.00    +0.037 C 
BRANCH  16  17
ATOM     17  C   LIG    1       22.921 -22.592   6.419  0.00  0.00    +0.018 C 
BRANCH  17  18
ATOM     18  C   LIG    1       23.270 -21.134   6.758  0.00  0.00    +0.084 C 
BRANCH  18  19
ATOM     19  N   LIG    1       23.518 -20.219   5.631  0.00  0.00    -0.303 NA
BRANCH  19  20
ATOM     20  C   LIG    1       22.302 -19.788   4.911  0.00  0.00    +0.081 C 
ATOM     21  C   LIG    1       22.251 -18.303   4.529  0.00  0.00    +0.020 C 
ENDBRANCH  19  20
BRANCH  19  22
ATOM     22  C   LIG    1       24.531 -20.708   4.671  0.00  0.00    +0.084 C 
BRANCH  22  23
ATOM     23  C   LIG    1       25.889 -19.978   4.669  0.00  0.00    +0.015 C 
BRANCH  23  24
ATOM     24  C   LIG    1       26.774 -20.215   5.899  0.00  0.00    +0.001 C 
BRANCH  24  25
ATOM     25  C   LIG    1       28.238 -19.789   5.768  0.00  0.00    +0.000 C 
BRANCH  25  26
ATOM     26  C   LIG    1       29.148 -20.239   6.915  0.00  0.00    -0.000 C 
BRANCH  26  28
ATOM     27  C   LIG    1       31.335 -19.049   7.512  0.00  0.00    +0.004 C 
ATOM     28  C   LIG    1       29.818 -19.056   7.628  0.00  0.00    -0.003 C 
ENDBRANCH  26  28
ENDBRANCH  25  26
ENDBRANCH  24  25
ENDBRANCH  23  24
ENDBRANCH  22  23
ENDBRANCH  19  22
ENDBRANCH  18  19
ENDBRANCH  17  18
ENDBRANCH  16  17
ENDBRANCH   1  16
TORSDOF 15
ENDMDL
MODEL 7
REMARK VINA RESULT:      -7.3      5.149      9.152
REMARK  Name = *****
REMARK                            x       y       z     vdW  Elec       q    Type
REMARK                         _______ _______ _______ _____ _____    ______ ____
ROOT
ATOM      1  C   LIG    1       24.205 -25.064   5.643  0.00  0.00    +0.144 C 
ENDROOT
BRANCH   1   2
ATOM      2  C   LIG    1       24.644 -26.454   6.077  0.00  0.00    -0.019 A 
ATOM      3  C   LIG    1       25.589 -26.594   7.108  0.00  0.00    +0.008 A 
ATOM      4  C   LIG    1       25.951 -27.860   7.587  0.00  0.00    +0.025 A 
ATOM      5  C   LIG    1       25.366 -29.003   7.047  0.00  0.00    +0.048 A 
ATOM      6  C   LIG    1       24.473 -28.886   5.984  0.00  0.00    +0.025 A 
ATOM      7  C   LIG    1       24.118 -27.620   5.497  0.00  0.00    +0.008 A 
BRANCH   5   8
ATOM      8  N   LIG    1       25.669 -30.298   7.587  0.00  0.00    -0.221 N 
ATOM      9  H   LIG    1       25.792 -31.030   6.902  0.00  0.00    +0.173 HD
BRANCH   8  10
ATOM     10  S   LIG    1       24.702 -30.889   8.838  0.00  0.00    +0.040 S 
ATOM     11  O   LIG    1       24.787 -32.342   8.745  0.00  0.00    -0.155 OA
ATOM     12  O   LIG    1       23.429 -30.217   8.821  0.00  0.00    -0.155 OA
ATOM     13  C   LIG    1       25.609 -30.369  10.278  0.00  0.00    +0.218 C 
ENDBRANCH   8  10
ENDBRANCH   5   8
ENDBRANCH   1   2
BRANCH   1  14
ATOM     14  O   LIG    1       25.079 -24.565   4.626  0.00  0.00    -0.387 OA
ATOM     15  H   LIG    1       25.774 -25.233   4.493  0.00  0.00    +0.210 HD
ENDBRANCH   1  14
BRANCH   1  16
ATOM     16  C   LIG    1       24.132 -24.053   6.799  0.00  0.00    +0.037 C 
BRANCH  16  17
ATOM     17  C   LIG    1       22.891 -23.144   6.706  0.00  0.00    +0.018 C 
BRANCH  17  18
ATOM     18  C   LIG    1       23.150 -21.807   7.422  0.00  0.00    +0.084 C 
BRANCH  18  19
ATOM     19  N   LIG    1       23.617 -20.680   6.597  0.00  0.00    -0.303 NA
BRANCH  19  20
ATOM     20  C   LIG    1       22.992 -20.596   5.261  0.00  0.00    +0.081 C 
ATOM     21  C   LIG    1       22.422 -19.223   4.883  0.00  0.00    +0.020 C 
ENDBRANCH  19  20
BRANCH  19  22
ATOM     22  C   LIG    1       25.089 -20.591   6.478  0.00  0.00    +0.084 C 
BRANCH  22  23
ATOM     23  C   LIG    1       25.890 -20.597   7.795  0.00  0.00    +0.015 C 
BRANCH  23  24
ATOM     24  C   LIG    1       27.255 -21.293   7.740  0.00  0.00    +0.001 C 
BRANCH  24  25
ATOM     25  C   LIG    1       28.476 -20.376   7.627  0.00  0.00    +0.000 C 
BRANCH  25  26
ATOM     26  C   LIG    1       28.701 -19.767   6.240  0.00  0.00    -0.000 C 
BRANCH  26  28
ATOM     27  C   LIG    1       31.044 -19.230   7.121  0.00  0.00    +0.004 C 
ATOM     28  C   LIG    1       29.900 -18.809   6.209  0.00  0.00    -0.003 C 
ENDBRANCH  26  28
ENDBRANCH  25  26
ENDBRANCH  24  25
ENDBRANCH  23  24
ENDBRANCH  22  23
ENDBRANCH  19  22
ENDBRANCH  18  19
ENDBRANCH  17  18
ENDBRANCH  16  17
ENDBRANCH   1  16
TORSDOF 15
ENDMDL
MODEL 8
REMARK VINA RESULT:      -7.2      5.654      9.348
REMARK  Name = *****
REMARK                            x       y       z     vdW  Elec       q    Type
REMARK                         _______ _______ _______ _____ _____    ______ ____
ROOT
ATOM      1  C   LIG    1       24.728 -26.757   5.269  0.00  0.00    +0.144 C 
ENDROOT
BRANCH   1   2
ATOM      2  C   LIG    1       24.820 -27.996   6.147  0.00  0.00    -0.019 A 
ATOM      3  C   LIG    1       25.504 -27.932   7.372  0.00  0.00    +0.008 A 
ATOM      4  C   LIG    1       25.534 -29.032   8.240  0.00  0.00    +0.025 A 
ATOM      5  C   LIG    1       24.874 -30.208   7.897  0.00  0.00    +0.048 A 
ATOM      6  C   LIG    1       24.242 -30.311   6.658  0.00  0.00    +0.025 A 
ATOM      7  C   LIG    1       24.219 -29.214   5.786  0.00  0.00    +0.008 A 
BRANCH   5   8
ATOM      8  N   LIG    1       24.830 -31.310   8.814  0.00  0.00    -0.221 N 
ATOM      9  H   LIG    1       24.906 -32.225   8.391  0.00  0.00    +0.173 HD
BRANCH   8  10
ATOM     10  S   LIG    1       23.590 -31.350   9.959  0.00  0.00    +0.040 S 
ATOM     11  O   LIG    1       23.368 -32.762  10.248  0.00  0.00    -0.155 OA
ATOM     12  O   LIG    1       22.510 -30.502   9.528  0.00  0.00    -0.155 OA
ATOM     13  C   LIG    1       24.375 -30.610  11.374  0.00  0.00    +0.218 C 
ENDBRANCH   8  10
ENDBRANCH   5   8
ENDBRANCH   1   2
BRANCH   1  14
ATOM     14  O   LIG    1       25.972 -26.532   4.599  0.00  0.00    -0.387 OA
ATOM     15  H   LIG    1       25.846 -26.791   3.669  0.00  0.00    +0.210 HD
ENDBRANCH   1  14
BRANCH   1  16
ATOM     16  C   LIG    1       24.321 -25.489   6.038  0.00  0.00    +0.037 C 
BRANCH  16  17
ATOM     17  C   LIG    1       25.239 -24.291   5.722  0.00  0.00    +0.018 C 
BRANCH  17  18
ATOM     18  C   LIG    1       25.877 -23.749   7.013  0.00  0.00    +0.084 C 
BRANCH  18  19
ATOM     19  N   LIG    1       26.062 -22.292   7.114  0.00  0.00    -0.303 NA
BRANCH  19  20
ATOM     20  C   LIG    1       27.446 -21.869   7.411  0.00  0.00    +0.081 C 
ATOM     21  C   LIG    1       27.642 -20.363   7.636  0.00  0.00    +0.020 C 
ENDBRANCH  19  20
BRANCH  19  22
ATOM     22  C   LIG    1       25.117 -21.629   8.039  0.00  0.00    +0.084 C 
BRANCH  22  23
ATOM     23  C   LIG    1       23.991 -20.796   7.394  0.00  0.00    +0.015 C 
BRANCH  23  24
ATOM     24  C   LIG    1       22.957 -21.589   6.584  0.00  0.00    +0.001 C 
BRANCH  24  25
ATOM     25  C   LIG    1       22.584 -21.010   5.217  0.00  0.00    +0.000 C 
BRANCH  25  26
ATOM     26  C   LIG    1       22.493 -19.482   5.164  0.00  0.00    -0.000 C 
BRANCH  26  28
ATOM     27  C   LIG    1       24.570 -19.630   3.675  0.00  0.00    +0.004 C 
ATOM     28  C   LIG    1       23.277 -18.889   3.986  0.00  0.00    -0.003 C 
ENDBRANCH  26  28
ENDBRANCH  25  26
ENDBRANCH  24  25
ENDBRANCH  23  24
ENDBRANCH  22  23
ENDBRANCH  19  22
ENDBRANCH  18  19
ENDBRANCH  17  18
ENDBRANCH  16  17
ENDBRANCH   1  16
TORSDOF 15
ENDMDL
MODEL 9
REMARK VINA RESULT:      -7.2      5.500      9.132
REMARK  Name = *****
REMARK                            x       y       z     vdW  Elec       q    Type
REMARK                         _______ _______ _______ _____ _____    ______ ____
ROOT
ATOM      1  C   LIG    1       24.572 -26.693   5.282  0.00  0.00    +0.144 C 
ENDROOT
BRANCH   1   2
ATOM      2  C   LIG    1       24.777 -27.887   6.203  0.00  0.00    -0.019 A 
ATOM      3  C   LIG    1       25.614 -27.765   7.325  0.00  0.00    +0.008 A 
ATOM      4  C   LIG    1       25.757 -28.819   8.236  0.00  0.00    +0.025 A 
ATOM      5  C   LIG    1       25.058 -30.008   8.042  0.00  0.00    +0.048 A 
ATOM      6  C   LIG    1       24.270 -30.169   6.903  0.00  0.00    +0.025 A 
ATOM      7  C   LIG    1       24.135 -29.117   5.986  0.00  0.00    +0.008 A 
BRANCH   5   8
ATOM      8  N   LIG    1       25.134 -31.062   9.013  0.00  0.00    -0.221 N 
ATOM      9  H   LIG    1       24.868 -30.800   9.952  0.00  0.00    +0.173 HD
BRANCH   8  10
ATOM     10  S   LIG    1       26.549 -31.979   9.090  0.00  0.00    +0.040 S 
ATOM     11  O   LIG    1       27.384 -31.326  10.092  0.00  0.00    -0.155 OA
ATOM     12  O   LIG    1       27.039 -32.221   7.759  0.00  0.00    -0.155 OA
ATOM     13  C   LIG    1       25.955 -33.511   9.773  0.00  0.00    +0.218 C 
ENDBRANCH   8  10
ENDBRANCH   5   8
ENDBRANCH   1   2
BRANCH   1  14
ATOM     14  O   LIG    1       25.758 -26.446   4.521  0.00  0.00    -0.387 OA
ATOM     15  H   LIG    1       26.257 -27.282   4.491  0.00  0.00    +0.210 HD
ENDBRANCH   1  14
BRANCH   1  16
ATOM     16  C   LIG    1       24.159 -25.410   6.023  0.00  0.00    +0.037 C 
BRANCH  16  17
ATOM     17  C   LIG    1       24.963 -24.180   5.558  0.00  0.00    +0.018 C 
BRANCH  17  18
ATOM     18  C   LIG    1       25.884 -23.683   6.685  0.00  0.00    +0.084 C 
BRANCH  18  19
ATOM     19  N   LIG    1       25.877 -22.240   6.976  0.00  0.00    -0.303 NA
BRANCH  19  20
ATOM     20  C   LIG    1       27.201 -21.676   7.313  0.00  0.00    +0.081 C 
ATOM     21  C   LIG    1       27.188 -20.239   7.853  0.00  0.00    +0.020 C 
ENDBRANCH  19  20
BRANCH  19  22
ATOM     22  C   LIG    1       24.879 -21.836   7.990  0.00  0.00    +0.084 C 
BRANCH  22  23
ATOM     23  C   LIG    1       23.471 -21.485   7.470  0.00  0.00    +0.015 C 
BRANCH  23  24
ATOM     24  C   LIG    1       23.419 -20.463   6.327  0.00  0.00    +0.001 C 
BRANCH  24  25
ATOM     25  C   LIG    1       22.982 -21.001   4.962  0.00  0.00    +0.000 C 
BRANCH  25  26
ATOM     26  C   LIG    1       24.048 -20.925   3.865  0.00  0.00    -0.000 C 
BRANCH  26  28
ATOM     27  C   LIG    1       25.272 -18.700   3.534  0.00  0.00    +0.004 C 
ATOM     28  C   LIG    1       25.234 -20.036   4.263  0.00  0.00    -0.003 C 
ENDBRANCH  26  28
ENDBRANCH  25  26
ENDBRANCH  24  25
ENDBRANCH  23  24
ENDBRANCH  22  23
ENDBRANCH  19  22
ENDBRANCH  18  19
ENDBRANCH  17  18
ENDBRANCH  16  17
ENDBRANCH   1  16
TORSDOF 15
ENDMDL
