MODEL 1
REMARK VINA RESULT:      -4.4      0.000      0.000
REMARK  Name = *****
REMARK                            x       y       z     vdW  Elec       q    Type
REMARK                         _______ _______ _______ _____ _____    ______ ____
ROOT
ATOM      1  C   LIG    1       24.620 -18.714   3.624  0.00  0.00    +0.037 A 
ATOM      2  C   LIG    1       24.470 -17.348   3.799  0.00  0.00    +0.070 A 
ATOM      3  C   LIG    1       25.407 -16.249   3.555  0.00  0.00    +0.256 C 
ATOM      4  N   LIG    1       24.769 -15.094   3.912  0.00  0.00    -0.222 N 
ATOM      5  C   LIG    1       23.503 -15.342   4.363  0.00  0.00    +0.255 C 
ATOM      6  O   LIG    1       22.648 -14.553   4.718  0.00  0.00    -0.270 OA
ATOM      7  O   LIG    1       26.547 -16.390   3.154  0.00  0.00    -0.269 OA
ATOM      8  C   LIG    1       23.311 -16.789   4.309  0.00  0.00    +0.051 A 
ATOM      9  C   LIG    1       22.212 -17.552   4.649  0.00  0.00    +0.014 A 
ATOM     10  C   LIG    1       22.313 -18.929   4.446  0.00  0.00    +0.003 A 
ATOM     11  C   LIG    1       23.494 -19.497   3.922  0.00  0.00    +0.023 A 
ENDROOT
BRANCH   4  12
ATOM     12  C   LIG    1       25.336 -13.755   3.822  0.00  0.00    +0.171 C 
ATOM     13  C   LIG    1       26.260 -13.511   5.014  0.00  0.00    +0.240 C 
ATOM     14  O   LIG    1       25.879 -13.611   6.179  0.00  0.00    -0.273 OA
ATOM     15  N   LIG    1       27.576 -13.238   4.733  0.00  0.00    -0.255 N 
ATOM     16  H   LIG    1       28.172 -13.092   5.536  0.00  0.00    +0.158 HD
ATOM     17  C   LIG    1       28.243 -13.454   3.554  0.00  0.00    +0.219 C 
ATOM     18  O   LIG    1       29.467 -13.361   3.500  0.00  0.00    -0.275 OA
ATOM     19  C   LIG    1       27.417 -13.868   2.360  0.00  0.00    +0.098 C 
ATOM     20  C   LIG    1       25.973 -13.415   2.478  0.00  0.00    +0.042 C 
ENDBRANCH   4  12
BRANCH   1  21
ATOM     21  N   LIG    1       25.717 -19.275   2.967  0.00  0.00    -0.357 N 
ATOM     22  H   LIG    1       26.305 -19.853   3.573  0.00  0.00    +0.142 HD
ATOM     23  H   LIG    1       25.504 -19.730   2.085  0.00  0.00    +0.142 HD
ENDBRANCH   1  21
TORSDOF 2
ENDMDL
MODEL 2
REMARK VINA RESULT:      -4.2      2.354      5.729
REMARK  Name = *****
REMARK                            x       y       z     vdW  Elec       q    Type
REMARK                         _______ _______ _______ _____ _____    ______ ____
ROOT
ATOM      1  C   LIG    1       26.147 -14.589   3.448  0.00  0.00    +0.037 A 
ATOM      2  C   LIG    1       25.379 -15.726   3.637  0.00  0.00    +0.070 A 
ATOM      3  C   LIG    1       25.706 -17.140   3.441  0.00  0.00    +0.256 C 
ATOM      4  N   LIG    1       24.584 -17.857   3.752  0.00  0.00    -0.222 N 
ATOM      5  C   LIG    1       23.559 -17.037   4.136  0.00  0.00    +0.255 C 
ATOM      6  O   LIG    1       22.444 -17.335   4.519  0.00  0.00    -0.270 OA
ATOM      7  O   LIG    1       26.775 -17.550   3.029  0.00  0.00    -0.269 OA
ATOM      8  C   LIG    1       24.058 -15.668   4.048  0.00  0.00    +0.051 A 
ATOM      9  C   LIG    1       23.425 -14.473   4.327  0.00  0.00    +0.014 A 
ATOM     10  C   LIG    1       24.183 -13.310   4.187  0.00  0.00    +0.003 A 
ATOM     11  C   LIG    1       25.531 -13.371   3.772  0.00  0.00    +0.023 A 
ENDROOT
BRANCH   4  12
ATOM     12  C   LIG    1       24.470 -19.308   3.703  0.00  0.00    +0.171 C 
ATOM     13  C   LIG    1       25.372 -19.927   4.770  0.00  0.00    +0.240 C 
ATOM     14  O   LIG    1       26.582 -19.710   4.823  0.00  0.00    -0.273 OA
ATOM     15  N   LIG    1       24.760 -20.695   5.730  0.00  0.00    -0.255 N 
ATOM     16  H   LIG    1       25.373 -21.085   6.433  0.00  0.00    +0.158 HD
ATOM     17  C   LIG    1       23.426 -20.735   6.045  0.00  0.00    +0.219 C 
ATOM     18  O   LIG    1       23.038 -21.306   7.062  0.00  0.00    -0.275 OA
ATOM     19  C   LIG    1       22.478 -19.999   5.129  0.00  0.00    +0.098 C 
ATOM     20  C   LIG    1       23.041 -19.843   3.728  0.00  0.00    +0.042 C 
ENDBRANCH   4  12
BRANCH   1  21
ATOM     21  N   LIG    1       27.518 -14.640   3.188  0.00  0.00    -0.357 N 
ATOM     22  H   LIG    1       27.991 -15.428   3.636  0.00  0.00    +0.142 HD
ATOM     23  H   LIG    1       27.776 -14.537   2.212  0.00  0.00    +0.142 HD
ENDBRANCH   1  21
TORSDOF 2
ENDMDL
MODEL 3
REMARK VINA RESULT:      -3.7      1.158      2.301
REMARK  Name = *****
REMARK                            x       y       z     vdW  Elec       q    Type
REMARK                         _______ _______ _______ _____ _____    ______ ____
ROOT
ATOM      1  C   LIG    1       23.008 -18.376   4.095  0.00  0.00    +0.037 A 
ATOM      2  C   LIG    1       23.969 -17.391   3.938  0.00  0.00    +0.070 A 
ATOM      3  C   LIG    1       23.864 -15.934   4.041  0.00  0.00    +0.256 C 
ATOM      4  N   LIG    1       25.105 -15.424   3.774  0.00  0.00    -0.222 N 
ATOM      5  C   LIG    1       26.006 -16.417   3.509  0.00  0.00    +0.255 C 
ATOM      6  O   LIG    1       27.196 -16.329   3.277  0.00  0.00    -0.270 OA
ATOM      7  O   LIG    1       22.834 -15.330   4.276  0.00  0.00    -0.269 OA
ATOM      8  C   LIG    1       25.279 -17.681   3.597  0.00  0.00    +0.051 A 
ATOM      9  C   LIG    1       25.725 -18.975   3.420  0.00  0.00    +0.014 A 
ATOM     10  C   LIG    1       24.793 -19.996   3.612  0.00  0.00    +0.003 A 
ATOM     11  C   LIG    1       23.459 -19.698   3.964  0.00  0.00    +0.023 A 
ENDROOT
BRANCH   4  12
ATOM     12  C   LIG    1       25.453 -14.010   3.777  0.00  0.00    +0.171 C 
ATOM     13  C   LIG    1       26.300 -13.694   5.010  0.00  0.00    +0.240 C 
ATOM     14  O   LIG    1       25.913 -13.924   6.155  0.00  0.00    -0.273 OA
ATOM     15  N   LIG    1       27.562 -13.201   4.786  0.00  0.00    -0.255 N 
ATOM     16  H   LIG    1       28.109 -13.011   5.615  0.00  0.00    +0.158 HD
ATOM     17  C   LIG    1       28.280 -13.239   3.619  0.00  0.00    +0.219 C 
ATOM     18  O   LIG    1       29.475 -12.951   3.609  0.00  0.00    -0.275 OA
ATOM     19  C   LIG    1       27.558 -13.706   2.379  0.00  0.00    +0.098 C 
ATOM     20  C   LIG    1       26.059 -13.493   2.475  0.00  0.00    +0.042 C 
ENDBRANCH   4  12
BRANCH   1  21
ATOM     21  N   LIG    1       21.730 -18.111   4.591  0.00  0.00    -0.357 N 
ATOM     22  H   LIG    1       21.628 -17.170   4.979  0.00  0.00    +0.142 HD
ATOM     23  H   LIG    1       20.967 -18.358   3.969  0.00  0.00    +0.142 HD
ENDBRANCH   1  21
TORSDOF 2
ENDMDL
MODEL 4
REMARK VINA RESULT:      -3.6      1.898      3.381
REMARK  Name = *****
REMARK                            x       y       z     vdW  Elec       q    Type
REMARK                         _______ _______ _______ _____ _____    ______ ____
ROOT
ATOM      1  C   LIG    1       23.039 -18.587   3.787  0.00  0.00    +0.037 A 
ATOM      2  C   LIG    1       24.101 -17.698   3.799  0.00  0.00    +0.070 A 
ATOM      3  C   LIG    1       24.122 -16.241   3.954  0.00  0.00    +0.256 C 
ATOM      4  N   LIG    1       25.429 -15.849   3.872  0.00  0.00    -0.222 N 
ATOM      5  C   LIG    1       26.260 -16.918   3.680  0.00  0.00    +0.255 C 
ATOM      6  O   LIG    1       27.473 -16.942   3.607  0.00  0.00    -0.270 OA
ATOM      7  O   LIG    1       23.131 -15.546   4.081  0.00  0.00    -0.269 OA
ATOM      8  C   LIG    1       25.411 -18.105   3.617  0.00  0.00    +0.051 A 
ATOM      9  C   LIG    1       25.752 -19.432   3.440  0.00  0.00    +0.014 A 
ATOM     10  C   LIG    1       24.711 -20.360   3.465  0.00  0.00    +0.003 A 
ATOM     11  C   LIG    1       23.375 -19.942   3.656  0.00  0.00    +0.023 A 
ENDROOT
BRANCH   4  12
ATOM     12  C   LIG    1       25.907 -14.478   3.983  0.00  0.00    +0.171 C 
ATOM     13  C   LIG    1       26.200 -13.925   2.589  0.00  0.00    +0.240 C 
ATOM     14  O   LIG    1       26.985 -14.468   1.812  0.00  0.00    -0.273 OA
ATOM     15  N   LIG    1       25.489 -12.816   2.199  0.00  0.00    -0.255 N 
ATOM     16  H   LIG    1       25.689 -12.474   1.269  0.00  0.00    +0.158 HD
ATOM     17  C   LIG    1       24.340 -12.320   2.759  0.00  0.00    +0.219 C 
ATOM     18  O   LIG    1       23.690 -11.447   2.188  0.00  0.00    -0.275 OA
ATOM     19  C   LIG    1       23.885 -12.934   4.061  0.00  0.00    +0.098 C 
ATOM     20  C   LIG    1       25.034 -13.558   4.832  0.00  0.00    +0.042 C 
ENDBRANCH   4  12
BRANCH   1  21
ATOM     21  N   LIG    1       21.737 -18.212   4.126  0.00  0.00    -0.357 N 
ATOM     22  H   LIG    1       21.188 -17.876   3.331  0.00  0.00    +0.142 HD
ATOM     23  H   LIG    1       21.229 -18.883   4.693  0.00  0.00    +0.142 HD
ENDBRANCH   1  21
TORSDOF 2
ENDMDL
MODEL 5
REMARK VINA RESULT:      -3.4      1.784      2.436
REMARK  Name = *****
REMARK                            x       y       z     vdW  Elec       q    Type
REMARK                         _______ _______ _______ _____ _____    ______ ____
ROOT
ATOM      1  C   LIG    1       24.658 -19.531   3.668  0.00  0.00    +0.037 A 
ATOM      2  C   LIG    1       24.568 -18.150   3.738  0.00  0.00    +0.070 A 
ATOM      3  C   LIG    1       25.547 -17.114   3.403  0.00  0.00    +0.256 C 
ATOM      4  N   LIG    1       24.962 -15.909   3.674  0.00  0.00    -0.222 N 
ATOM      5  C   LIG    1       23.691 -16.067   4.152  0.00  0.00    +0.255 C 
ATOM      6  O   LIG    1       22.874 -15.218   4.451  0.00  0.00    -0.270 OA
ATOM      7  O   LIG    1       26.677 -17.334   3.006  0.00  0.00    -0.269 OA
ATOM      8  C   LIG    1       23.439 -17.505   4.210  0.00  0.00    +0.051 A 
ATOM      9  C   LIG    1       22.312 -18.193   4.616  0.00  0.00    +0.014 A 
ATOM     10  C   LIG    1       22.353 -19.583   4.520  0.00  0.00    +0.003 A 
ATOM     11  C   LIG    1       23.505 -20.240   4.033  0.00  0.00    +0.023 A 
ENDROOT
BRANCH   4  12
ATOM     12  C   LIG    1       25.583 -14.606   3.477  0.00  0.00    +0.171 C 
ATOM     13  C   LIG    1       24.516 -13.585   3.086  0.00  0.00    +0.240 C 
ATOM     14  O   LIG    1       23.784 -13.733   2.108  0.00  0.00    -0.273 OA
ATOM     15  N   LIG    1       24.353 -12.508   3.922  0.00  0.00    -0.255 N 
ATOM     16  H   LIG    1       23.634 -11.851   3.651  0.00  0.00    +0.158 HD
ATOM     17  C   LIG    1       24.797 -12.375   5.212  0.00  0.00    +0.219 C 
ATOM     18  O   LIG    1       24.405 -11.449   5.918  0.00  0.00    -0.275 OA
ATOM     19  C   LIG    1       25.727 -13.442   5.736  0.00  0.00    +0.098 C 
ATOM     20  C   LIG    1       26.481 -14.141   4.620  0.00  0.00    +0.042 C 
ENDBRANCH   4  12
BRANCH   1  21
ATOM     21  N   LIG    1       25.724 -20.187   3.049  0.00  0.00    -0.357 N 
ATOM     22  H   LIG    1       25.961 -21.083   3.482  0.00  0.00    +0.142 HD
ATOM     23  H   LIG    1       25.663 -20.249   2.037  0.00  0.00    +0.142 HD
ENDBRANCH   1  21
TORSDOF 2
ENDMDL
MODEL 6
REMARK VINA RESULT:      -3.1      1.232      1.335
REMARK  Name = *****
REMARK                            x       y       z     vdW  Elec       q    Type
REMARK                         _______ _______ _______ _____ _____    ______ ____
ROOT
ATOM      1  C   LIG    1       24.693 -19.581   3.974  0.00  0.00    +0.037 A 
ATOM      2  C   LIG    1       24.481 -18.214   3.896  0.00  0.00    +0.070 A 
ATOM      3  C   LIG    1       25.371 -17.137   3.458  0.00  0.00    +0.256 C 
ATOM      4  N   LIG    1       24.679 -15.966   3.596  0.00  0.00    -0.222 N 
ATOM      5  C   LIG    1       23.420 -16.184   4.082  0.00  0.00    +0.255 C 
ATOM      6  O   LIG    1       22.528 -15.383   4.284  0.00  0.00    -0.270 OA
ATOM      7  O   LIG    1       26.521 -17.296   3.093  0.00  0.00    -0.269 OA
ATOM      8  C   LIG    1       23.293 -17.624   4.292  0.00  0.00    +0.051 A 
ATOM      9  C   LIG    1       22.226 -18.362   4.763  0.00  0.00    +0.014 A 
ATOM     10  C   LIG    1       22.389 -19.746   4.816  0.00  0.00    +0.003 A 
ATOM     11  C   LIG    1       23.600 -20.347   4.407  0.00  0.00    +0.023 A 
ENDROOT
BRANCH   4  12
ATOM     12  C   LIG    1       25.187 -14.642   3.264  0.00  0.00    +0.171 C 
ATOM     13  C   LIG    1       24.925 -13.687   4.429  0.00  0.00    +0.240 C 
ATOM     14  O   LIG    1       23.798 -13.486   4.879  0.00  0.00    -0.273 OA
ATOM     15  N   LIG    1       26.023 -13.104   5.012  0.00  0.00    -0.255 N 
ATOM     16  H   LIG    1       25.828 -12.486   5.788  0.00  0.00    +0.158 HD
ATOM     17  C   LIG    1       27.334 -13.489   4.899  0.00  0.00    +0.219 C 
ATOM     18  O   LIG    1       28.193 -13.012   5.637  0.00  0.00    -0.275 OA
ATOM     19  C   LIG    1       27.655 -14.558   3.883  0.00  0.00    +0.098 C 
ATOM     20  C   LIG    1       26.629 -14.611   2.766  0.00  0.00    +0.042 C 
ENDBRANCH   4  12
BRANCH   1  21
ATOM     21  N   LIG    1       25.821 -20.202   3.434  0.00  0.00    -0.357 N 
ATOM     22  H   LIG    1       25.748 -20.381   2.430  0.00  0.00    +0.142 HD
ATOM     23  H   LIG    1       26.708 -19.781   3.690  0.00  0.00    +0.142 HD
ENDBRANCH   1  21
TORSDOF 2
ENDMDL
MODEL 7
REMARK VINA RESULT:      -2.3      2.359      6.072
REMARK  Name = *****
REMARK                            x       y       z     vdW  Elec       q    Type
REMARK                         _______ _______ _______ _____ _____    ______ ____
ROOT
ATOM      1  C   LIG    1       24.646 -14.333   3.790  0.00  0.00    +0.037 A 
ATOM      2  C   LIG    1       25.193 -15.605   3.737  0.00  0.00    +0.070 A 
ATOM      3  C   LIG    1       24.549 -16.920   3.754  0.00  0.00    +0.256 C 
ATOM      4  N   LIG    1       25.546 -17.854   3.701  0.00  0.00    -0.222 N 
ATOM      5  C   LIG    1       26.779 -17.266   3.647  0.00  0.00    +0.255 C 
ATOM      6  O   LIG    1       27.872 -17.788   3.549  0.00  0.00    -0.270 OA
ATOM      7  O   LIG    1       23.349 -17.100   3.850  0.00  0.00    -0.269 OA
ATOM      8  C   LIG    1       26.559 -15.823   3.686  0.00  0.00    +0.051 A 
ATOM      9  C   LIG    1       27.470 -14.785   3.655  0.00  0.00    +0.014 A 
ATOM     10  C   LIG    1       26.952 -13.490   3.665  0.00  0.00    +0.003 A 
ATOM     11  C   LIG    1       25.558 -13.270   3.711  0.00  0.00    +0.023 A 
ENDROOT
BRANCH   4  12
ATOM     12  C   LIG    1       25.349 -19.297   3.689  0.00  0.00    +0.171 C 
ATOM     13  C   LIG    1       25.915 -19.901   4.973  0.00  0.00    +0.240 C 
ATOM     14  O   LIG    1       27.086 -19.748   5.317  0.00  0.00    -0.273 OA
ATOM     15  N   LIG    1       25.034 -20.576   5.782  0.00  0.00    -0.255 N 
ATOM     16  H   LIG    1       25.427 -20.956   6.632  0.00  0.00    +0.158 HD
ATOM     17  C   LIG    1       23.664 -20.524   5.755  0.00  0.00    +0.219 C 
ATOM     18  O   LIG    1       23.000 -21.011   6.666  0.00  0.00    -0.275 OA
ATOM     19  C   LIG    1       23.024 -19.792   4.600  0.00  0.00    +0.098 C 
ATOM     20  C   LIG    1       23.925 -19.751   3.379  0.00  0.00    +0.042 C 
ENDBRANCH   4  12
BRANCH   1  21
ATOM     21  N   LIG    1       23.275 -14.097   3.681  0.00  0.00    -0.357 N 
ATOM     22  H   LIG    1       23.046 -13.211   3.223  0.00  0.00    +0.142 HD
ATOM     23  H   LIG    1       22.731 -14.873   3.316  0.00  0.00    +0.142 HD
ENDBRANCH   1  21
TORSDOF 2
ENDMDL
MODEL 8
REMARK VINA RESULT:      -2.2      3.990      6.540
REMARK  Name = *****
REMARK                            x       y       z     vdW  Elec       q    Type
REMARK                         _______ _______ _______ _____ _____    ______ ____
ROOT
ATOM      1  C   LIG    1       28.311 -18.159   4.860  0.00  0.00    +0.037 A 
ATOM      2  C   LIG    1       27.270 -19.032   5.127  0.00  0.00    +0.070 A 
ATOM      3  C   LIG    1       25.980 -19.210   4.456  0.00  0.00    +0.256 C 
ATOM      4  N   LIG    1       25.311 -20.194   5.130  0.00  0.00    -0.222 N 
ATOM      5  C   LIG    1       26.049 -20.673   6.176  0.00  0.00    +0.255 C 
ATOM      6  O   LIG    1       25.785 -21.571   6.953  0.00  0.00    -0.270 OA
ATOM      7  O   LIG    1       25.598 -18.549   3.508  0.00  0.00    -0.269 OA
ATOM      8  C   LIG    1       27.301 -19.920   6.189  0.00  0.00    +0.051 A 
ATOM      9  C   LIG    1       28.386 -20.016   7.037  0.00  0.00    +0.014 A 
ATOM     10  C   LIG    1       29.470 -19.179   6.772  0.00  0.00    +0.003 A 
ATOM     11  C   LIG    1       29.439 -18.278   5.685  0.00  0.00    +0.023 A 
ENDROOT
BRANCH   4  12
ATOM     12  C   LIG    1       23.986 -20.696   4.793  0.00  0.00    +0.171 C 
ATOM     13  C   LIG    1       22.959 -20.124   5.769  0.00  0.00    +0.240 C 
ATOM     14  O   LIG    1       23.049 -20.272   6.987  0.00  0.00    -0.273 OA
ATOM     15  N   LIG    1       21.950 -19.364   5.232  0.00  0.00    -0.255 N 
ATOM     16  H   LIG    1       21.288 -18.985   5.897  0.00  0.00    +0.158 HD
ATOM     17  C   LIG    1       21.904 -18.793   3.986  0.00  0.00    +0.219 C 
ATOM     18  O   LIG    1       21.039 -17.965   3.707  0.00  0.00    -0.275 OA
ATOM     19  C   LIG    1       22.989 -19.177   3.010  0.00  0.00    +0.098 C 
ATOM     20  C   LIG    1       23.590 -20.534   3.328  0.00  0.00    +0.042 C 
ENDBRANCH   4  12
BRANCH   1  21
ATOM     21  N   LIG    1       28.360 -17.374   3.706  0.00  0.00    -0.357 N 
ATOM     22  H   LIG    1       29.218 -16.823   3.621  0.00  0.00    +0.142 HD
ATOM     23  H   LIG    1       28.125 -17.859   2.845  0.00  0.00    +0.142 HD
ENDBRANCH   1  21
TORSDOF 2
ENDMDL
