MODEL 1
REMARK VINA RESULT:      -6.3      0.000      0.000
REMARK  Name = *****
REMARK                            x       y       z     vdW  Elec       q    Type
REMARK                         _______ _______ _______ _____ _____    ______ ____
ROOT
ATOM      1  C   LIG    1       29.599 -18.118   7.309  0.00  0.00    +0.015 C 
ATOM      2  C   LIG    1       29.760 -19.319   8.257  0.00  0.00    +0.009 C 
ATOM      3  C   LIG    1       31.103 -19.254   9.058  0.00  0.00    +0.132 C 
ATOM      4  C   LIG    1       31.340 -20.694   9.523  0.00  0.00    +0.043 C 
ATOM      5  C   LIG    1       30.611 -21.584   8.509  0.00  0.00    +0.007 C 
ATOM      6  C   LIG    1       29.954 -20.642   7.478  0.00  0.00    +0.002 C 
ATOM      7  C   LIG    1       28.694 -21.264   6.836  0.00  0.00    -0.000 C 
ATOM      8  C   LIG    1       28.422 -20.713   5.414  0.00  0.00    +0.008 C 
ATOM      9  C   LIG    1       27.018 -20.181   5.108  0.00  0.00    +0.032 C 
ATOM     10  C   LIG    1       25.869 -20.785   5.877  0.00  0.00    -0.056 C 
ATOM     11  C   LIG    1       26.193 -21.801   6.964  0.00  0.00    +0.013 C 
ATOM     12  C   LIG    1       26.456 -23.178   6.302  0.00  0.00    +0.020 C 
ATOM     13  C   LIG    1       25.004 -22.053   7.881  0.00  0.00    -0.012 C 
ATOM     14  C   LIG    1       23.768 -21.595   7.663  0.00  0.00    +0.047 C 
ATOM     15  C   LIG    1       23.473 -20.745   6.487  0.00  0.00    +0.179 C 
ATOM     16  O   LIG    1       22.339 -20.385   6.229  0.00  0.00    -0.288 OA
ATOM     17  C   LIG    1       24.624 -20.324   5.658  0.00  0.00    +0.051 C 
ATOM     18  C   LIG    1       27.449 -21.289   7.760  0.00  0.00    +0.035 C 
ATOM     19  C   LIG    1       27.253 -19.923   8.479  0.00  0.00    +0.120 C 
ATOM     20  C   LIG    1       28.527 -19.428   9.178  0.00  0.00    +0.042 C 
ENDROOT
BRANCH   3  21
ATOM     21  O   LIG    1       32.183 -18.956   8.144  0.00  0.00    -0.380 OA
ATOM     22  H   LIG    1       32.997 -19.337   8.540  0.00  0.00    +0.211 HD
ENDBRANCH   3  21
BRANCH   3  23
ATOM     23  C   LIG    1       31.172 -18.163  10.145  0.00  0.00    +0.190 C 
ATOM     24  O   LIG    1       30.775 -18.418  11.290  0.00  0.00    -0.292 OA
BRANCH  23  25
ATOM     25  C   LIG    1       31.640 -16.761   9.798  0.00  0.00    +0.233 C 
BRANCH  25  26
ATOM     26  O   LIG    1       33.025 -16.745   9.509  0.00  0.00    -0.387 OA
ATOM     27  H   LIG    1       33.212 -15.893   9.067  0.00  0.00    +0.210 HD
ENDBRANCH  25  26
ENDBRANCH  23  25
ENDBRANCH   3  23
BRANCH  19  28
ATOM     28  O   LIG    1       26.250 -20.009   9.492  0.00  0.00    -0.391 OA
ATOM     29  H   LIG    1       25.978 -19.109   9.737  0.00  0.00    +0.210 HD
ENDBRANCH  19  28
TORSDOF 5
ENDMDL
MODEL 2
REMARK VINA RESULT:      -5.5      8.766     10.673
REMARK  Name = *****
REMARK                            x       y       z     vdW  Elec       q    Type
REMARK                         _______ _______ _______ _____ _____    ______ ____
ROOT
ATOM      1  C   LIG    1       27.139 -28.965  13.795  0.00  0.00    +0.015 C 
ATOM      2  C   LIG    1       26.126 -27.963  13.214  0.00  0.00    +0.009 C 
ATOM      3  C   LIG    1       25.949 -26.711  14.136  0.00  0.00    +0.132 C 
ATOM      4  C   LIG    1       24.606 -26.111  13.711  0.00  0.00    +0.043 C 
ATOM      5  C   LIG    1       23.794 -27.276  13.132  0.00  0.00    +0.007 C 
ATOM      6  C   LIG    1       24.687 -28.532  13.222  0.00  0.00    +0.002 C 
ATOM      7  C   LIG    1       24.342 -29.575  12.136  0.00  0.00    -0.000 C 
ATOM      8  C   LIG    1       24.690 -31.020  12.572  0.00  0.00    +0.008 C 
ATOM      9  C   LIG    1       25.534 -31.873  11.619  0.00  0.00    +0.032 C 
ATOM     10  C   LIG    1       25.422 -31.574  10.144  0.00  0.00    -0.056 C 
ATOM     11  C   LIG    1       24.564 -30.391   9.718  0.00  0.00    +0.013 C 
ATOM     12  C   LIG    1       23.074 -30.823   9.729  0.00  0.00    +0.020 C 
ATOM     13  C   LIG    1       24.821 -29.991   8.272  0.00  0.00    -0.012 C 
ATOM     14  C   LIG    1       25.563 -30.694   7.412  0.00  0.00    +0.047 C 
ATOM     15  C   LIG    1       26.242 -31.939   7.840  0.00  0.00    +0.179 C 
ATOM     16  O   LIG    1       26.855 -32.634   7.051  0.00  0.00    -0.288 OA
ATOM     17  C   LIG    1       26.170 -32.281   9.278  0.00  0.00    +0.051 C 
ATOM     18  C   LIG    1       24.832 -29.202  10.712  0.00  0.00    +0.035 C 
ATOM     19  C   LIG    1       26.301 -28.692  10.736  0.00  0.00    +0.120 C 
ATOM     20  C   LIG    1       26.532 -27.585  11.774  0.00  0.00    +0.042 C 
ENDROOT
BRANCH   3  21
ATOM     21  O   LIG    1       25.766 -27.153  15.500  0.00  0.00    -0.380 OA
ATOM     22  H   LIG    1       26.316 -26.564  16.061  0.00  0.00    +0.211 HD
ENDBRANCH   3  21
BRANCH   3  23
ATOM     23  C   LIG    1       27.150 -25.745  14.174  0.00  0.00    +0.190 C 
ATOM     24  O   LIG    1       27.293 -24.914  13.266  0.00  0.00    -0.292 OA
BRANCH  23  25
ATOM     25  C   LIG    1       28.197 -25.863  15.267  0.00  0.00    +0.233 C 
BRANCH  25  26
ATOM     26  O   LIG    1       29.348 -26.538  14.797  0.00  0.00    -0.387 OA
ATOM     27  H   LIG    1       30.010 -25.852  14.581  0.00  0.00    +0.210 HD
ENDBRANCH  25  26
ENDBRANCH  23  25
ENDBRANCH   3  23
BRANCH  19  28
ATOM     28  O   LIG    1       26.680 -28.141   9.474  0.00  0.00    -0.391 OA
ATOM     29  H   LIG    1       27.314 -28.744   9.050  0.00  0.00    +0.210 HD
ENDBRANCH  19  28
TORSDOF 5
ENDMDL
MODEL 3
REMARK VINA RESULT:      -5.5      9.647     11.912
REMARK  Name = *****
REMARK                            x       y       z     vdW  Elec       q    Type
REMARK                         _______ _______ _______ _____ _____    ______ ____
ROOT
ATOM      1  C   LIG    1       25.922 -31.237  12.523  0.00  0.00    +0.015 C 
ATOM      2  C   LIG    1       25.750 -30.135  11.463  0.00  0.00    +0.009 C 
ATOM      3  C   LIG    1       26.797 -30.268  10.308  0.00  0.00    +0.132 C 
ATOM      4  C   LIG    1       26.831 -28.880   9.662  0.00  0.00    +0.043 C 
ATOM      5  C   LIG    1       26.399 -27.899  10.760  0.00  0.00    +0.007 C 
ATOM      6  C   LIG    1       26.113 -28.739  12.023  0.00  0.00    +0.002 C 
ATOM      7  C   LIG    1       25.076 -28.068  12.950  0.00  0.00    -0.000 C 
ATOM      8  C   LIG    1       25.258 -28.476  14.433  0.00  0.00    +0.008 C 
ATOM      9  C   LIG    1       24.028 -28.988  15.191  0.00  0.00    +0.032 C 
ATOM     10  C   LIG    1       22.681 -28.474  14.747  0.00  0.00    -0.056 C 
ATOM     11  C   LIG    1       22.630 -27.570  13.522  0.00  0.00    +0.013 C 
ATOM     12  C   LIG    1       23.023 -26.130  13.945  0.00  0.00    +0.020 C 
ATOM     13  C   LIG    1       21.214 -27.422  12.982  0.00  0.00    -0.012 C 
ATOM     14  C   LIG    1       20.117 -27.867  13.599  0.00  0.00    +0.047 C 
ATOM     15  C   LIG    1       20.215 -28.597  14.884  0.00  0.00    +0.179 C 
ATOM     16  O   LIG    1       19.222 -28.940  15.500  0.00  0.00    -0.288 OA
ATOM     17  C   LIG    1       21.575 -28.923  15.367  0.00  0.00    +0.051 C 
ATOM     18  C   LIG    1       23.613 -28.147  12.440  0.00  0.00    +0.035 C 
ATOM     19  C   LIG    1       23.267 -29.580  11.942  0.00  0.00    +0.120 C 
ATOM     20  C   LIG    1       24.296 -30.131  10.945  0.00  0.00    +0.042 C 
ENDROOT
BRANCH   3  21
ATOM     21  O   LIG    1       28.109 -30.463  10.883  0.00  0.00    -0.380 OA
ATOM     22  H   LIG    1       28.171 -29.851  11.650  0.00  0.00    +0.211 HD
ENDBRANCH   3  21
BRANCH   3  23
ATOM     23  C   LIG    1       26.584 -31.462   9.357  0.00  0.00    +0.190 C 
ATOM     24  O   LIG    1       26.909 -32.599   9.724  0.00  0.00    -0.292 OA
BRANCH  23  25
ATOM     25  C   LIG    1       26.060 -31.239   7.949  0.00  0.00    +0.233 C 
BRANCH  25  26
ATOM     26  O   LIG    1       26.929 -31.806   6.987  0.00  0.00    -0.387 OA
ATOM     27  H   LIG    1       26.568 -32.686   6.764  0.00  0.00    +0.210 HD
ENDBRANCH  25  26
ENDBRANCH  23  25
ENDBRANCH   3  23
BRANCH  19  28
ATOM     28  O   LIG    1       22.007 -29.605  11.270  0.00  0.00    -0.391 OA
ATOM     29  H   LIG    1       21.772 -28.696  11.018  0.00  0.00    +0.210 HD
ENDBRANCH  19  28
TORSDOF 5
ENDMDL
MODEL 4
REMARK VINA RESULT:      -5.5      8.979     12.141
REMARK  Name = *****
REMARK                            x       y       z     vdW  Elec       q    Type
REMARK                         _______ _______ _______ _____ _____    ______ ____
ROOT
ATOM      1  C   LIG    1       23.419 -30.062   9.011  0.00  0.00    +0.015 C 
ATOM      2  C   LIG    1       24.700 -30.821   9.401  0.00  0.00    +0.009 C 
ATOM      3  C   LIG    1       24.954 -32.054   8.472  0.00  0.00    +0.132 C 
ATOM      4  C   LIG    1       25.905 -32.947   9.274  0.00  0.00    +0.043 C 
ATOM      5  C   LIG    1       25.647 -32.611  10.748  0.00  0.00    +0.007 C 
ATOM      6  C   LIG    1       24.556 -31.520  10.774  0.00  0.00    +0.002 C 
ATOM      7  C   LIG    1       24.655 -30.622  12.028  0.00  0.00    -0.000 C 
ATOM      8  C   LIG    1       23.287 -30.016  12.430  0.00  0.00    +0.008 C 
ATOM      9  C   LIG    1       23.213 -28.502  12.656  0.00  0.00    +0.032 C 
ATOM     10  C   LIG    1       24.471 -27.812  13.123  0.00  0.00    -0.056 C 
ATOM     11  C   LIG    1       25.741 -28.644  13.240  0.00  0.00    +0.013 C 
ATOM     12  C   LIG    1       25.699 -29.439  14.571  0.00  0.00    +0.020 C 
ATOM     13  C   LIG    1       26.983 -27.773  13.368  0.00  0.00    -0.012 C 
ATOM     14  C   LIG    1       26.966 -26.450  13.548  0.00  0.00    +0.047 C 
ATOM     15  C   LIG    1       25.684 -25.710  13.599  0.00  0.00    +0.179 C 
ATOM     16  O   LIG    1       25.645 -24.518  13.841  0.00  0.00    -0.288 OA
ATOM     17  C   LIG    1       24.454 -26.479  13.304  0.00  0.00    +0.051 C 
ATOM     18  C   LIG    1       25.822 -29.600  11.994  0.00  0.00    +0.035 C 
ATOM     19  C   LIG    1       25.896 -28.875  10.620  0.00  0.00    +0.120 C 
ATOM     20  C   LIG    1       25.896 -29.846   9.431  0.00  0.00    +0.042 C 
ENDROOT
BRANCH   3  21
ATOM     21  O   LIG    1       23.726 -32.807   8.344  0.00  0.00    -0.380 OA
ATOM     22  H   LIG    1       23.073 -32.207   7.922  0.00  0.00    +0.211 HD
ENDBRANCH   3  21
BRANCH   3  23
ATOM     23  C   LIG    1       25.382 -31.717   7.030  0.00  0.00    +0.190 C 
ATOM     24  O   LIG    1       26.495 -32.082   6.624  0.00  0.00    -0.292 OA
BRANCH  23  25
ATOM     25  C   LIG    1       24.488 -30.874   6.140  0.00  0.00    +0.233 C 
BRANCH  25  26
ATOM     26  O   LIG    1       23.324 -31.586   5.765  0.00  0.00    -0.387 OA
ATOM     27  H   LIG    1       23.588 -32.520   5.653  0.00  0.00    +0.210 HD
ENDBRANCH  25  26
ENDBRANCH  23  25
ENDBRANCH   3  23
BRANCH  19  28
ATOM     28  O   LIG    1       27.093 -28.104  10.505  0.00  0.00    -0.391 OA
ATOM     29  H   LIG    1       27.157 -27.764   9.596  0.00  0.00    +0.210 HD
ENDBRANCH  19  28
TORSDOF 5
ENDMDL
MODEL 5
REMARK VINA RESULT:      -5.5      8.662     10.766
REMARK  Name = *****
REMARK                            x       y       z     vdW  Elec       q    Type
REMARK                         _______ _______ _______ _____ _____    ______ ____
ROOT
ATOM      1  C   LIG    1       27.252 -29.629  13.471  0.00  0.00    +0.015 C 
ATOM      2  C   LIG    1       26.275 -28.544  12.982  0.00  0.00    +0.009 C 
ATOM      3  C   LIG    1       26.127 -27.382  14.021  0.00  0.00    +0.132 C 
ATOM      4  C   LIG    1       24.806 -26.703  13.646  0.00  0.00    +0.043 C 
ATOM      5  C   LIG    1       23.966 -27.781  12.950  0.00  0.00    +0.007 C 
ATOM      6  C   LIG    1       24.820 -29.067  12.925  0.00  0.00    +0.002 C 
ATOM      7  C   LIG    1       24.456 -29.988  11.739  0.00  0.00    -0.000 C 
ATOM      8  C   LIG    1       24.756 -31.478  12.036  0.00  0.00    +0.008 C 
ATOM      9  C   LIG    1       25.584 -32.261  11.010  0.00  0.00    +0.032 C 
ATOM     10  C   LIG    1       25.497 -31.817   9.571  0.00  0.00    -0.056 C 
ATOM     11  C   LIG    1       24.678 -30.572   9.255  0.00  0.00    +0.013 C 
ATOM     12  C   LIG    1       23.176 -30.957   9.213  0.00  0.00    +0.020 C 
ATOM     13  C   LIG    1       24.964 -30.042   7.856  0.00  0.00    -0.012 C 
ATOM     14  C   LIG    1       25.693 -30.681   6.938  0.00  0.00    +0.047 C 
ATOM     15  C   LIG    1       26.329 -31.982   7.248  0.00  0.00    +0.179 C 
ATOM     16  O   LIG    1       26.931 -32.615   6.400  0.00  0.00    -0.288 OA
ATOM     17  C   LIG    1       26.232 -32.459   8.645  0.00  0.00    +0.051 C 
ATOM     18  C   LIG    1       24.972 -29.494  10.362  0.00  0.00    +0.035 C 
ATOM     19  C   LIG    1       26.455 -29.035  10.447  0.00  0.00    +0.120 C 
ATOM     20  C   LIG    1       26.708 -28.041  11.589  0.00  0.00    +0.042 C 
ENDROOT
BRANCH   3  21
ATOM     21  O   LIG    1       25.916 -27.949  15.334  0.00  0.00    -0.380 OA
ATOM     22  H   LIG    1       25.251 -28.665  15.225  0.00  0.00    +0.211 HD
ENDBRANCH   3  21
BRANCH   3  23
ATOM     23  C   LIG    1       27.355 -26.462  14.162  0.00  0.00    +0.190 C 
ATOM     24  O   LIG    1       28.278 -26.790  14.920  0.00  0.00    -0.292 OA
BRANCH  23  25
ATOM     25  C   LIG    1       27.399 -25.124  13.447  0.00  0.00    +0.233 C 
BRANCH  25  26
ATOM     26  O   LIG    1       27.781 -24.087  14.331  0.00  0.00    -0.387 OA
ATOM     27  H   LIG    1       27.745 -23.254  13.823  0.00  0.00    +0.210 HD
ENDBRANCH  25  26
ENDBRANCH  23  25
ENDBRANCH   3  23
BRANCH  19  28
ATOM     28  O   LIG    1       26.864 -28.376   9.248  0.00  0.00    -0.391 OA
ATOM     29  H   LIG    1       27.665 -28.811   8.912  0.00  0.00    +0.210 HD
ENDBRANCH  19  28
TORSDOF 5
ENDMDL
MODEL 6
REMARK VINA RESULT:      -5.4      5.252      7.893
REMARK  Name = *****
REMARK                            x       y       z     vdW  Elec       q    Type
REMARK                         _______ _______ _______ _____ _____    ______ ____
ROOT
ATOM      1  C   LIG    1       23.351 -25.496   6.648  0.00  0.00    +0.015 C 
ATOM      2  C   LIG    1       24.775 -25.396   6.072  0.00  0.00    +0.009 C 
ATOM      3  C   LIG    1       25.510 -26.778   6.089  0.00  0.00    +0.132 C 
ATOM      4  C   LIG    1       26.996 -26.421   5.988  0.00  0.00    +0.043 C 
ATOM      5  C   LIG    1       27.124 -25.006   6.567  0.00  0.00    +0.007 C 
ATOM      6  C   LIG    1       25.706 -24.563   6.985  0.00  0.00    +0.002 C 
ATOM      7  C   LIG    1       25.535 -23.029   6.942  0.00  0.00    -0.000 C 
ATOM      8  C   LIG    1       24.459 -22.526   7.936  0.00  0.00    +0.008 C 
ATOM      9  C   LIG    1       23.364 -21.597   7.399  0.00  0.00    +0.032 C 
ATOM     10  C   LIG    1       23.718 -20.725   6.220  0.00  0.00    -0.056 C 
ATOM     11  C   LIG    1       25.092 -20.899   5.589  0.00  0.00    +0.013 C 
ATOM     12  C   LIG    1       26.138 -20.139   6.446  0.00  0.00    +0.020 C 
ATOM     13  C   LIG    1       25.181 -20.233   4.222  0.00  0.00    -0.012 C 
ATOM     14  C   LIG    1       24.244 -19.432   3.707  0.00  0.00    +0.047 C 
ATOM     15  C   LIG    1       22.991 -19.160   4.447  0.00  0.00    +0.179 C 
ATOM     16  O   LIG    1       22.163 -18.372   4.031  0.00  0.00    -0.288 OA
ATOM     17  C   LIG    1       22.774 -19.919   5.699  0.00  0.00    +0.051 C 
ATOM     18  C   LIG    1       25.410 -22.437   5.513  0.00  0.00    +0.035 C 
ATOM     19  C   LIG    1       24.421 -23.266   4.645  0.00  0.00    +0.120 C 
ATOM     20  C   LIG    1       24.725 -24.770   4.662  0.00  0.00    +0.042 C 
ENDROOT
BRANCH   3  21
ATOM     21  O   LIG    1       25.341 -27.384   7.391  0.00  0.00    -0.380 OA
ATOM     22  H   LIG    1       24.396 -27.642   7.458  0.00  0.00    +0.211 HD
ENDBRANCH   3  21
BRANCH   3  23
ATOM     23  C   LIG    1       24.985 -27.818   5.080  0.00  0.00    +0.190 C 
ATOM     24  O   LIG    1       24.892 -27.512   3.883  0.00  0.00    -0.292 OA
BRANCH  23  25
ATOM     25  C   LIG    1       24.504 -29.176   5.556  0.00  0.00    +0.233 C 
BRANCH  25  26
ATOM     26  O   LIG    1       23.125 -29.351   5.288  0.00  0.00    -0.387 OA
ATOM     27  H   LIG    1       22.712 -29.655   6.118  0.00  0.00    +0.210 HD
ENDBRANCH  25  26
ENDBRANCH  23  25
ENDBRANCH   3  23
BRANCH  19  28
ATOM     28  O   LIG    1       24.472 -22.864   3.275  0.00  0.00    -0.391 OA
ATOM     29  H   LIG    1       25.316 -23.160   2.896  0.00  0.00    +0.210 HD
ENDBRANCH  19  28
TORSDOF 5
ENDMDL
MODEL 7
REMARK VINA RESULT:      -5.4      9.750     12.459
REMARK  Name = *****
REMARK                            x       y       z     vdW  Elec       q    Type
REMARK                         _______ _______ _______ _____ _____    ______ ____
ROOT
ATOM      1  C   LIG    1       24.499 -29.719   8.393  0.00  0.00    +0.015 C 
ATOM      2  C   LIG    1       25.195 -31.026   8.813  0.00  0.00    +0.009 C 
ATOM      3  C   LIG    1       25.105 -32.119   7.697  0.00  0.00    +0.132 C 
ATOM      4  C   LIG    1       25.359 -33.438   8.434  0.00  0.00    +0.043 C 
ATOM      5  C   LIG    1       24.930 -33.192   9.886  0.00  0.00    +0.007 C 
ATOM      6  C   LIG    1       24.443 -31.730   9.968  0.00  0.00    +0.002 C 
ATOM      7  C   LIG    1       24.619 -31.133  11.381  0.00  0.00    -0.000 C 
ATOM      8  C   LIG    1       23.594 -30.011  11.680  0.00  0.00    +0.008 C 
ATOM      9  C   LIG    1       24.128 -28.673  12.205  0.00  0.00    +0.032 C 
ATOM     10  C   LIG    1       25.409 -28.707  13.001  0.00  0.00    -0.056 C 
ATOM     11  C   LIG    1       26.129 -30.042  13.139  0.00  0.00    +0.013 C 
ATOM     12  C   LIG    1       25.435 -30.873  14.249  0.00  0.00    +0.020 C 
ATOM     13  C   LIG    1       27.556 -29.870  13.643  0.00  0.00    -0.012 C 
ATOM     14  C   LIG    1       28.068 -28.721  14.093  0.00  0.00    +0.047 C 
ATOM     15  C   LIG    1       27.259 -27.481  14.094  0.00  0.00    +0.179 C 
ATOM     16  O   LIG    1       27.681 -26.445  14.572  0.00  0.00    -0.288 OA
ATOM     17  C   LIG    1       25.926 -27.550  13.453  0.00  0.00    +0.051 C 
ATOM     18  C   LIG    1       26.083 -30.775  11.749  0.00  0.00    +0.035 C 
ATOM     19  C   LIG    1       26.786 -30.015  10.587  0.00  0.00    +0.120 C 
ATOM     20  C   LIG    1       26.649 -30.731   9.237  0.00  0.00    +0.042 C 
ENDROOT
BRANCH   3  21
ATOM     21  O   LIG    1       23.742 -32.194   7.221  0.00  0.00    -0.380 OA
ATOM     22  H   LIG    1       23.538 -31.320   6.821  0.00  0.00    +0.211 HD
ENDBRANCH   3  21
BRANCH   3  23
ATOM     23  C   LIG    1       25.965 -31.857   6.445  0.00  0.00    +0.190 C 
ATOM     24  O   LIG    1       27.112 -32.321   6.385  0.00  0.00    -0.292 OA
BRANCH  23  25
ATOM     25  C   LIG    1       25.447 -30.968   5.329  0.00  0.00    +0.233 C 
BRANCH  25  26
ATOM     26  O   LIG    1       26.040 -29.684   5.385  0.00  0.00    -0.387 OA
ATOM     27  H   LIG    1       26.490 -29.618   6.249  0.00  0.00    +0.210 HD
ENDBRANCH  25  26
ENDBRANCH  23  25
ENDBRANCH   3  23
BRANCH  19  28
ATOM     28  O   LIG    1       28.187 -29.882  10.828  0.00  0.00    -0.391 OA
ATOM     29  H   LIG    1       28.315 -29.492  11.709  0.00  0.00    +0.210 HD
ENDBRANCH  19  28
TORSDOF 5
ENDMDL
MODEL 8
REMARK VINA RESULT:      -5.2     10.478     12.850
REMARK  Name = *****
REMARK                            x       y       z     vdW  Elec       q    Type
REMARK                         _______ _______ _______ _____ _____    ______ ____
ROOT
ATOM      1  C   LIG    1       25.304 -32.614  10.190  0.00  0.00    +0.015 C 
ATOM      2  C   LIG    1       24.942 -31.335   9.415  0.00  0.00    +0.009 C 
ATOM      3  C   LIG    1       25.669 -31.267   8.030  0.00  0.00    +0.132 C 
ATOM      4  C   LIG    1       25.624 -29.784   7.648  0.00  0.00    +0.043 C 
ATOM      5  C   LIG    1       25.529 -29.016   8.972  0.00  0.00    +0.007 C 
ATOM      6  C   LIG    1       25.511 -30.069  10.100  0.00  0.00    +0.002 C 
ATOM      7  C   LIG    1       24.770 -29.565  11.359  0.00  0.00    -0.000 C 
ATOM      8  C   LIG    1       25.283 -30.240  12.655  0.00  0.00    +0.008 C 
ATOM      9  C   LIG    1       24.247 -30.866  13.595  0.00  0.00    +0.032 C 
ATOM     10  C   LIG    1       22.864 -30.263  13.597  0.00  0.00    -0.056 C 
ATOM     11  C   LIG    1       22.569 -29.150  12.601  0.00  0.00    +0.013 C 
ATOM     12  C   LIG    1       23.135 -27.817  13.156  0.00  0.00    +0.020 C 
ATOM     13  C   LIG    1       21.075 -28.888  12.464  0.00  0.00    -0.012 C 
ATOM     14  C   LIG    1       20.137 -29.425  13.248  0.00  0.00    +0.047 C 
ATOM     15  C   LIG    1       20.502 -30.378  14.321  0.00  0.00    +0.179 C 
ATOM     16  O   LIG    1       19.671 -30.816  15.095  0.00  0.00    -0.288 OA
ATOM     17  C   LIG    1       21.918 -30.804  14.386  0.00  0.00    +0.051 C 
ATOM     18  C   LIG    1       23.225 -29.532  11.224  0.00  0.00    +0.035 C 
ATOM     19  C   LIG    1       22.687 -30.845  10.587  0.00  0.00    +0.120 C 
ATOM     20  C   LIG    1       23.409 -31.217   9.285  0.00  0.00    +0.042 C 
ENDROOT
BRANCH   3  21
ATOM     21  O   LIG    1       27.068 -31.580   8.217  0.00  0.00    -0.380 OA
ATOM     22  H   LIG    1       27.226 -31.580   9.187  0.00  0.00    +0.211 HD
ENDBRANCH   3  21
BRANCH   3  23
ATOM     23  C   LIG    1       25.162 -32.264   6.969  0.00  0.00    +0.190 C 
ATOM     24  O   LIG    1       25.244 -33.481   7.189  0.00  0.00    -0.292 OA
BRANCH  23  25
ATOM     25  C   LIG    1       24.646 -31.766   5.631  0.00  0.00    +0.233 C 
BRANCH  25  26
ATOM     26  O   LIG    1       23.280 -31.408   5.714  0.00  0.00    -0.387 OA
ATOM     27  H   LIG    1       22.945 -31.355   4.798  0.00  0.00    +0.210 HD
ENDBRANCH  25  26
ENDBRANCH  23  25
ENDBRANCH   3  23
BRANCH  19  28
ATOM     28  O   LIG    1       21.302 -30.731  10.256  0.00  0.00    -0.391 OA
ATOM     29  H   LIG    1       20.832 -31.501  10.619  0.00  0.00    +0.210 HD
ENDBRANCH  19  28
TORSDOF 5
ENDMDL
MODEL 9
REMARK VINA RESULT:      -5.1     10.275     12.780
REMARK  Name = *****
REMARK                            x       y       z     vdW  Elec       q    Type
REMARK                         _______ _______ _______ _____ _____    ______ ____
ROOT
ATOM      1  C   LIG    1       26.573 -31.920   7.942  0.00  0.00    +0.015 C 
ATOM      2  C   LIG    1       25.317 -31.051   7.752  0.00  0.00    +0.009 C 
ATOM      3  C   LIG    1       24.946 -30.883   6.241  0.00  0.00    +0.132 C 
ATOM      4  C   LIG    1       24.054 -29.639   6.203  0.00  0.00    +0.043 C 
ATOM      5  C   LIG    1       24.459 -28.799   7.421  0.00  0.00    +0.007 C 
ATOM      6  C   LIG    1       25.574 -29.578   8.151  0.00  0.00    +0.002 C 
ATOM      7  C   LIG    1       25.616 -29.261   9.662  0.00  0.00    -0.000 C 
ATOM      8  C   LIG    1       27.029 -29.450  10.266  0.00  0.00    +0.008 C 
ATOM      9  C   LIG    1       27.162 -30.314  11.525  0.00  0.00    +0.032 C 
ATOM     10  C   LIG    1       25.971 -30.371  12.450  0.00  0.00    -0.056 C 
ATOM     11  C   LIG    1       24.698 -29.654  12.021  0.00  0.00    +0.013 C 
ATOM     12  C   LIG    1       24.846 -28.141  12.329  0.00  0.00    +0.020 C 
ATOM     13  C   LIG    1       23.495 -30.083  12.850  0.00  0.00    -0.012 C 
ATOM     14  C   LIG    1       23.562 -30.848  13.943  0.00  0.00    +0.047 C 
ATOM     15  C   LIG    1       24.860 -31.381  14.415  0.00  0.00    +0.179 C 
ATOM     16  O   LIG    1       24.951 -32.014  15.451  0.00  0.00    -0.288 OA
ATOM     17  C   LIG    1       26.037 -31.142  13.550  0.00  0.00    +0.051 C 
ATOM     18  C   LIG    1       24.476 -29.916  10.487  0.00  0.00    +0.035 C 
ATOM     19  C   LIG    1       24.289 -31.411  10.101  0.00  0.00    +0.120 C 
ATOM     20  C   LIG    1       24.152 -31.625   8.587  0.00  0.00    +0.042 C 
ENDROOT
BRANCH   3  21
ATOM     21  O   LIG    1       26.137 -30.533   5.501  0.00  0.00    -0.380 OA
ATOM     22  H   LIG    1       26.821 -31.194   5.744  0.00  0.00    +0.211 HD
ENDBRANCH   3  21
BRANCH   3  23
ATOM     23  C   LIG    1       24.391 -32.146   5.554  0.00  0.00    +0.190 C 
ATOM     24  O   LIG    1       23.246 -32.534   5.825  0.00  0.00    -0.292 OA
BRANCH  23  25
ATOM     25  C   LIG    1       25.266 -32.959   4.617  0.00  0.00    +0.233 C 
BRANCH  25  26
ATOM     26  O   LIG    1       25.290 -32.389   3.321  0.00  0.00    -0.387 OA
ATOM     27  H   LIG    1       24.442 -31.919   3.203  0.00  0.00    +0.210 HD
ENDBRANCH  25  26
ENDBRANCH  23  25
ENDBRANCH   3  23
BRANCH  19  28
ATOM     28  O   LIG    1       23.106 -31.954  10.689  0.00  0.00    -0.391 OA
ATOM     29  H   LIG    1       23.311 -32.235  11.596  0.00  0.00    +0.210 HD
ENDBRANCH  19  28
TORSDOF 5
ENDMDL
