MODEL 1
REMARK VINA RESULT:      -4.5      0.000      0.000
REMARK  Name = *****
REMARK                            x       y       z     vdW  Elec       q    Type
REMARK                         _______ _______ _______ _____ _____    ______ ____
ROOT
ATOM      1  C   LIG    1       23.934 -21.063   3.504  0.00  0.00    +0.086 C 
ATOM      2  C   LIG    1       24.337 -19.650   3.637  0.00  0.00    +0.103 A 
ATOM      3  O   LIG    1       23.410 -18.752   4.087  0.00  0.00    -0.460 OA
ATOM      4  C   LIG    1       23.985 -17.508   4.016  0.00  0.00    +0.142 A 
ATOM      5  C   LIG    1       25.288 -17.634   3.552  0.00  0.00    +0.021 A 
ATOM      6  C   LIG    1       26.064 -16.486   3.351  0.00  0.00    +0.023 A 
ATOM      7  C   LIG    1       25.486 -15.223   3.507  0.00  0.00    +0.022 A 
ATOM      8  C   LIG    1       24.171 -15.152   4.002  0.00  0.00    +0.146 A 
ATOM      9  O   LIG    1       23.555 -13.882   4.162  0.00  0.00    -0.422 OA
ATOM     10  C   LIG    1       24.164 -12.705   3.750  0.00  0.00    +0.338 C 
ATOM     11  O   LIG    1       23.613 -11.619   3.814  0.00  0.00    -0.245 OA
ATOM     12  C   LIG    1       25.532 -12.827   3.229  0.00  0.00    +0.096 C 
ATOM     13  C   LIG    1       26.188 -13.990   3.119  0.00  0.00    -0.033 C 
ATOM     14  C   LIG    1       27.579 -13.999   2.546  0.00  0.00    +0.045 C 
ATOM     15  C   LIG    1       23.379 -16.282   4.329  0.00  0.00    +0.035 A 
ATOM     16  C   LIG    1       22.014 -16.180   4.938  0.00  0.00    +0.051 C 
ATOM     17  C   LIG    1       25.520 -19.013   3.351  0.00  0.00    +0.053 A 
ENDROOT
TORSDOF 0
ENDMDL
MODEL 2
REMARK VINA RESULT:      -4.3      1.889      3.041
REMARK  Name = *****
REMARK                            x       y       z     vdW  Elec       q    Type
REMARK                         _______ _______ _______ _____ _____    ______ ____
ROOT
ATOM      1  C   LIG    1       21.750 -20.208   4.829  0.00  0.00    +0.086 C 
ATOM      2  C   LIG    1       22.416 -18.937   4.484  0.00  0.00    +0.103 A 
ATOM      3  O   LIG    1       23.711 -18.983   4.047  0.00  0.00    -0.460 OA
ATOM      4  C   LIG    1       24.134 -17.685   3.902  0.00  0.00    +0.142 A 
ATOM      5  C   LIG    1       23.088 -16.827   4.218  0.00  0.00    +0.021 A 
ATOM      6  C   LIG    1       23.298 -15.442   4.188  0.00  0.00    +0.023 A 
ATOM      7  C   LIG    1       24.582 -14.942   3.957  0.00  0.00    +0.022 A 
ATOM      8  C   LIG    1       25.599 -15.853   3.619  0.00  0.00    +0.146 A 
ATOM      9  O   LIG    1       26.916 -15.372   3.387  0.00  0.00    -0.422 OA
ATOM     10  C   LIG    1       27.265 -14.044   3.582  0.00  0.00    +0.338 C 
ATOM     11  O   LIG    1       28.408 -13.637   3.459  0.00  0.00    -0.245 OA
ATOM     12  C   LIG    1       26.175 -13.129   3.945  0.00  0.00    +0.096 C 
ATOM     13  C   LIG    1       24.903 -13.514   4.110  0.00  0.00    -0.033 C 
ATOM     14  C   LIG    1       23.871 -12.494   4.508  0.00  0.00    +0.045 C 
ATOM     15  C   LIG    1       25.415 -17.256   3.524  0.00  0.00    +0.035 A 
ATOM     16  C   LIG    1       26.490 -18.198   3.076  0.00  0.00    +0.051 C 
ATOM     17  C   LIG    1       21.979 -17.636   4.549  0.00  0.00    +0.053 A 
ENDROOT
TORSDOF 0
ENDMDL
MODEL 3
REMARK VINA RESULT:      -3.5      1.666      5.084
REMARK  Name = *****
REMARK                            x       y       z     vdW  Elec       q    Type
REMARK                         _______ _______ _______ _____ _____    ______ ____
ROOT
ATOM      1  C   LIG    1       28.718 -12.384   4.335  0.00  0.00    +0.086 C 
ATOM      2  C   LIG    1       27.829 -13.522   4.035  0.00  0.00    +0.103 A 
ATOM      3  O   LIG    1       26.480 -13.333   4.136  0.00  0.00    -0.460 OA
ATOM      4  C   LIG    1       25.884 -14.551   3.920  0.00  0.00    +0.142 A 
ATOM      5  C   LIG    1       26.865 -15.496   3.652  0.00  0.00    +0.021 A 
ATOM      6  C   LIG    1       26.498 -16.832   3.445  0.00  0.00    +0.023 A 
ATOM      7  C   LIG    1       25.168 -17.221   3.624  0.00  0.00    +0.022 A 
ATOM      8  C   LIG    1       24.211 -16.220   3.872  0.00  0.00    +0.146 A 
ATOM      9  O   LIG    1       22.853 -16.588   4.067  0.00  0.00    -0.422 OA
ATOM     10  C   LIG    1       22.445 -17.912   4.127  0.00  0.00    +0.338 C 
ATOM     11  O   LIG    1       21.295 -18.238   4.369  0.00  0.00    -0.245 OA
ATOM     12  C   LIG    1       23.478 -18.925   3.874  0.00  0.00    +0.096 C 
ATOM     13  C   LIG    1       24.760 -18.634   3.617  0.00  0.00    -0.033 C 
ATOM     14  C   LIG    1       25.740 -19.756   3.398  0.00  0.00    +0.045 C 
ATOM     15  C   LIG    1       24.512 -14.838   3.979  0.00  0.00    +0.035 A 
ATOM     16  C   LIG    1       23.465 -13.781   4.154  0.00  0.00    +0.051 C 
ATOM     17  C   LIG    1       28.105 -14.822   3.686  0.00  0.00    +0.053 A 
ENDROOT
TORSDOF 0
ENDMDL
MODEL 4
REMARK VINA RESULT:      -2.3      1.481      5.913
REMARK  Name = *****
REMARK                            x       y       z     vdW  Elec       q    Type
REMARK                         _______ _______ _______ _____ _____    ______ ____
ROOT
ATOM      1  C   LIG    1       24.906 -11.447   2.585  0.00  0.00    +0.086 C 
ATOM      2  C   LIG    1       24.642 -12.817   3.064  0.00  0.00    +0.103 A 
ATOM      3  O   LIG    1       25.686 -13.699   3.106  0.00  0.00    -0.460 OA
ATOM      4  C   LIG    1       25.170 -14.918   3.472  0.00  0.00    +0.142 A 
ATOM      5  C   LIG    1       23.805 -14.787   3.691  0.00  0.00    +0.021 A 
ATOM      6  C   LIG    1       23.049 -15.916   4.031  0.00  0.00    +0.023 A 
ATOM      7  C   LIG    1       23.651 -17.177   4.032  0.00  0.00    +0.022 A 
ATOM      8  C   LIG    1       25.040 -17.250   3.828  0.00  0.00    +0.146 A 
ATOM      9  O   LIG    1       25.676 -18.520   3.816  0.00  0.00    -0.422 OA
ATOM     10  C   LIG    1       24.964 -19.707   3.895  0.00  0.00    +0.338 C 
ATOM     11  O   LIG    1       25.493 -20.803   3.810  0.00  0.00    -0.245 OA
ATOM     12  C   LIG    1       23.514 -19.586   4.097  0.00  0.00    +0.096 C 
ATOM     13  C   LIG    1       22.869 -18.414   4.185  0.00  0.00    -0.033 C 
ATOM     14  C   LIG    1       21.375 -18.408   4.366  0.00  0.00    +0.045 C 
ATOM     15  C   LIG    1       25.872 -16.126   3.592  0.00  0.00    +0.035 A 
ATOM     16  C   LIG    1       27.362 -16.219   3.465  0.00  0.00    +0.051 C 
ATOM     17  C   LIG    1       23.481 -13.431   3.468  0.00  0.00    +0.053 A 
ENDROOT
TORSDOF 0
ENDMDL
