MODEL 1
REMARK VINA RESULT:      -8.5      0.000      0.000
REMARK  Name = *****
REMARK                            x       y       z     vdW  Elec       q    Type
REMARK                         _______ _______ _______ _____ _____    ______ ____
ROOT
ATOM      1  C   LIG    1       24.966 -20.269   4.259  0.00  0.00    +0.158 C 
ATOM      2  N   LIG    1       25.058 -20.259   5.746  0.00  0.00    -0.198 N 
ATOM      3  S   LIG    1       23.637 -20.844   6.517  0.00  0.00    +0.076 S 
ATOM      4  O   LIG    1       22.493 -20.638   5.656  0.00  0.00    -0.150 OA
ATOM      5  O   LIG    1       23.662 -20.436   7.902  0.00  0.00    -0.150 OA
ATOM      6  C   LIG    1       23.862 -22.544   6.568  0.00  0.00    +0.126 A 
ATOM      7  C   LIG    1       25.159 -23.005   6.596  0.00  0.00    +0.082 A 
ATOM      8  S   LIG    1       25.161 -24.722   6.625  0.00  0.00    -0.092 S 
ATOM      9  C   LIG    1       23.445 -24.799   6.608  0.00  0.00    +0.048 A 
ATOM     10  C   LIG    1       26.331 -22.188   6.611  0.00  0.00    +0.160 C 
ATOM     11  C   LIG    1       22.866 -23.549   6.577  0.00  0.00    +0.037 A 
ATOM     12  C   LIG    1       26.280 -20.876   6.272  0.00  0.00    +0.155 C 
ENDROOT
BRANCH  12  13
ATOM     13  C   LIG    1       27.516 -20.023   6.358  0.00  0.00    +0.269 C 
ATOM     14  N   LIG    1       28.148 -20.147   7.573  0.00  0.00    -0.265 N 
ATOM     15  H   LIG    1       27.736 -20.794   8.233  0.00  0.00    +0.157 HD
ATOM     16  O   LIG    1       27.847 -19.346   5.390  0.00  0.00    -0.268 OA
BRANCH  14  17
ATOM     17  C   LIG    1       29.334 -19.506   7.943  0.00  0.00    +0.125 A 
ATOM     18  N   LIG    1       29.375 -18.720   9.032  0.00  0.00    -0.240 NA
ATOM     19  C   LIG    1       30.546 -18.117   9.335  0.00  0.00    +0.113 A 
ATOM     20  C   LIG    1       31.703 -18.272   8.595  0.00  0.00    +0.020 A 
ATOM     21  C   LIG    1       31.654 -19.091   7.476  0.00  0.00    +0.005 A 
ATOM     22  C   LIG    1       30.453 -19.716   7.142  0.00  0.00    +0.044 A 
ENDBRANCH  14  17
ENDBRANCH  12  13
BRANCH  10  23
ATOM     23  O   LIG    1       27.475 -22.830   7.049  0.00  0.00    -0.504 OA
ATOM     24  H   LIG    1       28.149 -22.151   7.283  0.00  0.00    +0.292 HD
ENDBRANCH  10  23
TORSDOF 3
ENDMDL
MODEL 2
REMARK VINA RESULT:      -8.4      1.979      3.222
REMARK  Name = *****
REMARK                            x       y       z     vdW  Elec       q    Type
REMARK                         _______ _______ _______ _____ _____    ______ ____
ROOT
ATOM      1  C   LIG    1       25.664 -20.450   8.896  0.00  0.00    +0.158 C 
ATOM      2  N   LIG    1       26.495 -21.328   8.025  0.00  0.00    -0.198 N 
ATOM      3  S   LIG    1       25.565 -22.415   7.072  0.00  0.00    +0.076 S 
ATOM      4  O   LIG    1       24.304 -22.684   7.728  0.00  0.00    -0.150 OA
ATOM      5  O   LIG    1       26.433 -23.459   6.580  0.00  0.00    -0.150 OA
ATOM      6  C   LIG    1       25.160 -21.503   5.677  0.00  0.00    +0.126 A 
ATOM      7  C   LIG    1       26.026 -20.497   5.311  0.00  0.00    +0.082 A 
ATOM      8  S   LIG    1       25.429 -19.702   3.911  0.00  0.00    -0.092 S 
ATOM      9  C   LIG    1       24.048 -20.718   3.829  0.00  0.00    +0.048 A 
ATOM     10  C   LIG    1       27.244 -20.166   5.980  0.00  0.00    +0.160 C 
ATOM     11  C   LIG    1       24.024 -21.651   4.844  0.00  0.00    +0.037 A 
ATOM     12  C   LIG    1       27.500 -20.606   7.236  0.00  0.00    +0.155 C 
ENDROOT
BRANCH  12  13
ATOM     13  C   LIG    1       28.817 -20.297   7.894  0.00  0.00    +0.269 C 
ATOM     14  N   LIG    1       29.024 -18.944   8.027  0.00  0.00    -0.265 N 
ATOM     15  H   LIG    1       28.282 -18.339   7.701  0.00  0.00    +0.157 HD
ATOM     16  O   LIG    1       29.541 -21.220   8.253  0.00  0.00    -0.268 OA
BRANCH  14  17
ATOM     17  C   LIG    1       30.138 -18.346   8.624  0.00  0.00    +0.125 A 
ATOM     18  N   LIG    1       31.309 -18.273   7.969  0.00  0.00    -0.240 NA
ATOM     19  C   LIG    1       32.353 -17.693   8.600  0.00  0.00    +0.113 A 
ATOM     20  C   LIG    1       32.282 -17.163   9.875  0.00  0.00    +0.020 A 
ATOM     21  C   LIG    1       31.067 -17.236  10.542  0.00  0.00    +0.005 A 
ATOM     22  C   LIG    1       29.980 -17.837   9.911  0.00  0.00    +0.044 A 
ENDBRANCH  14  17
ENDBRANCH  12  13
BRANCH  10  23
ATOM     23  O   LIG    1       28.134 -19.426   5.223  0.00  0.00    -0.504 OA
ATOM     24  H   LIG    1       27.710 -19.207   4.361  0.00  0.00    +0.292 HD
ENDBRANCH  10  23
TORSDOF 3
ENDMDL
MODEL 3
REMARK VINA RESULT:      -8.2      1.958      3.065
REMARK  Name = *****
REMARK                            x       y       z     vdW  Elec       q    Type
REMARK                         _______ _______ _______ _____ _____    ______ ____
ROOT
ATOM      1  C   LIG    1       25.532 -20.567   8.839  0.00  0.00    +0.158 C 
ATOM      2  N   LIG    1       26.389 -21.425   7.973  0.00  0.00    -0.198 N 
ATOM      3  S   LIG    1       25.486 -22.477   6.956  0.00  0.00    +0.076 S 
ATOM      4  O   LIG    1       24.200 -22.755   7.558  0.00  0.00    -0.150 OA
ATOM      5  O   LIG    1       26.365 -23.512   6.465  0.00  0.00    -0.150 OA
ATOM      6  C   LIG    1       25.138 -21.521   5.574  0.00  0.00    +0.126 A 
ATOM      7  C   LIG    1       26.023 -20.512   5.270  0.00  0.00    +0.082 A 
ATOM      8  S   LIG    1       25.483 -19.672   3.873  0.00  0.00    -0.092 S 
ATOM      9  C   LIG    1       24.099 -20.675   3.712  0.00  0.00    +0.048 A 
ATOM     10  C   LIG    1       27.219 -20.210   5.992  0.00  0.00    +0.160 C 
ATOM     11  C   LIG    1       24.032 -21.636   4.698  0.00  0.00    +0.037 A 
ATOM     12  C   LIG    1       27.426 -20.689   7.243  0.00  0.00    +0.155 C 
ENDROOT
BRANCH  12  13
ATOM     13  C   LIG    1       28.721 -20.409   7.956  0.00  0.00    +0.269 C 
ATOM     14  N   LIG    1       28.892 -19.069   8.212  0.00  0.00    -0.265 N 
ATOM     15  H   LIG    1       28.142 -18.454   7.922  0.00  0.00    +0.157 HD
ATOM     16  O   LIG    1       29.459 -21.344   8.251  0.00  0.00    -0.268 OA
BRANCH  14  17
ATOM     17  C   LIG    1       29.977 -18.500   8.885  0.00  0.00    +0.125 A 
ATOM     18  N   LIG    1       29.904 -18.234  10.200  0.00  0.00    -0.240 NA
ATOM     19  C   LIG    1       30.980 -17.675  10.795  0.00  0.00    +0.113 A 
ATOM     20  C   LIG    1       32.154 -17.372  10.131  0.00  0.00    +0.020 A 
ATOM     21  C   LIG    1       32.224 -17.656   8.774  0.00  0.00    +0.005 A 
ATOM     22  C   LIG    1       31.121 -18.227   8.140  0.00  0.00    +0.044 A 
ENDBRANCH  14  17
ENDBRANCH  12  13
BRANCH  10  23
ATOM     23  O   LIG    1       28.140 -19.455   5.290  0.00  0.00    -0.504 OA
ATOM     24  H   LIG    1       28.986 -19.438   5.794  0.00  0.00    +0.292 HD
ENDBRANCH  10  23
TORSDOF 3
ENDMDL
MODEL 4
REMARK VINA RESULT:      -6.9      3.663      7.113
REMARK  Name = *****
REMARK                            x       y       z     vdW  Elec       q    Type
REMARK                         _______ _______ _______ _____ _____    ______ ____
ROOT
ATOM      1  C   LIG    1       26.708 -22.403   7.517  0.00  0.00    +0.158 C 
ATOM      2  N   LIG    1       25.358 -23.001   7.317  0.00  0.00    -0.198 N 
ATOM      3  S   LIG    1       24.082 -21.855   7.448  0.00  0.00    +0.076 S 
ATOM      4  O   LIG    1       24.496 -20.758   8.296  0.00  0.00    -0.150 OA
ATOM      5  O   LIG    1       22.840 -22.567   7.635  0.00  0.00    -0.150 OA
ATOM      6  C   LIG    1       23.961 -21.187   5.874  0.00  0.00    +0.126 A 
ATOM      7  C   LIG    1       24.354 -21.983   4.821  0.00  0.00    +0.082 A 
ATOM      8  S   LIG    1       24.171 -21.123   3.347  0.00  0.00    -0.092 S 
ATOM      9  C   LIG    1       23.572 -19.727   4.147  0.00  0.00    +0.048 A 
ATOM     10  C   LIG    1       24.830 -23.326   4.929  0.00  0.00    +0.160 C 
ATOM     11  C   LIG    1       23.508 -19.895   5.513  0.00  0.00    +0.037 A 
ATOM     12  C   LIG    1       25.245 -23.833   6.115  0.00  0.00    +0.155 C 
ENDROOT
BRANCH  12  13
ATOM     13  C   LIG    1       25.682 -25.270   6.213  0.00  0.00    +0.269 C 
ATOM     14  N   LIG    1       24.622 -26.120   6.420  0.00  0.00    -0.265 N 
ATOM     15  H   LIG    1       23.703 -25.697   6.456  0.00  0.00    +0.157 HD
ATOM     16  O   LIG    1       26.871 -25.546   6.087  0.00  0.00    -0.268 OA
BRANCH  14  17
ATOM     17  C   LIG    1       24.703 -27.512   6.525  0.00  0.00    +0.125 A 
ATOM     18  N   LIG    1       25.203 -28.087   7.631  0.00  0.00    -0.240 NA
ATOM     19  C   LIG    1       25.266 -29.436   7.671  0.00  0.00    +0.113 A 
ATOM     20  C   LIG    1       24.837 -30.256   6.644  0.00  0.00    +0.020 A 
ATOM     21  C   LIG    1       24.314 -29.654   5.507  0.00  0.00    +0.005 A 
ATOM     22  C   LIG    1       24.247 -28.263   5.444  0.00  0.00    +0.044 A 
ENDBRANCH  14  17
ENDBRANCH  12  13
BRANCH  10  23
ATOM     23  O   LIG    1       24.770 -24.053   3.754  0.00  0.00    -0.504 OA
ATOM     24  H   LIG    1       23.826 -24.255   3.555  0.00  0.00    +0.292 HD
ENDBRANCH  10  23
TORSDOF 3
ENDMDL
MODEL 5
REMARK VINA RESULT:      -5.7      3.785      6.491
REMARK  Name = *****
REMARK                            x       y       z     vdW  Elec       q    Type
REMARK                         _______ _______ _______ _____ _____    ______ ____
ROOT
ATOM      1  C   LIG    1       22.931 -20.071   6.091  0.00  0.00    +0.158 C 
ATOM      2  N   LIG    1       23.650 -20.880   5.066  0.00  0.00    -0.198 N 
ATOM      3  S   LIG    1       24.044 -19.986   3.651  0.00  0.00    +0.076 S 
ATOM      4  O   LIG    1       23.108 -18.896   3.484  0.00  0.00    -0.150 OA
ATOM      5  O   LIG    1       24.366 -20.915   2.593  0.00  0.00    -0.150 OA
ATOM      6  C   LIG    1       25.540 -19.239   4.035  0.00  0.00    +0.126 A 
ATOM      7  C   LIG    1       26.344 -19.878   4.952  0.00  0.00    +0.082 A 
ATOM      8  S   LIG    1       27.773 -18.960   5.205  0.00  0.00    -0.092 S 
ATOM      9  C   LIG    1       27.285 -17.751   4.089  0.00  0.00    +0.048 A 
ATOM     10  C   LIG    1       26.049 -21.122   5.591  0.00  0.00    +0.160 C 
ATOM     11  C   LIG    1       26.057 -18.024   3.526  0.00  0.00    +0.037 A 
ATOM     12  C   LIG    1       24.793 -21.632   5.594  0.00  0.00    +0.155 C 
ENDROOT
BRANCH  12  13
ATOM     13  C   LIG    1       24.522 -22.973   6.219  0.00  0.00    +0.269 C 
ATOM     14  N   LIG    1       25.149 -23.994   5.545  0.00  0.00    -0.265 N 
ATOM     15  H   LIG    1       25.719 -23.730   4.751  0.00  0.00    +0.157 HD
ATOM     16  O   LIG    1       23.824 -23.037   7.226  0.00  0.00    -0.268 OA
BRANCH  14  17
ATOM     17  C   LIG    1       25.112 -25.346   5.899  0.00  0.00    +0.125 A 
ATOM     18  N   LIG    1       24.223 -26.178   5.331  0.00  0.00    -0.240 NA
ATOM     19  C   LIG    1       24.227 -27.472   5.719  0.00  0.00    +0.113 A 
ATOM     20  C   LIG    1       25.100 -27.989   6.659  0.00  0.00    +0.020 A 
ATOM     21  C   LIG    1       26.020 -27.124   7.236  0.00  0.00    +0.005 A 
ATOM     22  C   LIG    1       26.027 -25.784   6.853  0.00  0.00    +0.044 A 
ENDBRANCH  14  17
ENDBRANCH  12  13
BRANCH  10  23
ATOM     23  O   LIG    1       27.146 -21.763   6.135  0.00  0.00    -0.504 OA
ATOM     24  H   LIG    1       27.530 -21.191   6.839  0.00  0.00    +0.292 HD
ENDBRANCH  10  23
TORSDOF 3
ENDMDL
MODEL 6
REMARK VINA RESULT:      -5.6      6.637      9.334
REMARK  Name = *****
REMARK                            x       y       z     vdW  Elec       q    Type
REMARK                         _______ _______ _______ _____ _____    ______ ____
ROOT
ATOM      1  C   LIG    1       23.497 -30.241   8.721  0.00  0.00    +0.158 C 
ATOM      2  N   LIG    1       24.977 -30.269   8.550  0.00  0.00    -0.198 N 
ATOM      3  S   LIG    1       25.636 -31.856   8.613  0.00  0.00    +0.076 S 
ATOM      4  O   LIG    1       24.775 -32.712   9.399  0.00  0.00    -0.150 OA
ATOM      5  O   LIG    1       27.060 -31.756   8.834  0.00  0.00    -0.150 OA
ATOM      6  C   LIG    1       25.492 -32.430   7.003  0.00  0.00    +0.126 A 
ATOM      7  C   LIG    1       25.500 -31.489   5.998  0.00  0.00    +0.082 A 
ATOM      8  S   LIG    1       25.327 -32.267   4.478  0.00  0.00    -0.092 S 
ATOM      9  C   LIG    1       25.255 -33.824   5.197  0.00  0.00    +0.048 A 
ATOM     10  C   LIG    1       25.642 -30.079   6.181  0.00  0.00    +0.160 C 
ATOM     11  C   LIG    1       25.356 -33.771   6.570  0.00  0.00    +0.037 A 
ATOM     12  C   LIG    1       25.459 -29.504   7.395  0.00  0.00    +0.155 C 
ENDROOT
BRANCH  12  13
ATOM     13  C   LIG    1       25.678 -28.026   7.575  0.00  0.00    +0.269 C 
ATOM     14  N   LIG    1       25.002 -27.285   6.634  0.00  0.00    -0.265 N 
ATOM     15  H   LIG    1       24.438 -27.801   5.971  0.00  0.00    +0.157 HD
ATOM     16  O   LIG    1       26.379 -27.631   8.500  0.00  0.00    -0.268 OA
BRANCH  14  17
ATOM     17  C   LIG    1       24.984 -25.889   6.557  0.00  0.00    +0.125 A 
ATOM     18  N   LIG    1       26.129 -25.188   6.579  0.00  0.00    -0.240 NA
ATOM     19  C   LIG    1       26.050 -23.841   6.512  0.00  0.00    +0.113 A 
ATOM     20  C   LIG    1       24.858 -23.146   6.413  0.00  0.00    +0.020 A 
ATOM     21  C   LIG    1       23.680 -23.879   6.385  0.00  0.00    +0.005 A 
ATOM     22  C   LIG    1       23.741 -25.269   6.460  0.00  0.00    +0.044 A 
ENDBRANCH  14  17
ENDBRANCH  12  13
BRANCH  10  23
ATOM     23  O   LIG    1       26.032 -29.388   5.049  0.00  0.00    -0.504 OA
ATOM     24  H   LIG    1       25.235 -28.979   4.638  0.00  0.00    +0.292 HD
ENDBRANCH  10  23
TORSDOF 3
ENDMDL
MODEL 7
REMARK VINA RESULT:      -5.5      8.338     10.460
REMARK  Name = *****
REMARK                            x       y       z     vdW  Elec       q    Type
REMARK                         _______ _______ _______ _____ _____    ______ ____
ROOT
ATOM      1  C   LIG    1       23.230 -30.743   9.012  0.00  0.00    +0.158 C 
ATOM      2  N   LIG    1       24.567 -31.017   8.416  0.00  0.00    -0.198 N 
ATOM      3  S   LIG    1       24.578 -30.916   6.699  0.00  0.00    +0.076 S 
ATOM      4  O   LIG    1       23.256 -31.200   6.185  0.00  0.00    -0.150 OA
ATOM      5  O   LIG    1       25.769 -31.566   6.205  0.00  0.00    -0.150 OA
ATOM      6  C   LIG    1       24.835 -29.251   6.382  0.00  0.00    +0.126 A 
ATOM      7  C   LIG    1       25.523 -28.529   7.332  0.00  0.00    +0.082 A 
ATOM      8  S   LIG    1       25.654 -26.893   6.832  0.00  0.00    -0.092 S 
ATOM      9  C   LIG    1       24.803 -27.191   5.371  0.00  0.00    +0.048 A 
ATOM     10  C   LIG    1       26.061 -29.057   8.546  0.00  0.00    +0.160 C 
ATOM     11  C   LIG    1       24.416 -28.509   5.252  0.00  0.00    +0.037 A 
ATOM     12  C   LIG    1       25.662 -30.258   9.031  0.00  0.00    +0.155 C 
ENDROOT
BRANCH  12  13
ATOM     13  C   LIG    1       26.290 -30.820  10.277  0.00  0.00    +0.269 C 
ATOM     14  N   LIG    1       26.296 -29.910  11.308  0.00  0.00    -0.265 N 
ATOM     15  H   LIG    1       25.871 -29.011  11.122  0.00  0.00    +0.157 HD
ATOM     16  O   LIG    1       26.700 -31.976  10.275  0.00  0.00    -0.268 OA
BRANCH  14  17
ATOM     17  C   LIG    1       26.784 -30.145  12.598  0.00  0.00    +0.125 A 
ATOM     18  N   LIG    1       28.053 -29.839  12.915  0.00  0.00    -0.240 NA
ATOM     19  C   LIG    1       28.472 -30.098  14.173  0.00  0.00    +0.113 A 
ATOM     20  C   LIG    1       27.666 -30.649  15.153  0.00  0.00    +0.020 A 
ATOM     21  C   LIG    1       26.355 -30.955  14.818  0.00  0.00    +0.005 A 
ATOM     22  C   LIG    1       25.906 -30.703  13.523  0.00  0.00    +0.044 A 
ENDBRANCH  14  17
ENDBRANCH  12  13
BRANCH  10  23
ATOM     23  O   LIG    1       27.042 -28.275   9.129  0.00  0.00    -0.504 OA
ATOM     24  H   LIG    1       27.182 -28.581  10.055  0.00  0.00    +0.292 HD
ENDBRANCH  10  23
TORSDOF 3
ENDMDL
MODEL 8
REMARK VINA RESULT:      -5.5      9.182     10.475
REMARK  Name = *****
REMARK                            x       y       z     vdW  Elec       q    Type
REMARK                         _______ _______ _______ _____ _____    ______ ____
ROOT
ATOM      1  C   LIG    1       25.235 -28.776   7.529  0.00  0.00    +0.158 C 
ATOM      2  N   LIG    1       24.706 -30.046   8.100  0.00  0.00    -0.198 N 
ATOM      3  S   LIG    1       24.001 -31.079   6.920  0.00  0.00    +0.076 S 
ATOM      4  O   LIG    1       23.522 -30.292   5.805  0.00  0.00    -0.150 OA
ATOM      5  O   LIG    1       23.188 -32.064   7.594  0.00  0.00    -0.150 OA
ATOM      6  C   LIG    1       25.329 -31.972   6.303  0.00  0.00    +0.126 A 
ATOM      7  C   LIG    1       26.403 -32.163   7.143  0.00  0.00    +0.082 A 
ATOM      8  S   LIG    1       27.622 -33.057   6.330  0.00  0.00    -0.092 S 
ATOM      9  C   LIG    1       26.688 -33.169   4.893  0.00  0.00    +0.048 A 
ATOM     10  C   LIG    1       26.493 -31.703   8.493  0.00  0.00    +0.160 C 
ATOM     11  C   LIG    1       25.468 -32.539   5.013  0.00  0.00    +0.037 A 
ATOM     12  C   LIG    1       25.654 -30.750   8.970  0.00  0.00    +0.155 C 
ENDROOT
BRANCH  12  13
ATOM     13  C   LIG    1       25.728 -30.329  10.413  0.00  0.00    +0.269 C 
ATOM     14  N   LIG    1       26.904 -29.679  10.703  0.00  0.00    -0.265 N 
ATOM     15  H   LIG    1       27.548 -29.543   9.933  0.00  0.00    +0.157 HD
ATOM     16  O   LIG    1       24.783 -30.568  11.157  0.00  0.00    -0.268 OA
BRANCH  14  17
ATOM     17  C   LIG    1       27.253 -29.143  11.946  0.00  0.00    +0.125 A 
ATOM     18  N   LIG    1       27.986 -29.857  12.817  0.00  0.00    -0.240 NA
ATOM     19  C   LIG    1       28.284 -29.292  14.008  0.00  0.00    +0.113 A 
ATOM     20  C   LIG    1       27.886 -28.020  14.375  0.00  0.00    +0.020 A 
ATOM     21  C   LIG    1       27.135 -27.286  13.466  0.00  0.00    +0.005 A 
ATOM     22  C   LIG    1       26.812 -27.855  12.235  0.00  0.00    +0.044 A 
ENDBRANCH  14  17
ENDBRANCH  12  13
BRANCH  10  23
ATOM     23  O   LIG    1       27.447 -32.347   9.259  0.00  0.00    -0.504 OA
ATOM     24  H   LIG    1       28.004 -31.669   9.707  0.00  0.00    +0.292 HD
ENDBRANCH  10  23
TORSDOF 3
ENDMDL
MODEL 9
REMARK VINA RESULT:      -5.5      8.329      9.719
REMARK  Name = *****
REMARK                            x       y       z     vdW  Elec       q    Type
REMARK                         _______ _______ _______ _____ _____    ______ ____
ROOT
ATOM      1  C   LIG    1       26.204 -28.004   7.550  0.00  0.00    +0.158 C 
ATOM      2  N   LIG    1       25.473 -28.910   8.481  0.00  0.00    -0.198 N 
ATOM      3  S   LIG    1       24.215 -29.797   7.715  0.00  0.00    +0.076 S 
ATOM      4  O   LIG    1       23.736 -29.069   6.560  0.00  0.00    -0.150 OA
ATOM      5  O   LIG    1       23.335 -30.324   8.732  0.00  0.00    -0.150 OA
ATOM      6  C   LIG    1       25.009 -31.178   7.079  0.00  0.00    +0.126 A 
ATOM      7  C   LIG    1       26.147 -31.603   7.727  0.00  0.00    +0.082 A 
ATOM      8  S   LIG    1       26.791 -32.976   6.924  0.00  0.00    -0.092 S 
ATOM      9  C   LIG    1       25.539 -32.970   5.748  0.00  0.00    +0.048 A 
ATOM     10  C   LIG    1       26.707 -31.005   8.898  0.00  0.00    +0.160 C 
ATOM     11  C   LIG    1       24.640 -31.945   5.947  0.00  0.00    +0.037 A 
ATOM     12  C   LIG    1       26.347 -29.761   9.296  0.00  0.00    +0.155 C 
ENDROOT
BRANCH  12  13
ATOM     13  C   LIG    1       26.904 -29.180  10.567  0.00  0.00    +0.269 C 
ATOM     14  N   LIG    1       25.938 -28.549  11.314  0.00  0.00    -0.265 N 
ATOM     15  H   LIG    1       24.995 -28.570  10.946  0.00  0.00    +0.157 HD
ATOM     16  O   LIG    1       28.094 -29.328  10.824  0.00  0.00    -0.268 OA
BRANCH  14  17
ATOM     17  C   LIG    1       26.139 -27.939  12.557  0.00  0.00    +0.125 A 
ATOM     18  N   LIG    1       25.803 -28.573  13.692  0.00  0.00    -0.240 NA
ATOM     19  C   LIG    1       26.010 -27.931  14.862  0.00  0.00    +0.113 A 
ATOM     20  C   LIG    1       26.556 -26.665  14.957  0.00  0.00    +0.020 A 
ATOM     21  C   LIG    1       26.907 -26.019  13.779  0.00  0.00    +0.005 A 
ATOM     22  C   LIG    1       26.695 -26.663  12.561  0.00  0.00    +0.044 A 
ENDBRANCH  14  17
ENDBRANCH  12  13
BRANCH  10  23
ATOM     23  O   LIG    1       27.579 -31.819   9.598  0.00  0.00    -0.504 OA
ATOM     24  H   LIG    1       28.503 -31.556   9.378  0.00  0.00    +0.292 HD
ENDBRANCH  10  23
TORSDOF 3
ENDMDL
