MODEL 1
REMARK VINA RESULT:      -2.0      0.000      0.000
REMARK  Name = *****
REMARK                            x       y       z     vdW  Elec       q    Type
REMARK                         _______ _______ _______ _____ _____    ______ ____
ROOT
ATOM      1  C   LIG    1       28.459 -19.741   5.655  0.00  0.00    +0.121 A 
ATOM      2  C   LIG    1       27.165 -20.279   5.639  0.00  0.00    +0.056 A 
ATOM      3  C   LIG    1       26.117 -19.603   4.949  0.00  0.00    +0.008 A 
ATOM      4  C   LIG    1       24.823 -19.991   4.481  0.00  0.00    -0.008 C 
ATOM      5  C   LIG    1       24.313 -18.908   3.772  0.00  0.00    +0.028 C 
ATOM      6  N   LIG    1       25.140 -17.795   3.985  0.00  0.00    -0.280 N 
ATOM      7  C   LIG    1       24.774 -16.412   3.839  0.00  0.00    +0.263 C 
ATOM      8  O   LIG    1       23.556 -16.166   3.910  0.00  0.00    -0.267 OA
ATOM      9  C   LIG    1       23.122 -18.884   2.863  0.00  0.00    +0.064 C 
ATOM     10  C   LIG    1       26.370 -18.333   4.411  0.00  0.00    +0.057 A 
ATOM     11  C   LIG    1       27.669 -17.849   4.426  0.00  0.00    +0.030 A 
ATOM     12  C   LIG    1       28.698 -18.559   4.995  0.00  0.00    +0.048 A 
ENDROOT
BRANCH   7  13
ATOM     13  C   LIG    1       25.689 -15.222   3.753  0.00  0.00    +0.040 A 
ATOM     14  C   LIG    1       26.318 -14.851   2.564  0.00  0.00    +0.015 A 
ATOM     15  C   LIG    1       27.378 -13.933   2.556  0.00  0.00    +0.021 A 
ATOM     16  C   LIG    1       27.648 -13.195   3.697  0.00  0.00    +0.041 A 
ATOM     17 CL   LIG    1       28.891 -12.008   3.672  0.00  0.00    -0.084 Cl
ATOM     18  C   LIG    1       26.874 -13.388   4.840  0.00  0.00    +0.021 A 
ATOM     19  C   LIG    1       25.910 -14.409   4.873  0.00  0.00    +0.015 A 
ENDBRANCH   7  13
BRANCH   1  21
ATOM     20  C   LIG    1       28.992 -21.552   7.062  0.00  0.00    +0.277 C 
ATOM     21  O   LIG    1       29.455 -20.433   6.293  0.00  0.00    -0.495 OA
ENDBRANCH   1  21
BRANCH   4  22
ATOM     22  C   LIG    1       24.216 -21.365   4.597  0.00  0.00    +0.158 C 
BRANCH  22  23
ATOM     23  C   LIG    1       22.983 -21.509   5.481  0.00  0.00    +0.309 C 
ATOM     24  O   LIG    1       23.061 -21.572   6.682  0.00  0.00    -0.251 OA
BRANCH  23  25
ATOM     25  O   LIG    1       21.776 -21.566   4.856  0.00  0.00    -0.480 OA
ATOM     26  H   LIG    1       21.804 -21.732   3.903  0.00  0.00    +0.295 HD
ENDBRANCH  23  25
ENDBRANCH  22  23
ENDBRANCH   4  22
TORSDOF 5
ENDMDL
MODEL 2
REMARK VINA RESULT:       0.7      0.703      1.119
REMARK  Name = *****
REMARK                            x       y       z     vdW  Elec       q    Type
REMARK                         _______ _______ _______ _____ _____    ______ ____
ROOT
ATOM      1  C   LIG    1       27.782 -20.214   5.435  0.00  0.00    +0.121 A 
ATOM      2  C   LIG    1       26.438 -20.610   5.392  0.00  0.00    +0.056 A 
ATOM      3  C   LIG    1       25.472 -19.793   4.735  0.00  0.00    +0.008 A 
ATOM      4  C   LIG    1       24.147 -20.019   4.248  0.00  0.00    -0.008 C 
ATOM      5  C   LIG    1       23.759 -18.854   3.591  0.00  0.00    +0.028 C 
ATOM      6  N   LIG    1       24.698 -17.847   3.859  0.00  0.00    -0.280 N 
ATOM      7  C   LIG    1       24.483 -16.428   3.780  0.00  0.00    +0.263 C 
ATOM      8  O   LIG    1       23.297 -16.057   3.862  0.00  0.00    -0.267 OA
ATOM      9  C   LIG    1       22.582 -18.660   2.684  0.00  0.00    +0.064 C 
ATOM     10  C   LIG    1       25.862 -18.533   4.259  0.00  0.00    +0.057 A 
ATOM     11  C   LIG    1       27.205 -18.192   4.298  0.00  0.00    +0.030 A 
ATOM     12  C   LIG    1       28.149 -19.034   4.833  0.00  0.00    +0.048 A 
ENDROOT
BRANCH   7  13
ATOM     13  C   LIG    1       25.520 -15.340   3.752  0.00  0.00    +0.040 A 
ATOM     14  C   LIG    1       25.398 -14.177   4.515  0.00  0.00    +0.015 A 
ATOM     15  C   LIG    1       26.206 -13.057   4.268  0.00  0.00    +0.021 A 
ATOM     16  C   LIG    1       27.304 -13.180   3.432  0.00  0.00    +0.041 A 
ATOM     17 CL   LIG    1       28.348 -11.836   3.190  0.00  0.00    -0.084 Cl
ATOM     18  C   LIG    1       27.579 -14.408   2.834  0.00  0.00    +0.021 A 
ATOM     19  C   LIG    1       26.681 -15.479   2.981  0.00  0.00    +0.015 A 
ENDBRANCH   7  13
BRANCH   1  21
ATOM     20  C   LIG    1       29.475 -20.400   7.060  0.00  0.00    +0.277 C 
ATOM     21  O   LIG    1       28.695 -21.038   6.039  0.00  0.00    -0.495 OA
ENDBRANCH   1  21
BRANCH   4  22
ATOM     22  C   LIG    1       23.397 -21.324   4.297  0.00  0.00    +0.158 C 
BRANCH  22  23
ATOM     23  C   LIG    1       22.301 -21.458   5.348  0.00  0.00    +0.309 C 
ATOM     24  O   LIG    1       22.549 -21.532   6.524  0.00  0.00    -0.251 OA
BRANCH  23  25
ATOM     25  O   LIG    1       21.016 -21.492   4.901  0.00  0.00    -0.480 OA
ATOM     26  H   LIG    1       20.868 -21.125   4.019  0.00  0.00    +0.295 HD
ENDBRANCH  23  25
ENDBRANCH  22  23
ENDBRANCH   4  22
TORSDOF 5
ENDMDL
