MODEL 1
REMARK VINA RESULT:      -4.4      0.000      0.000
REMARK  Name = *****
REMARK                            x       y       z     vdW  Elec       q    Type
REMARK                         _______ _______ _______ _____ _____    ______ ____
ROOT
ATOM      1  C   LIG    1       24.709 -13.569   4.409  0.00  0.00    +0.002 C 
ENDROOT
BRANCH   1   2
ATOM      2  C   LIG    1       24.008 -12.206   4.343  0.00  0.00    +0.015 C 
BRANCH   2   3
ATOM      3  C   LIG    1       23.918 -11.678   2.911  0.00  0.00    +0.077 C 
BRANCH   3   4
ATOM      4  N   LIG    1       24.139 -12.765   1.962  0.00  0.00    -0.330 NA
ATOM      5  H   LIG    1       23.345 -12.825   1.325  0.00  0.00    +0.118 HD
ATOM      6  H   LIG    1       24.949 -12.546   1.381  0.00  0.00    +0.118 HD
ENDBRANCH   3   4
ENDBRANCH   2   3
ENDBRANCH   1   2
BRANCH   1   7
ATOM      7  C   LIG    1       26.084 -13.446   5.077  0.00  0.00    +0.011 C 
BRANCH   7   8
ATOM      8  C   LIG    1       27.250 -13.968   4.235  0.00  0.00    +0.120 C 
BRANCH   8   9
ATOM      9  C   LIG    1       26.847 -14.839   3.066  0.00  0.00    +0.305 C 
ATOM     10  O   LIG    1       26.500 -16.010   3.132  0.00  0.00    -0.251 OA
BRANCH   9  11
ATOM     11  O   LIG    1       26.901 -14.175   1.889  0.00  0.00    -0.481 OA
ATOM     12  H   LIG    1       26.042 -13.815   1.597  0.00  0.00    +0.295 HD
ENDBRANCH   9  11
ENDBRANCH   8   9
ENDBRANCH   7   8
ENDBRANCH   1   7
TORSDOF 7
ENDMDL
MODEL 2
REMARK VINA RESULT:      -4.3      6.670      7.685
REMARK  Name = *****
REMARK                            x       y       z     vdW  Elec       q    Type
REMARK                         _______ _______ _______ _____ _____    ______ ____
ROOT
ATOM      1  C   LIG    1       24.556 -21.339   6.374  0.00  0.00    +0.002 C 
ENDROOT
BRANCH   1   2
ATOM      2  C   LIG    1       25.693 -20.569   7.058  0.00  0.00    +0.015 C 
BRANCH   2   3
ATOM      3  C   LIG    1       26.905 -20.404   6.140  0.00  0.00    +0.077 C 
BRANCH   3   4
ATOM      4  N   LIG    1       26.466 -20.198   4.763  0.00  0.00    -0.330 NA
ATOM      5  H   LIG    1       26.156 -21.087   4.370  0.00  0.00    +0.118 HD
ATOM      6  H   LIG    1       25.648 -19.589   4.757  0.00  0.00    +0.118 HD
ENDBRANCH   3   4
ENDBRANCH   2   3
ENDBRANCH   1   2
BRANCH   1   7
ATOM      7  C   LIG    1       23.235 -20.567   6.472  0.00  0.00    +0.011 C 
BRANCH   7   8
ATOM      8  C   LIG    1       22.510 -20.374   5.139  0.00  0.00    +0.120 C 
BRANCH   8   9
ATOM      9  C   LIG    1       22.788 -19.056   4.452  0.00  0.00    +0.305 C 
ATOM     10  O   LIG    1       22.138 -18.028   4.583  0.00  0.00    -0.251 OA
BRANCH   9  11
ATOM     11  O   LIG    1       23.875 -19.116   3.646  0.00  0.00    -0.481 OA
ATOM     12  H   LIG    1       23.891 -18.431   2.952  0.00  0.00    +0.295 HD
ENDBRANCH   9  11
ENDBRANCH   8   9
ENDBRANCH   7   8
ENDBRANCH   1   7
TORSDOF 7
ENDMDL
MODEL 3
REMARK VINA RESULT:      -4.3      6.263      7.119
REMARK  Name = *****
REMARK                            x       y       z     vdW  Elec       q    Type
REMARK                         _______ _______ _______ _____ _____    ______ ____
ROOT
ATOM      1  C   LIG    1       22.322 -19.495   5.275  0.00  0.00    +0.002 C 
ENDROOT
BRANCH   1   2
ATOM      2  C   LIG    1       22.961 -20.834   5.661  0.00  0.00    +0.015 C 
BRANCH   2   3
ATOM      3  C   LIG    1       23.574 -20.792   7.062  0.00  0.00    +0.077 C 
BRANCH   3   4
ATOM      4  N   LIG    1       25.029 -20.700   6.969  0.00  0.00    -0.330 NA
ATOM      5  H   LIG    1       25.377 -20.086   7.705  0.00  0.00    +0.118 HD
ATOM      6  H   LIG    1       25.437 -21.617   7.151  0.00  0.00    +0.118 HD
ENDBRANCH   3   4
ENDBRANCH   2   3
ENDBRANCH   1   2
BRANCH   1   7
ATOM      7  C   LIG    1       23.027 -18.883   4.058  0.00  0.00    +0.011 C 
BRANCH   7   8
ATOM      8  C   LIG    1       24.171 -19.727   3.494  0.00  0.00    +0.120 C 
BRANCH   8   9
ATOM      9  C   LIG    1       25.550 -19.136   3.688  0.00  0.00    +0.305 C 
ATOM     10  O   LIG    1       25.899 -18.011   3.362  0.00  0.00    -0.251 OA
BRANCH   9  11
ATOM     11  O   LIG    1       26.400 -20.002   4.289  0.00  0.00    -0.481 OA
ATOM     12  H   LIG    1       26.864 -20.595   3.669  0.00  0.00    +0.295 HD
ENDBRANCH   9  11
ENDBRANCH   8   9
ENDBRANCH   7   8
ENDBRANCH   1   7
TORSDOF 7
ENDMDL
MODEL 4
REMARK VINA RESULT:      -4.1      2.915      4.002
REMARK  Name = *****
REMARK                            x       y       z     vdW  Elec       q    Type
REMARK                         _______ _______ _______ _____ _____    ______ ____
ROOT
ATOM      1  C   LIG    1       27.263 -14.719   3.816  0.00  0.00    +0.002 C 
ENDROOT
BRANCH   1   2
ATOM      2  C   LIG    1       27.462 -13.475   4.691  0.00  0.00    +0.015 C 
BRANCH   2   3
ATOM      3  C   LIG    1       28.691 -12.669   4.270  0.00  0.00    +0.077 C 
BRANCH   3   4
ATOM      4  N   LIG    1       29.117 -11.799   5.362  0.00  0.00    -0.330 NA
ATOM      5  H   LIG    1       29.796 -12.290   5.942  0.00  0.00    +0.118 HD
ATOM      6  H   LIG    1       29.608 -10.991   4.978  0.00  0.00    +0.118 HD
ENDBRANCH   3   4
ENDBRANCH   2   3
ENDBRANCH   1   2
BRANCH   1   7
ATOM      7  C   LIG    1       25.833 -14.777   3.264  0.00  0.00    +0.011 C 
BRANCH   7   8
ATOM      8  C   LIG    1       24.767 -14.201   4.198  0.00  0.00    +0.120 C 
BRANCH   8   9
ATOM      9  C   LIG    1       24.101 -12.939   3.697  0.00  0.00    +0.305 C 
ATOM     10  O   LIG    1       23.895 -11.929   4.355  0.00  0.00    -0.251 OA
BRANCH   9  11
ATOM     11  O   LIG    1       23.741 -13.030   2.396  0.00  0.00    -0.481 OA
ATOM     12  H   LIG    1       24.062 -12.292   1.844  0.00  0.00    +0.295 HD
ENDBRANCH   9  11
ENDBRANCH   8   9
ENDBRANCH   7   8
ENDBRANCH   1   7
TORSDOF 7
ENDMDL
MODEL 5
REMARK VINA RESULT:      -4.1      1.875      2.108
REMARK  Name = *****
REMARK                            x       y       z     vdW  Elec       q    Type
REMARK                         _______ _______ _______ _____ _____    ______ ____
ROOT
ATOM      1  C   LIG    1       24.982 -14.201   4.292  0.00  0.00    +0.002 C 
ENDROOT
BRANCH   1   2
ATOM      2  C   LIG    1       23.921 -13.640   3.338  0.00  0.00    +0.015 C 
BRANCH   2   3
ATOM      3  C   LIG    1       23.943 -12.112   3.291  0.00  0.00    +0.077 C 
BRANCH   3   4
ATOM      4  N   LIG    1       24.071 -11.655   1.910  0.00  0.00    -0.330 NA
ATOM      5  H   LIG    1       23.609 -12.320   1.290  0.00  0.00    +0.118 HD
ATOM      6  H   LIG    1       23.570 -10.774   1.799  0.00  0.00    +0.118 HD
ENDBRANCH   3   4
ENDBRANCH   2   3
ENDBRANCH   1   2
BRANCH   1   7
ATOM      7  C   LIG    1       26.128 -14.857   3.511  0.00  0.00    +0.011 C 
BRANCH   7   8
ATOM      8  C   LIG    1       27.116 -13.872   2.883  0.00  0.00    +0.120 C 
BRANCH   8   9
ATOM      9  C   LIG    1       28.156 -13.325   3.835  0.00  0.00    +0.305 C 
ATOM     10  O   LIG    1       27.945 -12.917   4.969  0.00  0.00    -0.251 OA
BRANCH   9  11
ATOM     11  O   LIG    1       29.398 -13.332   3.298  0.00  0.00    -0.481 OA
ATOM     12  H   LIG    1       29.596 -12.550   2.749  0.00  0.00    +0.295 HD
ENDBRANCH   9  11
ENDBRANCH   8   9
ENDBRANCH   7   8
ENDBRANCH   1   7
TORSDOF 7
ENDMDL
MODEL 6
REMARK VINA RESULT:      -4.1      6.561      7.189
REMARK  Name = *****
REMARK                            x       y       z     vdW  Elec       q    Type
REMARK                         _______ _______ _______ _____ _____    ______ ____
ROOT
ATOM      1  C   LIG    1       23.106 -20.557   6.644  0.00  0.00    +0.002 C 
ENDROOT
BRANCH   1   2
ATOM      2  C   LIG    1       22.520 -20.534   5.227  0.00  0.00    +0.015 C 
BRANCH   2   3
ATOM      3  C   LIG    1       22.461 -19.117   4.655  0.00  0.00    +0.077 C 
BRANCH   3   4
ATOM      4  N   LIG    1       23.560 -18.912   3.716  0.00  0.00    -0.330 NA
ATOM      5  H   LIG    1       24.442 -18.885   4.227  0.00  0.00    +0.118 HD
ATOM      6  H   LIG    1       23.623 -19.714   3.089  0.00  0.00    +0.118 HD
ENDBRANCH   3   4
ENDBRANCH   2   3
ENDBRANCH   1   2
BRANCH   1   7
ATOM      7  C   LIG    1       24.387 -21.400   6.693  0.00  0.00    +0.011 C 
BRANCH   7   8
ATOM      8  C   LIG    1       25.656 -20.610   7.017  0.00  0.00    +0.120 C 
BRANCH   8   9
ATOM      9  C   LIG    1       26.544 -20.322   5.827  0.00  0.00    +0.305 C 
ATOM     10  O   LIG    1       27.694 -19.908   5.874  0.00  0.00    -0.251 OA
BRANCH   9  11
ATOM     11  O   LIG    1       25.927 -20.583   4.651  0.00  0.00    -0.481 OA
ATOM     12  H   LIG    1       26.213 -20.006   3.918  0.00  0.00    +0.295 HD
ENDBRANCH   9  11
ENDBRANCH   8   9
ENDBRANCH   7   8
ENDBRANCH   1   7
TORSDOF 7
ENDMDL
MODEL 7
REMARK VINA RESULT:      -4.0      2.209      2.731
REMARK  Name = *****
REMARK                            x       y       z     vdW  Elec       q    Type
REMARK                         _______ _______ _______ _____ _____    ______ ____
ROOT
ATOM      1  C   LIG    1       26.062 -13.651   2.197  0.00  0.00    +0.002 C 
ENDROOT
BRANCH   1   2
ATOM      2  C   LIG    1       24.734 -12.918   2.422  0.00  0.00    +0.015 C 
BRANCH   2   3
ATOM      3  C   LIG    1       24.059 -13.345   3.725  0.00  0.00    +0.077 C 
BRANCH   3   4
ATOM      4  N   LIG    1       24.077 -12.243   4.683  0.00  0.00    -0.330 NA
ATOM      5  H   LIG    1       23.493 -12.481   5.484  0.00  0.00    +0.118 HD
ATOM      6  H   LIG    1       25.022 -12.129   5.048  0.00  0.00    +0.118 HD
ENDBRANCH   3   4
ENDBRANCH   2   3
ENDBRANCH   1   2
BRANCH   1   7
ATOM      7  C   LIG    1       26.240 -14.787   3.213  0.00  0.00    +0.011 C 
BRANCH   7   8
ATOM      8  C   LIG    1       27.547 -14.731   4.006  0.00  0.00    +0.120 C 
BRANCH   8   9
ATOM      9  C   LIG    1       27.863 -13.383   4.614  0.00  0.00    +0.305 C 
ATOM     10  O   LIG    1       28.770 -12.638   4.272  0.00  0.00    -0.251 OA
BRANCH   9  11
ATOM     11  O   LIG    1       27.008 -13.057   5.612  0.00  0.00    -0.481 OA
ATOM     12  H   LIG    1       27.190 -13.517   6.453  0.00  0.00    +0.295 HD
ENDBRANCH   9  11
ENDBRANCH   8   9
ENDBRANCH   7   8
ENDBRANCH   1   7
TORSDOF 7
ENDMDL
MODEL 8
REMARK VINA RESULT:      -3.9      7.478      8.297
REMARK  Name = *****
REMARK                            x       y       z     vdW  Elec       q    Type
REMARK                         _______ _______ _______ _____ _____    ______ ____
ROOT
ATOM      1  C   LIG    1       25.813 -20.448   5.990  0.00  0.00    +0.002 C 
ENDROOT
BRANCH   1   2
ATOM      2  C   LIG    1       26.952 -20.372   7.014  0.00  0.00    +0.015 C 
BRANCH   2   3
ATOM      3  C   LIG    1       28.315 -20.199   6.342  0.00  0.00    +0.077 C 
BRANCH   3   4
ATOM      4  N   LIG    1       28.183 -19.365   5.151  0.00  0.00    -0.330 NA
ATOM      5  H   LIG    1       27.204 -19.331   4.868  0.00  0.00    +0.118 HD
ATOM      6  H   LIG    1       28.443 -18.406   5.380  0.00  0.00    +0.118 HD
ENDBRANCH   3   4
ENDBRANCH   2   3
ENDBRANCH   1   2
BRANCH   1   7
ATOM      7  C   LIG    1       24.757 -21.473   6.421  0.00  0.00    +0.011 C 
BRANCH   7   8
ATOM      8  C   LIG    1       23.394 -20.873   6.771  0.00  0.00    +0.120 C 
BRANCH   8   9
ATOM      9  C   LIG    1       22.563 -20.451   5.580  0.00  0.00    +0.305 C 
ATOM     10  O   LIG    1       22.404 -19.303   5.188  0.00  0.00    -0.251 OA
BRANCH   9  11
ATOM     11  O   LIG    1       21.988 -21.505   4.955  0.00  0.00    -0.481 OA
ATOM     12  H   LIG    1       22.296 -21.637   4.039  0.00  0.00    +0.295 HD
ENDBRANCH   9  11
ENDBRANCH   8   9
ENDBRANCH   7   8
ENDBRANCH   1   7
TORSDOF 7
ENDMDL
MODEL 9
REMARK VINA RESULT:      -3.8      7.071      7.506
REMARK  Name = *****
REMARK                            x       y       z     vdW  Elec       q    Type
REMARK                         _______ _______ _______ _____ _____    ______ ____
ROOT
ATOM      1  C   LIG    1       23.889 -19.395   3.892  0.00  0.00    +0.002 C 
ENDROOT
BRANCH   1   2
ATOM      2  C   LIG    1       22.679 -19.429   4.834  0.00  0.00    +0.015 C 
BRANCH   2   3
ATOM      3  C   LIG    1       22.514 -20.793   5.504  0.00  0.00    +0.077 C 
BRANCH   3   4
ATOM      4  N   LIG    1       21.492 -21.571   4.809  0.00  0.00    -0.330 NA
ATOM      5  H   LIG    1       21.301 -22.425   5.334  0.00  0.00    +0.118 HD
ATOM      6  H   LIG    1       20.617 -21.047   4.799  0.00  0.00    +0.118 HD
ENDBRANCH   3   4
ENDBRANCH   2   3
ENDBRANCH   1   2
BRANCH   1   7
ATOM      7  C   LIG    1       24.919 -20.462   4.285  0.00  0.00    +0.011 C 
BRANCH   7   8
ATOM      8  C   LIG    1       26.229 -19.905   4.844  0.00  0.00    +0.120 C 
BRANCH   8   9
ATOM      9  C   LIG    1       26.618 -20.443   6.203  0.00  0.00    +0.305 C 
ATOM     10  O   LIG    1       27.736 -20.814   6.533  0.00  0.00    -0.251 OA
BRANCH   9  11
ATOM     11  O   LIG    1       25.572 -20.474   7.061  0.00  0.00    -0.481 OA
ATOM     12  H   LIG    1       25.675 -19.883   7.831  0.00  0.00    +0.295 HD
ENDBRANCH   9  11
ENDBRANCH   8   9
ENDBRANCH   7   8
ENDBRANCH   1   7
TORSDOF 7
ENDMDL
