MODEL 1
REMARK VINA RESULT:      -4.3      0.000      0.000
REMARK  Name = *****
REMARK                            x       y       z     vdW  Elec       q    Type
REMARK                         _______ _______ _______ _____ _____    ______ ____
ROOT
ATOM      1  C   LIG    1       30.191 -21.157   8.195  0.00  0.00    +0.255 C 
ENDROOT
BRANCH   1   3
ATOM      2  C   LIG    1       31.600 -19.193   8.992  0.00  0.00    +0.192 C 
ATOM      3  N   LIG    1       30.467 -19.619   8.060  0.00  0.00    +0.245 N 
ATOM      4  C   LIG    1       30.870 -19.313   6.625  0.00  0.00    +0.192 C 
ATOM      5  C   LIG    1       29.210 -18.824   8.405  0.00  0.00    +0.192 C 
ENDBRANCH   1   3
BRANCH   1   6
ATOM      6  C   LIG    1       31.084 -21.935   9.164  0.00  0.00    +0.350 C 
ATOM      7  O   LIG    1       30.836 -22.086  10.351  0.00  0.00    -0.245 OA
BRANCH   6   8
ATOM      8  O   LIG    1       32.195 -22.459   8.604  0.00  0.00    -0.477 OA
ATOM      9  H   LIG    1       32.146 -23.331   8.164  0.00  0.00    +0.295 HD
ENDBRANCH   6   8
ENDBRANCH   1   6
TORSDOF 3
ENDMDL
MODEL 2
REMARK VINA RESULT:      -4.2      0.652      1.792
REMARK  Name = *****
REMARK                            x       y       z     vdW  Elec       q    Type
REMARK                         _______ _______ _______ _____ _____    ______ ____
ROOT
ATOM      1  C   LIG    1       31.459 -20.360   8.663  0.00  0.00    +0.255 C 
ENDROOT
BRANCH   1   3
ATOM      2  C   LIG    1       29.214 -20.980   7.635  0.00  0.00    +0.192 C 
ATOM      3  N   LIG    1       30.210 -19.845   7.867  0.00  0.00    +0.245 N 
ATOM      4  C   LIG    1       29.527 -18.749   8.673  0.00  0.00    +0.192 C 
ATOM      5  C   LIG    1       30.642 -19.276   6.517  0.00  0.00    +0.192 C 
ENDBRANCH   1   3
BRANCH   1   6
ATOM      6  C   LIG    1       31.383 -21.786   9.217  0.00  0.00    +0.350 C 
ATOM      7  O   LIG    1       30.732 -22.104  10.201  0.00  0.00    -0.245 OA
BRANCH   6   8
ATOM      8  O   LIG    1       32.104 -22.694   8.526  0.00  0.00    -0.477 OA
ATOM      9  H   LIG    1       32.034 -23.640   8.758  0.00  0.00    +0.295 HD
ENDBRANCH   6   8
ENDBRANCH   1   6
TORSDOF 3
ENDMDL
MODEL 3
REMARK VINA RESULT:      -4.2      2.581      3.356
REMARK  Name = *****
REMARK                            x       y       z     vdW  Elec       q    Type
REMARK                         _______ _______ _______ _____ _____    ______ ____
ROOT
ATOM      1  C   LIG    1       30.261 -18.210   8.781  0.00  0.00    +0.255 C 
ENDROOT
BRANCH   1   3
ATOM      2  C   LIG    1       28.679 -19.941   7.793  0.00  0.00    +0.192 C 
ATOM      3  N   LIG    1       30.140 -19.515   7.920  0.00  0.00    +0.245 N 
ATOM      4  C   LIG    1       30.694 -19.242   6.528  0.00  0.00    +0.192 C 
ATOM      5  C   LIG    1       30.937 -20.648   8.561  0.00  0.00    +0.192 C 
ENDBRANCH   1   3
BRANCH   1   6
ATOM      6  C   LIG    1       31.669 -17.810   9.232  0.00  0.00    +0.350 C 
ATOM      7  O   LIG    1       32.160 -18.129  10.305  0.00  0.00    -0.245 OA
BRANCH   6   8
ATOM      8  O   LIG    1       32.351 -17.061   8.340  0.00  0.00    -0.477 OA
ATOM      9  H   LIG    1       32.734 -17.487   7.549  0.00  0.00    +0.295 HD
ENDBRANCH   6   8
ENDBRANCH   1   6
TORSDOF 3
ENDMDL
MODEL 4
REMARK VINA RESULT:      -4.2      2.587      3.333
REMARK  Name = *****
REMARK                            x       y       z     vdW  Elec       q    Type
REMARK                         _______ _______ _______ _____ _____    ______ ____
ROOT
ATOM      1  C   LIG    1       30.249 -18.215   8.807  0.00  0.00    +0.255 C 
ENDROOT
BRANCH   1   3
ATOM      2  C   LIG    1       30.918 -20.658   8.561  0.00  0.00    +0.192 C 
ATOM      3  N   LIG    1       30.140 -19.507   7.926  0.00  0.00    +0.245 N 
ATOM      4  C   LIG    1       28.676 -19.907   7.813  0.00  0.00    +0.192 C 
ATOM      5  C   LIG    1       30.694 -19.242   6.527  0.00  0.00    +0.192 C 
ENDBRANCH   1   3
BRANCH   1   6
ATOM      6  C   LIG    1       31.654 -17.797   9.248  0.00  0.00    +0.350 C 
ATOM      7  O   LIG    1       32.155 -18.105  10.320  0.00  0.00    -0.245 OA
BRANCH   6   8
ATOM      8  O   LIG    1       32.322 -17.045   8.348  0.00  0.00    -0.477 OA
ATOM      9  H   LIG    1       33.202 -17.336   8.037  0.00  0.00    +0.295 HD
ENDBRANCH   6   8
ENDBRANCH   1   6
TORSDOF 3
ENDMDL
MODEL 5
REMARK VINA RESULT:      -4.0      5.241      6.042
REMARK  Name = *****
REMARK                            x       y       z     vdW  Elec       q    Type
REMARK                         _______ _______ _______ _____ _____    ______ ____
ROOT
ATOM      1  C   LIG    1       25.663 -20.644   6.990  0.00  0.00    +0.255 C 
ENDROOT
BRANCH   1   3
ATOM      2  C   LIG    1       23.557 -22.023   7.367  0.00  0.00    +0.192 C 
ATOM      3  N   LIG    1       24.918 -21.987   6.675  0.00  0.00    +0.245 N 
ATOM      4  C   LIG    1       24.707 -22.095   5.171  0.00  0.00    +0.192 C 
ATOM      5  C   LIG    1       25.750 -23.178   7.147  0.00  0.00    +0.192 C 
ENDBRANCH   1   3
BRANCH   1   6
ATOM      6  C   LIG    1       26.414 -20.569   8.321  0.00  0.00    +0.350 C 
ATOM      7  O   LIG    1       25.867 -20.526   9.414  0.00  0.00    -0.245 OA
BRANCH   6   8
ATOM      8  O   LIG    1       27.759 -20.553   8.206  0.00  0.00    -0.477 OA
ATOM      9  H   LIG    1       28.187 -21.086   7.507  0.00  0.00    +0.295 HD
ENDBRANCH   6   8
ENDBRANCH   1   6
TORSDOF 3
ENDMDL
MODEL 6
REMARK VINA RESULT:      -3.9      5.218      6.112
REMARK  Name = *****
REMARK                            x       y       z     vdW  Elec       q    Type
REMARK                         _______ _______ _______ _____ _____    ______ ____
ROOT
ATOM      1  C   LIG    1       25.627 -20.589   7.009  0.00  0.00    +0.255 C 
ENDROOT
BRANCH   1   3
ATOM      2  C   LIG    1       24.722 -22.106   5.176  0.00  0.00    +0.192 C 
ATOM      3  N   LIG    1       24.921 -21.951   6.683  0.00  0.00    +0.245 N 
ATOM      4  C   LIG    1       25.794 -23.093   7.183  0.00  0.00    +0.192 C 
ATOM      5  C   LIG    1       23.562 -22.022   7.376  0.00  0.00    +0.192 C 
ENDBRANCH   1   3
BRANCH   1   6
ATOM      6  C   LIG    1       26.530 -20.560   8.244  0.00  0.00    +0.350 C 
ATOM      7  O   LIG    1       27.752 -20.563   8.198  0.00  0.00    -0.245 OA
BRANCH   6   8
ATOM      8  O   LIG    1       25.870 -20.529   9.421  0.00  0.00    -0.477 OA
ATOM      9  H   LIG    1       25.263 -21.260   9.650  0.00  0.00    +0.295 HD
ENDBRANCH   6   8
ENDBRANCH   1   6
TORSDOF 3
ENDMDL
MODEL 7
REMARK VINA RESULT:      -3.9      7.140      7.754
REMARK  Name = *****
REMARK                            x       y       z     vdW  Elec       q    Type
REMARK                         _______ _______ _______ _____ _____    ______ ____
ROOT
ATOM      1  C   LIG    1       24.344 -22.838   7.181  0.00  0.00    +0.255 C 
ENDROOT
BRANCH   1   3
ATOM      2  C   LIG    1       23.224 -20.663   6.478  0.00  0.00    +0.192 C 
ATOM      3  N   LIG    1       24.441 -21.564   6.272  0.00  0.00    +0.245 N 
ATOM      4  C   LIG    1       25.696 -20.786   6.643  0.00  0.00    +0.192 C 
ATOM      5  C   LIG    1       24.521 -21.967   4.802  0.00  0.00    +0.192 C 
ENDBRANCH   1   3
BRANCH   1   6
ATOM      6  C   LIG    1       23.492 -23.996   6.656  0.00  0.00    +0.350 C 
ATOM      7  O   LIG    1       23.950 -25.055   6.254  0.00  0.00    -0.245 OA
BRANCH   6   8
ATOM      8  O   LIG    1       22.163 -23.763   6.668  0.00  0.00    -0.477 OA
ATOM      9  H   LIG    1       21.557 -24.451   7.006  0.00  0.00    +0.295 HD
ENDBRANCH   6   8
ENDBRANCH   1   6
TORSDOF 3
ENDMDL
MODEL 8
REMARK VINA RESULT:      -3.8      2.553      3.518
REMARK  Name = *****
REMARK                            x       y       z     vdW  Elec       q    Type
REMARK                         _______ _______ _______ _____ _____    ______ ____
ROOT
ATOM      1  C   LIG    1       31.484 -18.343   9.054  0.00  0.00    +0.255 C 
ENDROOT
BRANCH   1   3
ATOM      2  C   LIG    1       31.129 -19.355   6.746  0.00  0.00    +0.192 C 
ATOM      3  N   LIG    1       30.723 -19.428   8.217  0.00  0.00    +0.245 N 
ATOM      4  C   LIG    1       31.076 -20.807   8.757  0.00  0.00    +0.192 C 
ATOM      5  C   LIG    1       29.214 -19.221   8.329  0.00  0.00    +0.192 C 
ENDBRANCH   1   3
BRANCH   1   6
ATOM      6  C   LIG    1       30.706 -17.682  10.195  0.00  0.00    +0.350 C 
ATOM      7  O   LIG    1       30.171 -16.586  10.113  0.00  0.00    -0.245 OA
BRANCH   6   8
ATOM      8  O   LIG    1       30.649 -18.410  11.330  0.00  0.00    -0.477 OA
ATOM      9  H   LIG    1       30.057 -18.127  12.054  0.00  0.00    +0.295 HD
ENDBRANCH   6   8
ENDBRANCH   1   6
TORSDOF 3
ENDMDL
MODEL 9
REMARK VINA RESULT:      -3.8      7.132      7.719
REMARK  Name = *****
REMARK                            x       y       z     vdW  Elec       q    Type
REMARK                         _______ _______ _______ _____ _____    ______ ____
ROOT
ATOM      1  C   LIG    1       25.265 -25.191   5.110  0.00  0.00    +0.255 C 
ENDROOT
BRANCH   1   3
ATOM      2  C   LIG    1       23.469 -24.259   6.653  0.00  0.00    +0.192 C 
ATOM      3  N   LIG    1       24.840 -23.998   6.034  0.00  0.00    +0.245 N 
ATOM      4  C   LIG    1       25.863 -23.849   7.151  0.00  0.00    +0.192 C 
ATOM      5  C   LIG    1       24.787 -22.700   5.231  0.00  0.00    +0.192 C 
ENDBRANCH   1   3
BRANCH   1   6
ATOM      6  C   LIG    1       25.837 -26.431   5.803  0.00  0.00    +0.350 C 
ATOM      7  O   LIG    1       25.180 -27.184   6.507  0.00  0.00    -0.245 OA
BRANCH   6   8
ATOM      8  O   LIG    1       27.151 -26.642   5.579  0.00  0.00    -0.477 OA
ATOM      9  H   LIG    1       27.434 -27.057   4.742  0.00  0.00    +0.295 HD
ENDBRANCH   6   8
ENDBRANCH   1   6
TORSDOF 3
ENDMDL
