MODEL 1
REMARK VINA RESULT:      -4.4      0.000      0.000
REMARK  Name = *****
REMARK                            x       y       z     vdW  Elec       q    Type
REMARK                         _______ _______ _______ _____ _____    ______ ____
ROOT
ATOM      1  C   LIG    1       25.056 -20.040   4.318  0.00  0.00    +0.148 C 
ENDROOT
BRANCH   1   2
ATOM      2  C   LIG    1       26.301 -20.347   5.158  0.00  0.00    -0.020 A 
ATOM      3  C   LIG    1       26.260 -21.176   6.296  0.00  0.00    +0.006 A 
ATOM      4  C   LIG    1       27.406 -21.407   7.061  0.00  0.00    +0.000 A 
ATOM      5  C   LIG    1       28.618 -20.832   6.696  0.00  0.00    +0.000 A 
ATOM      6  C   LIG    1       28.689 -20.032   5.556  0.00  0.00    +0.000 A 
ATOM      7  C   LIG    1       27.543 -19.792   4.794  0.00  0.00    +0.006 A 
ENDBRANCH   1   2
BRANCH   1   8
ATOM      8  C   LIG    1       24.836 -18.553   3.994  0.00  0.00    -0.020 A 
ATOM      9  C   LIG    1       25.918 -17.766   3.562  0.00  0.00    +0.006 A 
ATOM     10  C   LIG    1       25.777 -16.382   3.360  0.00  0.00    +0.009 A 
ATOM     11  C   LIG    1       24.551 -15.727   3.568  0.00  0.00    -0.018 A 
ATOM     12  C   LIG    1       23.465 -16.534   3.936  0.00  0.00    +0.009 A 
ATOM     13  C   LIG    1       23.599 -17.912   4.141  0.00  0.00    +0.006 A 
BRANCH  11  14
ATOM     14  C   LIG    1       24.395 -14.257   3.417  0.00  0.00    -0.018 A 
ATOM     15  C   LIG    1       24.741 -13.603   2.215  0.00  0.00    +0.008 A 
ATOM     16  C   LIG    1       24.619 -12.217   2.066  0.00  0.00    +0.001 A 
ATOM     17  C   LIG    1       24.132 -11.447   3.116  0.00  0.00    +0.000 A 
ATOM     18  C   LIG    1       23.770 -12.063   4.309  0.00  0.00    +0.001 A 
ATOM     19  C   LIG    1       23.905 -13.449   4.458  0.00  0.00    +0.008 A 
ENDBRANCH  11  14
ENDBRANCH   1   8
BRANCH   1  23
ATOM     20  C   LIG    1       22.266 -21.392   6.205  0.00  0.00    +0.130 A 
ATOM     21  N   LIG    1       21.817 -21.569   4.923  0.00  0.00    -0.244 NA
ATOM     22  C   LIG    1       22.792 -21.140   4.152  0.00  0.00    +0.200 A 
ATOM     23  N   LIG    1       23.856 -20.684   4.888  0.00  0.00    -0.325 N 
ATOM     24  C   LIG    1       23.533 -20.860   6.210  0.00  0.00    +0.108 A 
ENDBRANCH   1  23
TORSDOF 4
ENDMDL
