MODEL 1
REMARK VINA RESULT:      -4.1      0.000      0.000
REMARK  Name = *****
REMARK                            x       y       z     vdW  Elec       q    Type
REMARK                         _______ _______ _______ _____ _____    ______ ____
ROOT
ATOM      1  C   LIG    1       24.373 -19.406   3.346  0.00  0.00    +0.020 C 
ATOM      2  C   LIG    1       24.400 -20.939   3.558  0.00  0.00    +0.118 C 
ATOM      3  C   LIG    1       23.962 -21.347   4.969  0.00  0.00    +0.035 C 
ATOM      4  C   LIG    1       22.624 -20.737   5.427  0.00  0.00    -0.012 C 
ATOM      5  C   LIG    1       21.415 -21.477   4.845  0.00  0.00    +0.007 C 
ATOM      6  C   LIG    1       22.552 -19.232   5.131  0.00  0.00    +0.004 C 
ATOM      7  C   LIG    1       22.963 -18.884   3.701  0.00  0.00    +0.006 C 
ENDROOT
BRANCH   1   9
ATOM      8  C   LIG    1       26.672 -19.604   4.471  0.00  0.00    +0.007 C 
ATOM      9  C   LIG    1       25.517 -18.662   4.107  0.00  0.00    -0.012 C 
ATOM     10  C   LIG    1       26.090 -17.493   3.292  0.00  0.00    +0.007 C 
ENDBRANCH   1   9
BRANCH   2  11
ATOM     11  O   LIG    1       23.541 -21.571   2.609  0.00  0.00    -0.392 OA
ATOM     12  H   LIG    1       23.950 -22.419   2.362  0.00  0.00    +0.210 HD
ENDBRANCH   2  11
TORSDOF 2
ENDMDL
MODEL 2
REMARK VINA RESULT:      -4.0      5.368      7.663
REMARK  Name = *****
REMARK                            x       y       z     vdW  Elec       q    Type
REMARK                         _______ _______ _______ _____ _____    ______ ____
ROOT
ATOM      1  C   LIG    1       25.617 -14.604   3.636  0.00  0.00    +0.020 C 
ATOM      2  C   LIG    1       26.192 -13.731   2.494  0.00  0.00    +0.118 C 
ATOM      3  C   LIG    1       26.765 -12.402   3.000  0.00  0.00    +0.035 C 
ATOM      4  C   LIG    1       27.763 -12.537   4.166  0.00  0.00    -0.012 C 
ATOM      5  C   LIG    1       29.160 -12.952   3.694  0.00  0.00    +0.007 C 
ATOM      6  C   LIG    1       27.240 -13.479   5.259  0.00  0.00    +0.004 C 
ATOM      7  C   LIG    1       26.714 -14.803   4.705  0.00  0.00    +0.006 C 
ENDROOT
BRANCH   1   9
ATOM      8  C   LIG    1       23.659 -12.974   3.313  0.00  0.00    +0.007 C 
ATOM      9  C   LIG    1       24.279 -14.046   4.220  0.00  0.00    -0.012 C 
ATOM     10  C   LIG    1       23.237 -15.152   4.438  0.00  0.00    +0.007 C 
ENDBRANCH   1   9
BRANCH   2  11
ATOM     11  O   LIG    1       27.222 -14.447   1.813  0.00  0.00    -0.392 OA
ATOM     12  H   LIG    1       27.936 -14.614   2.453  0.00  0.00    +0.210 HD
ENDBRANCH   2  11
TORSDOF 2
ENDMDL
MODEL 3
REMARK VINA RESULT:      -3.5      1.530      3.273
REMARK  Name = *****
REMARK                            x       y       z     vdW  Elec       q    Type
REMARK                         _______ _______ _______ _____ _____    ______ ____
ROOT
ATOM      1  C   LIG    1       22.715 -20.370   4.421  0.00  0.00    +0.020 C 
ATOM      2  C   LIG    1       24.154 -20.259   3.863  0.00  0.00    +0.118 C 
ATOM      3  C   LIG    1       25.128 -19.627   4.864  0.00  0.00    +0.035 C 
ATOM      4  C   LIG    1       25.113 -20.268   6.265  0.00  0.00    -0.012 C 
ATOM      5  C   LIG    1       25.915 -21.572   6.320  0.00  0.00    +0.007 C 
ATOM      6  C   LIG    1       23.682 -20.469   6.785  0.00  0.00    +0.004 C 
ATOM      7  C   LIG    1       22.764 -21.136   5.762  0.00  0.00    +0.006 C 
ENDROOT
BRANCH   1   9
ATOM      8  C   LIG    1       22.892 -17.832   4.075  0.00  0.00    +0.007 C 
ATOM      9  C   LIG    1       21.990 -18.990   4.524  0.00  0.00    -0.012 C 
ATOM     10  C   LIG    1       20.703 -18.948   3.687  0.00  0.00    +0.007 C 
ENDBRANCH   1   9
BRANCH   2  11
ATOM     11  O   LIG    1       24.636 -21.557   3.510  0.00  0.00    -0.392 OA
ATOM     12  H   LIG    1       24.629 -22.101   4.317  0.00  0.00    +0.210 HD
ENDBRANCH   2  11
TORSDOF 2
ENDMDL
MODEL 4
REMARK VINA RESULT:      -3.5      5.706      7.652
REMARK  Name = *****
REMARK                            x       y       z     vdW  Elec       q    Type
REMARK                         _______ _______ _______ _____ _____    ______ ____
ROOT
ATOM      1  C   LIG    1       25.210 -13.427   4.553  0.00  0.00    +0.020 C 
ATOM      2  C   LIG    1       26.371 -14.172   5.255  0.00  0.00    +0.118 C 
ATOM      3  C   LIG    1       27.385 -14.753   4.264  0.00  0.00    +0.035 C 
ATOM      4  C   LIG    1       27.908 -13.750   3.219  0.00  0.00    -0.012 C 
ATOM      5  C   LIG    1       28.998 -12.833   3.784  0.00  0.00    +0.007 C 
ATOM      6  C   LIG    1       26.768 -12.939   2.586  0.00  0.00    +0.004 C 
ATOM      7  C   LIG    1       25.808 -12.351   3.620  0.00  0.00    +0.006 C 
ENDROOT
BRANCH   1   9
ATOM      8  C   LIG    1       23.241 -15.055   4.809  0.00  0.00    +0.007 C 
ATOM      9  C   LIG    1       24.215 -14.389   3.828  0.00  0.00    -0.012 C 
ATOM     10  C   LIG    1       23.393 -13.668   2.750  0.00  0.00    +0.007 C 
ENDBRANCH   1   9
BRANCH   2  11
ATOM     11  O   LIG    1       27.051 -13.279   6.138  0.00  0.00    -0.392 OA
ATOM     12  H   LIG    1       27.278 -13.778   6.942  0.00  0.00    +0.210 HD
ENDBRANCH   2  11
TORSDOF 2
ENDMDL
MODEL 5
REMARK VINA RESULT:      -3.3      1.856      2.742
REMARK  Name = *****
REMARK                            x       y       z     vdW  Elec       q    Type
REMARK                         _______ _______ _______ _____ _____    ______ ____
ROOT
ATOM      1  C   LIG    1       25.460 -19.834   5.545  0.00  0.00    +0.020 C 
ATOM      2  C   LIG    1       24.865 -19.856   4.116  0.00  0.00    +0.118 C 
ATOM      3  C   LIG    1       24.124 -21.161   3.805  0.00  0.00    +0.035 C 
ATOM      4  C   LIG    1       23.078 -21.572   4.858  0.00  0.00    -0.012 C 
ATOM      5  C   LIG    1       21.764 -20.799   4.708  0.00  0.00    +0.007 C 
ATOM      6  C   LIG    1       23.632 -21.461   6.286  0.00  0.00    +0.004 C 
ATOM      7  C   LIG    1       24.327 -20.126   6.555  0.00  0.00    +0.006 C 
ENDROOT
BRANCH   1   9
ATOM      8  C   LIG    1       28.019 -20.008   5.660  0.00  0.00    +0.007 C 
ATOM      9  C   LIG    1       26.693 -20.779   5.709  0.00  0.00    -0.012 C 
ATOM     10  C   LIG    1       26.646 -21.570   7.025  0.00  0.00    +0.007 C 
ENDBRANCH   1   9
BRANCH   2  11
ATOM     11  O   LIG    1       23.959 -18.763   3.955  0.00  0.00    -0.392 OA
ATOM     12  H   LIG    1       23.063 -19.135   3.873  0.00  0.00    +0.210 HD
ENDBRANCH   2  11
TORSDOF 2
ENDMDL
MODEL 6
REMARK VINA RESULT:      -3.2      5.084      7.395
REMARK  Name = *****
REMARK                            x       y       z     vdW  Elec       q    Type
REMARK                         _______ _______ _______ _____ _____    ______ ____
ROOT
ATOM      1  C   LIG    1       25.072 -13.701   4.414  0.00  0.00    +0.020 C 
ATOM      2  C   LIG    1       26.319 -14.184   5.193  0.00  0.00    +0.118 C 
ATOM      3  C   LIG    1       27.412 -14.738   4.273  0.00  0.00    +0.035 C 
ATOM      4  C   LIG    1       27.800 -13.809   3.106  0.00  0.00    -0.012 C 
ATOM      5  C   LIG    1       28.746 -12.686   3.543  0.00  0.00    +0.007 C 
ATOM      6  C   LIG    1       26.563 -13.250   2.388  0.00  0.00    +0.004 C 
ATOM      7  C   LIG    1       25.522 -12.677   3.349  0.00  0.00    +0.006 C 
ENDROOT
BRANCH   1   9
ATOM      8  C   LIG    1       25.071 -16.138   3.605  0.00  0.00    +0.007 C 
ATOM      9  C   LIG    1       24.226 -14.875   3.824  0.00  0.00    -0.012 C 
ATOM     10  C   LIG    1       23.037 -15.242   4.723  0.00  0.00    +0.007 C 
ENDBRANCH   1   9
BRANCH   2  11
ATOM     11  O   LIG    1       26.861 -13.102   5.952  0.00  0.00    -0.392 OA
ATOM     12  H   LIG    1       26.305 -12.321   5.787  0.00  0.00    +0.210 HD
ENDBRANCH   2  11
TORSDOF 2
ENDMDL
MODEL 7
REMARK VINA RESULT:      -3.2      4.773      6.889
REMARK  Name = *****
REMARK                            x       y       z     vdW  Elec       q    Type
REMARK                         _______ _______ _______ _____ _____    ______ ____
ROOT
ATOM      1  C   LIG    1       25.577 -14.800   4.362  0.00  0.00    +0.020 C 
ATOM      2  C   LIG    1       26.307 -13.445   4.202  0.00  0.00    +0.118 C 
ATOM      3  C   LIG    1       25.959 -12.739   2.887  0.00  0.00    +0.035 C 
ATOM      4  C   LIG    1       24.450 -12.603   2.611  0.00  0.00    -0.012 C 
ATOM      5  C   LIG    1       23.815 -11.447   3.391  0.00  0.00    +0.007 C 
ATOM      6  C   LIG    1       23.704 -13.921   2.861  0.00  0.00    +0.004 C 
ATOM      7  C   LIG    1       24.058 -14.564   4.202  0.00  0.00    +0.006 C 
ENDROOT
BRANCH   1   9
ATOM      8  C   LIG    1       27.550 -16.347   3.809  0.00  0.00    +0.007 C 
ATOM      9  C   LIG    1       26.133 -15.911   3.414  0.00  0.00    -0.012 C 
ATOM     10  C   LIG    1       25.235 -17.157   3.393  0.00  0.00    +0.007 C 
ENDBRANCH   1   9
BRANCH   2  11
ATOM     11  O   LIG    1       25.968 -12.584   5.290  0.00  0.00    -0.392 OA
ATOM     12  H   LIG    1       25.646 -11.747   4.911  0.00  0.00    +0.210 HD
ENDBRANCH   2  11
TORSDOF 2
ENDMDL
MODEL 8
REMARK VINA RESULT:      -3.1      5.941      7.143
REMARK  Name = *****
REMARK                            x       y       z     vdW  Elec       q    Type
REMARK                         _______ _______ _______ _____ _____    ______ ____
ROOT
ATOM      1  C   LIG    1       26.357 -14.665   3.912  0.00  0.00    +0.020 C 
ATOM      2  C   LIG    1       24.981 -14.228   4.469  0.00  0.00    +0.118 C 
ATOM      3  C   LIG    1       24.683 -12.746   4.213  0.00  0.00    +0.035 C 
ATOM      4  C   LIG    1       24.869 -12.298   2.751  0.00  0.00    -0.012 C 
ATOM      5  C   LIG    1       23.678 -12.682   1.867  0.00  0.00    +0.007 C 
ATOM      6  C   LIG    1       26.191 -12.809   2.162  0.00  0.00    +0.004 C 
ATOM      7  C   LIG    1       26.420 -14.299   2.412  0.00  0.00    +0.006 C 
ENDROOT
BRANCH   1   9
ATOM      8  C   LIG    1       28.462 -13.195   3.888  0.00  0.00    +0.007 C 
ATOM      9  C   LIG    1       27.558 -14.100   4.737  0.00  0.00    -0.012 C 
ATOM     10  C   LIG    1       27.094 -13.301   5.963  0.00  0.00    +0.007 C 
ENDBRANCH   1   9
BRANCH   2  11
ATOM     11  O   LIG    1       23.948 -15.014   3.871  0.00  0.00    -0.392 OA
ATOM     12  H   LIG    1       23.656 -14.551   3.067  0.00  0.00    +0.210 HD
ENDBRANCH   2  11
TORSDOF 2
ENDMDL
MODEL 9
REMARK VINA RESULT:      -3.0      5.190      7.003
REMARK  Name = *****
REMARK                            x       y       z     vdW  Elec       q    Type
REMARK                         _______ _______ _______ _____ _____    ______ ____
ROOT
ATOM      1  C   LIG    1       26.217 -13.748   2.655  0.00  0.00    +0.020 C 
ATOM      2  C   LIG    1       24.696 -13.662   2.383  0.00  0.00    +0.118 C 
ATOM      3  C   LIG    1       23.858 -13.855   3.652  0.00  0.00    +0.035 C 
ATOM      4  C   LIG    1       24.272 -12.961   4.836  0.00  0.00    -0.012 C 
ATOM      5  C   LIG    1       23.732 -11.533   4.707  0.00  0.00    +0.007 C 
ATOM      6  C   LIG    1       25.792 -12.967   5.051  0.00  0.00    +0.004 C 
ATOM      7  C   LIG    1       26.578 -12.732   3.762  0.00  0.00    +0.006 C 
ENDROOT
BRANCH   1   9
ATOM      8  C   LIG    1       27.719 -15.232   4.115  0.00  0.00    +0.007 C 
ATOM      9  C   LIG    1       26.703 -15.200   2.966  0.00  0.00    -0.012 C 
ATOM     10  C   LIG    1       25.539 -16.134   3.327  0.00  0.00    +0.007 C 
ENDBRANCH   1   9
BRANCH   2  11
ATOM     11  O   LIG    1       24.380 -12.391   1.813  0.00  0.00    -0.392 OA
ATOM     12  H   LIG    1       24.908 -12.293   1.002  0.00  0.00    +0.210 HD
ENDBRANCH   2  11
TORSDOF 2
ENDMDL
