MODEL 1
REMARK VINA RESULT:      -3.8      0.000      0.000
REMARK  Name = *****
REMARK                            x       y       z     vdW  Elec       q    Type
REMARK                         _______ _______ _______ _____ _____    ______ ____
ROOT
ATOM      1  C   LIG    1       23.545 -18.061   3.755  0.00  0.00    +0.119 C 
ATOM      2  N   LIG    1       23.626 -16.669   4.251  0.00  0.00    -0.330 N 
ATOM      3  H   LIG    1       22.753 -16.129   4.161  0.00  0.00    +0.147 HD
ATOM      4  C   LIG    1       24.733 -15.897   3.869  0.00  0.00    +0.133 A 
ATOM      5  C   LIG    1       25.882 -16.441   3.396  0.00  0.00    +0.126 A 
ATOM      6  N   LIG    1       26.912 -15.606   3.067  0.00  0.00    -0.315 N 
ATOM      7  H   LIG    1       27.807 -16.032   2.894  0.00  0.00    +0.170 HD
ATOM      8  C   LIG    1       26.834 -14.270   3.282  0.00  0.00    +0.195 A 
ATOM      9  N   LIG    1       25.792 -13.642   3.710  0.00  0.00    -0.176 NA
ATOM     10  N   LIG    1       25.991 -17.825   3.250  0.00  0.00    -0.327 N 
ATOM     11  H   LIG    1       26.941 -18.162   3.363  0.00  0.00    +0.147 HD
ATOM     12  C   LIG    1       24.652 -14.379   3.956  0.00  0.00    +0.297 A 
ATOM     13  O   LIG    1       23.573 -13.862   4.246  0.00  0.00    -0.264 OA
ATOM     14  C   LIG    1       24.966 -18.704   3.854  0.00  0.00    +0.128 C 
ENDROOT
BRANCH   8  15
ATOM     15  N   LIG    1       27.983 -13.605   3.007  0.00  0.00    -0.329 N 
ATOM     16  H   LIG    1       28.771 -14.082   3.441  0.00  0.00    +0.145 HD
ATOM     17  H   LIG    1       27.970 -12.631   3.283  0.00  0.00    +0.145 HD
ENDBRANCH   8  15
BRANCH   1  18
ATOM     18  C   LIG    1       22.523 -18.845   4.612  0.00  0.00    +0.164 C 
BRANCH  18  20
ATOM     19  C   LIG    1       23.282 -20.439   6.452  0.00  0.00    +0.040 C 
ATOM     20  C   LIG    1       23.012 -20.269   4.960  0.00  0.00    +0.142 C 
BRANCH  20  21
ATOM     21  O   LIG    1       22.041 -21.247   4.575  0.00  0.00    -0.389 OA
ATOM     22  H   LIG    1       21.561 -21.500   5.386  0.00  0.00    +0.210 HD
ENDBRANCH  20  21
ENDBRANCH  18  20
BRANCH  18  23
ATOM     23  O   LIG    1       21.283 -18.937   3.886  0.00  0.00    -0.387 OA
ATOM     24  H   LIG    1       21.207 -18.080   3.412  0.00  0.00    +0.210 HD
ENDBRANCH  18  23
ENDBRANCH   1  18
TORSDOF 5
ENDMDL
MODEL 2
REMARK VINA RESULT:      -3.7      1.576      1.738
REMARK  Name = *****
REMARK                            x       y       z     vdW  Elec       q    Type
REMARK                         _______ _______ _______ _____ _____    ______ ____
ROOT
ATOM      1  C   LIG    1       25.370 -18.259   3.316  0.00  0.00    +0.119 C 
ATOM      2  N   LIG    1       24.885 -16.893   3.612  0.00  0.00    -0.330 N 
ATOM      3  H   LIG    1       24.032 -16.619   3.103  0.00  0.00    +0.147 HD
ATOM      4  C   LIG    1       25.820 -15.848   3.616  0.00  0.00    +0.133 A 
ATOM      5  C   LIG    1       27.156 -16.057   3.730  0.00  0.00    +0.126 A 
ATOM      6  N   LIG    1       27.987 -14.973   3.742  0.00  0.00    -0.315 N 
ATOM      7  H   LIG    1       28.945 -15.134   4.007  0.00  0.00    +0.170 HD
ATOM      8  C   LIG    1       27.499 -13.708   3.728  0.00  0.00    +0.195 A 
ATOM      9  N   LIG    1       26.256 -13.390   3.606  0.00  0.00    -0.176 NA
ATOM     10  N   LIG    1       27.654 -17.358   3.825  0.00  0.00    -0.327 N 
ATOM     11  H   LIG    1       28.515 -17.414   4.360  0.00  0.00    +0.147 HD
ATOM     12  C   LIG    1       25.340 -14.412   3.461  0.00  0.00    +0.297 A 
ATOM     13  O   LIG    1       24.150 -14.212   3.214  0.00  0.00    -0.264 OA
ATOM     14  C   LIG    1       26.720 -18.479   4.070  0.00  0.00    +0.128 C 
ENDROOT
BRANCH   8  15
ATOM     15  N   LIG    1       28.453 -12.754   3.860  0.00  0.00    -0.329 N 
ATOM     16  H   LIG    1       28.865 -12.549   2.953  0.00  0.00    +0.145 HD
ATOM     17  H   LIG    1       29.177 -12.987   4.527  0.00  0.00    +0.145 HD
ENDBRANCH   8  15
BRANCH   1  18
ATOM     18  C   LIG    1       24.306 -19.284   3.776  0.00  0.00    +0.164 C 
BRANCH  18  20
ATOM     19  C   LIG    1       23.585 -20.339   5.983  0.00  0.00    +0.040 C 
ATOM     20  C   LIG    1       24.747 -20.069   5.032  0.00  0.00    +0.142 C 
BRANCH  20  21
ATOM     21  O   LIG    1       25.319 -21.330   4.668  0.00  0.00    -0.389 OA
ATOM     22  H   LIG    1       26.117 -21.446   5.218  0.00  0.00    +0.210 HD
ENDBRANCH  20  21
ENDBRANCH  18  20
BRANCH  18  23
ATOM     23  O   LIG    1       24.061 -20.212   2.703  0.00  0.00    -0.387 OA
ATOM     24  H   LIG    1       23.570 -20.953   3.121  0.00  0.00    +0.210 HD
ENDBRANCH  18  23
ENDBRANCH   1  18
TORSDOF 5
ENDMDL
MODEL 3
REMARK VINA RESULT:      -3.6      2.067      5.605
REMARK  Name = *****
REMARK                            x       y       z     vdW  Elec       q    Type
REMARK                         _______ _______ _______ _____ _____    ______ ____
ROOT
ATOM      1  C   LIG    1       25.697 -15.493   3.817  0.00  0.00    +0.119 C 
ATOM      2  N   LIG    1       24.362 -16.125   3.735  0.00  0.00    -0.330 N 
ATOM      3  H   LIG    1       23.632 -15.663   4.297  0.00  0.00    +0.147 HD
ATOM      4  C   LIG    1       24.283 -17.519   3.861  0.00  0.00    +0.133 A 
ATOM      5  C   LIG    1       25.354 -18.335   3.688  0.00  0.00    +0.126 A 
ATOM      6  N   LIG    1       25.173 -19.683   3.815  0.00  0.00    -0.315 N 
ATOM      7  H   LIG    1       25.926 -20.276   3.507  0.00  0.00    +0.170 HD
ATOM      8  C   LIG    1       23.944 -20.215   4.025  0.00  0.00    +0.195 A 
ATOM      9  N   LIG    1       22.863 -19.540   4.220  0.00  0.00    -0.176 NA
ATOM     10  N   LIG    1       26.605 -17.792   3.392  0.00  0.00    -0.327 N 
ATOM     11  H   LIG    1       27.184 -18.412   2.835  0.00  0.00    +0.147 HD
ATOM     12  C   LIG    1       22.956 -18.164   4.235  0.00  0.00    +0.297 A 
ATOM     13  O   LIG    1       22.010 -17.434   4.536  0.00  0.00    -0.264 OA
ATOM     14  C   LIG    1       26.708 -16.367   3.008  0.00  0.00    +0.128 C 
ENDROOT
BRANCH   8  15
ATOM     15  N   LIG    1       23.926 -21.571   4.011  0.00  0.00    -0.329 N 
ATOM     16  H   LIG    1       24.861 -21.930   4.187  0.00  0.00    +0.145 HD
ATOM     17  H   LIG    1       23.554 -21.968   3.158  0.00  0.00    +0.145 HD
ENDBRANCH   8  15
BRANCH   1  18
ATOM     18  C   LIG    1       25.616 -14.062   3.237  0.00  0.00    +0.164 C 
BRANCH  18  20
ATOM     19  C   LIG    1       24.047 -12.380   4.339  0.00  0.00    +0.040 C 
ATOM     20  C   LIG    1       24.185 -13.481   3.291  0.00  0.00    +0.142 C 
BRANCH  20  21
ATOM     21  O   LIG    1       23.812 -12.931   2.024  0.00  0.00    -0.389 OA
ATOM     22  H   LIG    1       22.953 -12.486   2.153  0.00  0.00    +0.210 HD
ENDBRANCH  20  21
ENDBRANCH  18  20
BRANCH  18  23
ATOM     23  O   LIG    1       26.061 -14.090   1.868  0.00  0.00    -0.387 OA
ATOM     24  H   LIG    1       26.565 -14.929   1.786  0.00  0.00    +0.210 HD
ENDBRANCH  18  23
ENDBRANCH   1  18
TORSDOF 5
ENDMDL
MODEL 4
REMARK VINA RESULT:      -3.4      1.734      2.615
REMARK  Name = *****
REMARK                            x       y       z     vdW  Elec       q    Type
REMARK                         _______ _______ _______ _____ _____    ______ ____
ROOT
ATOM      1  C   LIG    1       23.597 -18.745   4.501  0.00  0.00    +0.119 C 
ATOM      2  N   LIG    1       24.557 -17.933   3.722  0.00  0.00    -0.330 N 
ATOM      3  H   LIG    1       25.537 -18.245   3.788  0.00  0.00    +0.147 HD
ATOM      4  C   LIG    1       24.470 -16.537   3.817  0.00  0.00    +0.133 A 
ATOM      5  C   LIG    1       23.361 -15.899   4.271  0.00  0.00    +0.126 A 
ATOM      6  N   LIG    1       23.365 -14.533   4.311  0.00  0.00    -0.315 N 
ATOM      7  H   LIG    1       22.482 -14.079   4.474  0.00  0.00    +0.170 HD
ATOM      8  C   LIG    1       24.411 -13.816   3.832  0.00  0.00    +0.195 A 
ATOM      9  N   LIG    1       25.518 -14.311   3.395  0.00  0.00    -0.176 NA
ATOM     10  N   LIG    1       22.252 -16.637   4.689  0.00  0.00    -0.327 N 
ATOM     11  H   LIG    1       21.375 -16.146   4.550  0.00  0.00    +0.147 HD
ATOM     12  C   LIG    1       25.667 -15.682   3.426  0.00  0.00    +0.297 A 
ATOM     13  O   LIG    1       26.727 -16.245   3.149  0.00  0.00    -0.264 OA
ATOM     14  C   LIG    1       22.186 -18.084   4.390  0.00  0.00    +0.128 C 
ENDROOT
BRANCH   8  15
ATOM     15  N   LIG    1       24.204 -12.476   3.842  0.00  0.00    -0.329 N 
ATOM     16  H   LIG    1       23.381 -12.249   3.287  0.00  0.00    +0.145 HD
ATOM     17  H   LIG    1       24.998 -11.935   3.525  0.00  0.00    +0.145 HD
ENDBRANCH   8  15
BRANCH   1  18
ATOM     18  C   LIG    1       23.578 -20.186   3.937  0.00  0.00    +0.164 C 
BRANCH  18  20
ATOM     19  C   LIG    1       23.550 -20.749   6.424  0.00  0.00    +0.040 C 
ATOM     20  C   LIG    1       23.231 -21.238   5.014  0.00  0.00    +0.142 C 
BRANCH  20  21
ATOM     21  O   LIG    1       21.840 -21.570   4.969  0.00  0.00    -0.389 OA
ATOM     22  H   LIG    1       21.753 -22.467   5.345  0.00  0.00    +0.210 HD
ENDBRANCH  20  21
ENDBRANCH  18  20
BRANCH  18  23
ATOM     23  O   LIG    1       24.874 -20.486   3.386  0.00  0.00    -0.387 OA
ATOM     24  H   LIG    1       25.101 -21.369   3.751  0.00  0.00    +0.210 HD
ENDBRANCH  18  23
ENDBRANCH   1  18
TORSDOF 5
ENDMDL
MODEL 5
REMARK VINA RESULT:      -3.3      1.388      1.558
REMARK  Name = *****
REMARK                            x       y       z     vdW  Elec       q    Type
REMARK                         _______ _______ _______ _____ _____    ______ ____
ROOT
ATOM      1  C   LIG    1       24.288 -19.046   3.539  0.00  0.00    +0.119 C 
ATOM      2  N   LIG    1       23.844 -17.768   4.137  0.00  0.00    -0.330 N 
ATOM      3  H   LIG    1       22.834 -17.581   4.051  0.00  0.00    +0.147 HD
ATOM      4  C   LIG    1       24.591 -16.614   3.859  0.00  0.00    +0.133 A 
ATOM      5  C   LIG    1       25.866 -16.658   3.395  0.00  0.00    +0.126 A 
ATOM      6  N   LIG    1       26.518 -15.479   3.170  0.00  0.00    -0.315 N 
ATOM      7  H   LIG    1       27.510 -15.530   3.004  0.00  0.00    +0.170 HD
ATOM      8  C   LIG    1       25.950 -14.287   3.478  0.00  0.00    +0.195 A 
ATOM      9  N   LIG    1       24.746 -14.124   3.907  0.00  0.00    -0.176 NA
ATOM     10  N   LIG    1       26.480 -17.888   3.154  0.00  0.00    -0.327 N 
ATOM     11  H   LIG    1       27.486 -17.861   3.282  0.00  0.00    +0.147 HD
ATOM     12  C   LIG    1       23.955 -15.245   4.052  0.00  0.00    +0.297 A 
ATOM     13  O   LIG    1       22.758 -15.186   4.333  0.00  0.00    -0.264 OA
ATOM     14  C   LIG    1       25.845 -19.129   3.650  0.00  0.00    +0.128 C 
ENDROOT
BRANCH   8  15
ATOM     15  N   LIG    1       26.776 -13.227   3.300  0.00  0.00    -0.329 N 
ATOM     16  H   LIG    1       26.228 -12.378   3.181  0.00  0.00    +0.145 HD
ATOM     17  H   LIG    1       27.423 -13.335   2.529  0.00  0.00    +0.145 HD
ENDBRANCH   8  15
BRANCH   1  18
ATOM     18  C   LIG    1       23.617 -20.218   4.294  0.00  0.00    +0.164 C 
BRANCH  18  20
ATOM     19  C   LIG    1       23.176 -20.765   6.745  0.00  0.00    +0.040 C 
ATOM     20  C   LIG    1       24.234 -20.452   5.691  0.00  0.00    +0.142 C 
BRANCH  20  21
ATOM     21  O   LIG    1       25.161 -21.542   5.661  0.00  0.00    -0.389 OA
ATOM     22  H   LIG    1       26.055 -21.151   5.666  0.00  0.00    +0.210 HD
ENDBRANCH  20  21
ENDBRANCH  18  20
BRANCH  18  23
ATOM     23  O   LIG    1       23.760 -21.417   3.510  0.00  0.00    -0.387 OA
ATOM     24  H   LIG    1       23.593 -22.150   4.142  0.00  0.00    +0.210 HD
ENDBRANCH  18  23
ENDBRANCH   1  18
TORSDOF 5
ENDMDL
MODEL 6
REMARK VINA RESULT:      -3.2      2.470      5.991
REMARK  Name = *****
REMARK                            x       y       z     vdW  Elec       q    Type
REMARK                         _______ _______ _______ _____ _____    ______ ____
ROOT
ATOM      1  C   LIG    1       24.609 -14.421   3.660  0.00  0.00    +0.119 C 
ATOM      2  N   LIG    1       25.267 -15.745   3.726  0.00  0.00    -0.330 N 
ATOM      3  H   LIG    1       25.986 -15.905   3.006  0.00  0.00    +0.147 HD
ATOM      4  C   LIG    1       24.454 -16.877   3.881  0.00  0.00    +0.133 A 
ATOM      5  C   LIG    1       23.176 -16.809   4.332  0.00  0.00    +0.126 A 
ATOM      6  N   LIG    1       22.469 -17.971   4.466  0.00  0.00    -0.315 N 
ATOM      7  H   LIG    1       21.599 -17.920   4.968  0.00  0.00    +0.170 HD
ATOM      8  C   LIG    1       23.043 -19.178   4.238  0.00  0.00    +0.195 A 
ATOM      9  N   LIG    1       24.239 -19.362   3.793  0.00  0.00    -0.176 NA
ATOM     10  N   LIG    1       22.610 -15.572   4.644  0.00  0.00    -0.327 N 
ATOM     11  H   LIG    1       21.909 -15.630   5.375  0.00  0.00    +0.147 HD
ATOM     12  C   LIG    1       25.000 -18.248   3.506  0.00  0.00    +0.297 A 
ATOM     13  O   LIG    1       26.102 -18.314   2.961  0.00  0.00    -0.264 OA
ATOM     14  C   LIG    1       23.477 -14.377   4.736  0.00  0.00    +0.128 C 
ENDROOT
BRANCH   8  15
ATOM     15  N   LIG    1       22.238 -20.229   4.528  0.00  0.00    -0.329 N 
ATOM     16  H   LIG    1       22.574 -21.063   4.052  0.00  0.00    +0.145 HD
ATOM     17  H   LIG    1       21.262 -20.071   4.308  0.00  0.00    +0.145 HD
ENDBRANCH   8  15
BRANCH   1  18
ATOM     18  C   LIG    1       25.664 -13.319   3.922  0.00  0.00    +0.164 C 
BRANCH  18  20
ATOM     19  C   LIG    1       28.144 -13.694   3.462  0.00  0.00    +0.040 C 
ATOM     20  C   LIG    1       26.791 -13.316   2.865  0.00  0.00    +0.142 C 
BRANCH  20  21
ATOM     21  O   LIG    1       26.501 -14.241   1.812  0.00  0.00    -0.389 OA
ATOM     22  H   LIG    1       27.354 -14.623   1.531  0.00  0.00    +0.210 HD
ENDBRANCH  20  21
ENDBRANCH  18  20
BRANCH  18  23
ATOM     23  O   LIG    1       26.240 -13.529   5.225  0.00  0.00    -0.387 OA
ATOM     24  H   LIG    1       26.359 -14.502   5.291  0.00  0.00    +0.210 HD
ENDBRANCH  18  23
ENDBRANCH   1  18
TORSDOF 5
ENDMDL
MODEL 7
REMARK VINA RESULT:      -3.1      1.992      5.692
REMARK  Name = *****
REMARK                            x       y       z     vdW  Elec       q    Type
REMARK                         _______ _______ _______ _____ _____    ______ ____
ROOT
ATOM      1  C   LIG    1       25.483 -15.424   3.824  0.00  0.00    +0.119 C 
ATOM      2  N   LIG    1       24.171 -16.107   3.785  0.00  0.00    -0.330 N 
ATOM      3  H   LIG    1       23.452 -15.693   4.396  0.00  0.00    +0.147 HD
ATOM      4  C   LIG    1       24.154 -17.507   3.870  0.00  0.00    +0.133 A 
ATOM      5  C   LIG    1       25.247 -18.272   3.620  0.00  0.00    +0.126 A 
ATOM      6  N   LIG    1       25.126 -19.630   3.713  0.00  0.00    -0.315 N 
ATOM      7  H   LIG    1       25.886 -20.181   3.350  0.00  0.00    +0.170 HD
ATOM      8  C   LIG    1       23.931 -20.218   3.964  0.00  0.00    +0.195 A 
ATOM      9  N   LIG    1       22.835 -19.594   4.232  0.00  0.00    -0.176 NA
ATOM     10  N   LIG    1       26.460 -17.670   3.282  0.00  0.00    -0.327 N 
ATOM     11  H   LIG    1       27.035 -18.248   2.679  0.00  0.00    +0.147 HD
ATOM     12  C   LIG    1       22.873 -18.216   4.287  0.00  0.00    +0.297 A 
ATOM     13  O   LIG    1       21.916 -17.535   4.656  0.00  0.00    -0.264 OA
ATOM     14  C   LIG    1       26.487 -16.231   2.940  0.00  0.00    +0.128 C 
ENDROOT
BRANCH   8  15
ATOM     15  N   LIG    1       23.966 -21.572   3.908  0.00  0.00    -0.329 N 
ATOM     16  H   LIG    1       24.128 -21.952   4.838  0.00  0.00    +0.145 HD
ATOM     17  H   LIG    1       24.650 -21.938   3.258  0.00  0.00    +0.145 HD
ENDBRANCH   8  15
BRANCH   1  18
ATOM     18  C   LIG    1       25.317 -13.980   3.293  0.00  0.00    +0.164 C 
BRANCH  18  20
ATOM     19  C   LIG    1       26.830 -13.399   5.263  0.00  0.00    +0.040 C 
ATOM     20  C   LIG    1       26.391 -13.018   3.852  0.00  0.00    +0.142 C 
BRANCH  20  21
ATOM     21  O   LIG    1       27.552 -13.014   3.016  0.00  0.00    -0.389 OA
ATOM     22  H   LIG    1       28.170 -12.361   3.397  0.00  0.00    +0.210 HD
ENDBRANCH  20  21
ENDBRANCH  18  20
BRANCH  18  23
ATOM     23  O   LIG    1       24.013 -13.496   3.664  0.00  0.00    -0.387 OA
ATOM     24  H   LIG    1       23.898 -13.779   4.598  0.00  0.00    +0.210 HD
ENDBRANCH  18  23
ENDBRANCH   1  18
TORSDOF 5
ENDMDL
MODEL 8
REMARK VINA RESULT:      -2.9      1.626      2.040
REMARK  Name = *****
REMARK                            x       y       z     vdW  Elec       q    Type
REMARK                         _______ _______ _______ _____ _____    ______ ____
ROOT
ATOM      1  C   LIG    1       24.319 -19.412   3.541  0.00  0.00    +0.119 C 
ATOM      2  N   LIG    1       23.683 -18.271   4.235  0.00  0.00    -0.330 N 
ATOM      3  H   LIG    1       22.653 -18.259   4.189  0.00  0.00    +0.147 HD
ATOM      4  C   LIG    1       24.207 -16.989   4.013  0.00  0.00    +0.133 A 
ATOM      5  C   LIG    1       25.450 -16.779   3.512  0.00  0.00    +0.126 A 
ATOM      6  N   LIG    1       25.878 -15.492   3.347  0.00  0.00    -0.315 N 
ATOM      7  H   LIG    1       26.856 -15.358   3.150  0.00  0.00    +0.170 HD
ATOM      8  C   LIG    1       25.124 -14.440   3.750  0.00  0.00    +0.195 A 
ATOM      9  N   LIG    1       23.927 -14.517   4.221  0.00  0.00    -0.176 NA
ATOM     10  N   LIG    1       26.259 -17.865   3.172  0.00  0.00    -0.327 N 
ATOM     11  H   LIG    1       27.249 -17.668   3.273  0.00  0.00    +0.147 HD
ATOM     12  C   LIG    1       23.350 -15.767   4.314  0.00  0.00    +0.297 A 
ATOM     13  O   LIG    1       22.173 -15.937   4.632  0.00  0.00    -0.264 OA
ATOM     14  C   LIG    1       25.869 -19.226   3.602  0.00  0.00    +0.128 C 
ENDROOT
BRANCH   8  15
ATOM     15  N   LIG    1       25.746 -13.242   3.619  0.00  0.00    -0.329 N 
ATOM     16  H   LIG    1       26.369 -13.088   4.408  0.00  0.00    +0.145 HD
ATOM     17  H   LIG    1       25.111 -12.460   3.517  0.00  0.00    +0.145 HD
ENDBRANCH   8  15
BRANCH   1  18
ATOM     18  C   LIG    1       23.893 -20.727   4.234  0.00  0.00    +0.164 C 
BRANCH  18  20
ATOM     19  C   LIG    1       21.564 -21.446   4.987  0.00  0.00    +0.040 C 
ATOM     20  C   LIG    1       22.745 -20.516   5.248  0.00  0.00    +0.142 C 
BRANCH  20  21
ATOM     21  O   LIG    1       23.200 -20.749   6.585  0.00  0.00    -0.389 OA
ATOM     22  H   LIG    1       24.173 -20.664   6.569  0.00  0.00    +0.210 HD
ENDBRANCH  20  21
ENDBRANCH  18  20
BRANCH  18  23
ATOM     23  O   LIG    1       25.031 -21.281   4.920  0.00  0.00    -0.387 OA
ATOM     24  H   LIG    1       24.954 -22.251   4.788  0.00  0.00    +0.210 HD
ENDBRANCH  18  23
ENDBRANCH   1  18
TORSDOF 5
ENDMDL
MODEL 9
REMARK VINA RESULT:      -2.6      3.093      4.160
REMARK  Name = *****
REMARK                            x       y       z     vdW  Elec       q    Type
REMARK                         _______ _______ _______ _____ _____    ______ ____
ROOT
ATOM      1  C   LIG    1       23.695 -20.774   3.990  0.00  0.00    +0.119 C 
ATOM      2  N   LIG    1       24.421 -19.485   3.983  0.00  0.00    -0.330 N 
ATOM      3  H   LIG    1       24.355 -18.959   3.100  0.00  0.00    +0.147 HD
ATOM      4  C   LIG    1       25.733 -19.466   4.479  0.00  0.00    +0.133 A 
ATOM      5  C   LIG    1       26.230 -20.440   5.282  0.00  0.00    +0.126 A 
ATOM      6  N   LIG    1       27.516 -20.324   5.729  0.00  0.00    -0.315 N 
ATOM      7  H   LIG    1       27.804 -20.952   6.461  0.00  0.00    +0.170 HD
ATOM      8  C   LIG    1       28.262 -19.225   5.457  0.00  0.00    +0.195 A 
ATOM      9  N   LIG    1       27.901 -18.248   4.696  0.00  0.00    -0.176 NA
ATOM     10  N   LIG    1       25.435 -21.534   5.628  0.00  0.00    -0.327 N 
ATOM     11  H   LIG    1       25.667 -21.921   6.537  0.00  0.00    +0.147 HD
ATOM     12  C   LIG    1       26.664 -18.325   4.091  0.00  0.00    +0.297 A 
ATOM     13  O   LIG    1       26.279 -17.510   3.253  0.00  0.00    -0.264 OA
ATOM     14  C   LIG    1       23.983 -21.497   5.344  0.00  0.00    +0.128 C 
ENDROOT
BRANCH   8  15
ATOM     15  N   LIG    1       29.470 -19.219   6.072  0.00  0.00    -0.329 N 
ATOM     16  H   LIG    1       30.180 -19.585   5.442  0.00  0.00    +0.145 HD
ATOM     17  H   LIG    1       29.487 -19.726   6.948  0.00  0.00    +0.145 HD
ENDBRANCH   8  15
BRANCH   1  18
ATOM     18  C   LIG    1       22.181 -20.502   3.821  0.00  0.00    +0.164 C 
BRANCH  18  20
ATOM     19  C   LIG    1       20.397 -18.706   3.508  0.00  0.00    +0.040 C 
ATOM     20  C   LIG    1       21.835 -18.999   3.926  0.00  0.00    +0.142 C 
BRANCH  20  21
ATOM     21  O   LIG    1       22.006 -18.531   5.267  0.00  0.00    -0.389 OA
ATOM     22  H   LIG    1       22.006 -17.556   5.227  0.00  0.00    +0.210 HD
ENDBRANCH  20  21
ENDBRANCH  18  20
BRANCH  18  23
ATOM     23  O   LIG    1       21.463 -21.222   4.839  0.00  0.00    -0.387 OA
ATOM     24  H   LIG    1       20.546 -20.874   4.792  0.00  0.00    +0.210 HD
ENDBRANCH  18  23
ENDBRANCH   1  18
TORSDOF 5
ENDMDL
