MODEL 1
REMARK VINA RESULT:      -7.4      0.000      0.000
REMARK  Name = *****
REMARK                            x       y       z     vdW  Elec       q    Type
REMARK                         _______ _______ _______ _____ _____    ______ ____
ROOT
ATOM      1  C   LIG    1       29.641 -18.482   6.360  0.00  0.00    +0.027 C 
ATOM      2  C   LIG    1       29.828 -19.311   7.641  0.00  0.00    +0.086 C 
ATOM      3  N   LIG    1       31.279 -19.419   7.994  0.00  0.00    -0.298 NA
ATOM      4  C   LIG    1       31.880 -18.124   8.322  0.00  0.00    +0.105 C 
ATOM      5  C   LIG    1       31.436 -20.333   9.147  0.00  0.00    +0.112 C 
ATOM      6  C   LIG    1       30.804 -21.699   8.869  0.00  0.00    +0.176 C 
ATOM      7  O   LIG    1       29.406 -21.562   8.617  0.00  0.00    -0.369 OA
ATOM      8  C   LIG    1       29.181 -20.734   7.460  0.00  0.00    +0.165 C 
ENDROOT
BRANCH   8   9
ATOM      9  C   LIG    1       27.677 -20.688   7.251  0.00  0.00    -0.017 A 
ATOM     10  C   LIG    1       27.127 -20.564   5.966  0.00  0.00    +0.006 A 
ATOM     11  C   LIG    1       25.744 -20.541   5.781  0.00  0.00    +0.000 A 
ATOM     12  C   LIG    1       24.892 -20.640   6.880  0.00  0.00    +0.000 A 
ATOM     13  C   LIG    1       25.422 -20.758   8.162  0.00  0.00    +0.000 A 
ATOM     14  C   LIG    1       26.806 -20.779   8.348  0.00  0.00    +0.006 A 
ENDBRANCH   8   9
TORSDOF 1
ENDMDL
MODEL 2
REMARK VINA RESULT:      -7.0      4.482      6.184
REMARK  Name = *****
REMARK                            x       y       z     vdW  Elec       q    Type
REMARK                         _______ _______ _______ _____ _____    ______ ____
ROOT
ATOM      1  C   LIG    1       22.431 -23.211   6.272  0.00  0.00    +0.027 C 
ATOM      2  C   LIG    1       23.957 -23.190   6.082  0.00  0.00    +0.086 C 
ATOM      3  N   LIG    1       24.606 -24.265   6.898  0.00  0.00    -0.298 NA
ATOM      4  C   LIG    1       24.217 -25.611   6.472  0.00  0.00    +0.105 C 
ATOM      5  C   LIG    1       26.076 -24.131   6.804  0.00  0.00    +0.112 C 
ATOM      6  C   LIG    1       26.539 -22.732   7.215  0.00  0.00    +0.176 C 
ATOM      7  O   LIG    1       25.963 -21.742   6.364  0.00  0.00    -0.369 OA
ATOM      8  C   LIG    1       24.525 -21.772   6.458  0.00  0.00    +0.165 C 
ENDROOT
BRANCH   8   9
ATOM      9  C   LIG    1       24.014 -20.661   5.556  0.00  0.00    -0.017 A 
ATOM     10  C   LIG    1       22.793 -20.020   5.817  0.00  0.00    +0.006 A 
ATOM     11  C   LIG    1       22.339 -18.989   4.994  0.00  0.00    +0.000 A 
ATOM     12  C   LIG    1       23.100 -18.584   3.898  0.00  0.00    +0.000 A 
ATOM     13  C   LIG    1       24.311 -19.214   3.623  0.00  0.00    +0.000 A 
ATOM     14  C   LIG    1       24.766 -20.248   4.445  0.00  0.00    +0.006 A 
ENDBRANCH   8   9
TORSDOF 1
ENDMDL
MODEL 3
REMARK VINA RESULT:      -6.8      1.601      2.411
REMARK  Name = *****
REMARK                            x       y       z     vdW  Elec       q    Type
REMARK                         _______ _______ _______ _____ _____    ______ ____
ROOT
ATOM      1  C   LIG    1       27.376 -19.887   5.026  0.00  0.00    +0.027 C 
ATOM      2  C   LIG    1       27.904 -20.020   6.464  0.00  0.00    +0.086 C 
ATOM      3  N   LIG    1       29.375 -19.747   6.515  0.00  0.00    -0.298 NA
ATOM      4  C   LIG    1       29.708 -18.370   6.143  0.00  0.00    +0.105 C 
ATOM      5  C   LIG    1       29.877 -20.017   7.880  0.00  0.00    +0.112 C 
ATOM      6  C   LIG    1       29.535 -21.438   8.332  0.00  0.00    +0.176 C 
ATOM      7  O   LIG    1       28.122 -21.633   8.348  0.00  0.00    -0.369 OA
ATOM      8  C   LIG    1       27.572 -21.451   7.028  0.00  0.00    +0.165 C 
ENDROOT
BRANCH   8   9
ATOM      9  C   LIG    1       26.082 -21.722   7.143  0.00  0.00    -0.017 A 
ATOM     10  C   LIG    1       25.191 -20.716   7.549  0.00  0.00    +0.006 A 
ATOM     11  C   LIG    1       23.822 -20.968   7.634  0.00  0.00    +0.000 A 
ATOM     12  C   LIG    1       23.324 -22.230   7.315  0.00  0.00    +0.000 A 
ATOM     13  C   LIG    1       24.195 -23.241   6.915  0.00  0.00    +0.000 A 
ATOM     14  C   LIG    1       25.567 -22.990   6.832  0.00  0.00    +0.006 A 
ENDBRANCH   8   9
TORSDOF 1
ENDMDL
MODEL 4
REMARK VINA RESULT:      -6.7      3.024      4.728
REMARK  Name = *****
REMARK                            x       y       z     vdW  Elec       q    Type
REMARK                         _______ _______ _______ _____ _____    ______ ____
ROOT
ATOM      1  C   LIG    1       27.293 -19.982   5.674  0.00  0.00    +0.027 C 
ATOM      2  C   LIG    1       26.409 -20.908   6.525  0.00  0.00    +0.086 C 
ATOM      3  N   LIG    1       27.230 -21.986   7.161  0.00  0.00    -0.298 NA
ATOM      4  C   LIG    1       28.212 -21.463   8.114  0.00  0.00    +0.105 C 
ATOM      5  C   LIG    1       26.336 -22.937   7.857  0.00  0.00    +0.112 C 
ATOM      6  C   LIG    1       25.272 -23.500   6.913  0.00  0.00    +0.176 C 
ATOM      7  O   LIG    1       24.458 -22.449   6.391  0.00  0.00    -0.369 OA
ATOM      8  C   LIG    1       25.260 -21.517   5.639  0.00  0.00    +0.165 C 
ENDROOT
BRANCH   8   9
ATOM      9  C   LIG    1       24.303 -20.471   5.094  0.00  0.00    -0.017 A 
ATOM     10  C   LIG    1       23.098 -20.177   5.751  0.00  0.00    +0.006 A 
ATOM     11  C   LIG    1       22.233 -19.203   5.253  0.00  0.00    +0.000 A 
ATOM     12  C   LIG    1       22.560 -18.509   4.089  0.00  0.00    +0.000 A 
ATOM     13  C   LIG    1       23.750 -18.792   3.422  0.00  0.00    +0.000 A 
ATOM     14  C   LIG    1       24.615 -19.769   3.919  0.00  0.00    +0.006 A 
ENDBRANCH   8   9
TORSDOF 1
ENDMDL
MODEL 5
REMARK VINA RESULT:      -6.5      3.213      6.124
REMARK  Name = *****
REMARK                            x       y       z     vdW  Elec       q    Type
REMARK                         _______ _______ _______ _____ _____    ______ ____
ROOT
ATOM      1  C   LIG    1       25.899 -23.340   6.862  0.00  0.00    +0.027 C 
ATOM      2  C   LIG    1       24.982 -22.129   6.624  0.00  0.00    +0.086 C 
ATOM      3  N   LIG    1       23.689 -22.557   6.001  0.00  0.00    -0.298 NA
ATOM      4  C   LIG    1       22.901 -23.430   6.875  0.00  0.00    +0.105 C 
ATOM      5  C   LIG    1       22.890 -21.361   5.660  0.00  0.00    +0.112 C 
ATOM      6  C   LIG    1       23.674 -20.399   4.765  0.00  0.00    +0.176 C 
ATOM      7  O   LIG    1       24.857 -19.950   5.426  0.00  0.00    -0.369 OA
ATOM      8  C   LIG    1       25.718 -21.065   5.729  0.00  0.00    +0.165 C 
ENDROOT
BRANCH   8   9
ATOM      9  C   LIG    1       26.958 -20.482   6.385  0.00  0.00    -0.017 A 
ATOM     10  C   LIG    1       27.103 -20.471   7.781  0.00  0.00    +0.006 A 
ATOM     11  C   LIG    1       28.253 -19.950   8.375  0.00  0.00    +0.000 A 
ATOM     12  C   LIG    1       29.274 -19.432   7.581  0.00  0.00    +0.000 A 
ATOM     13  C   LIG    1       29.144 -19.431   6.194  0.00  0.00    +0.000 A 
ATOM     14  C   LIG    1       27.992 -19.950   5.599  0.00  0.00    +0.006 A 
ENDBRANCH   8   9
TORSDOF 1
ENDMDL
MODEL 6
REMARK VINA RESULT:      -6.3      2.604      4.002
REMARK  Name = *****
REMARK                            x       y       z     vdW  Elec       q    Type
REMARK                         _______ _______ _______ _____ _____    ______ ____
ROOT
ATOM      1  C   LIG    1       27.537 -19.658   5.370  0.00  0.00    +0.027 C 
ATOM      2  C   LIG    1       26.837 -20.386   6.529  0.00  0.00    +0.086 C 
ATOM      3  N   LIG    1       27.808 -21.249   7.274  0.00  0.00    -0.298 NA
ATOM      4  C   LIG    1       28.865 -20.476   7.930  0.00  0.00    +0.105 C 
ATOM      5  C   LIG    1       27.081 -22.040   8.291  0.00  0.00    +0.112 C 
ATOM      6  C   LIG    1       25.946 -22.852   7.664  0.00  0.00    +0.176 C 
ATOM      7  O   LIG    1       25.000 -21.989   7.035  0.00  0.00    -0.369 OA
ATOM      8  C   LIG    1       25.629 -21.233   5.982  0.00  0.00    +0.165 C 
ENDROOT
BRANCH   8   9
ATOM      9  C   LIG    1       24.538 -20.386   5.351  0.00  0.00    -0.017 A 
ATOM     10  C   LIG    1       24.799 -19.589   4.225  0.00  0.00    +0.006 A 
ATOM     11  C   LIG    1       23.786 -18.827   3.640  0.00  0.00    +0.000 A 
ATOM     12  C   LIG    1       22.499 -18.851   4.174  0.00  0.00    +0.000 A 
ATOM     13  C   LIG    1       22.225 -19.633   5.294  0.00  0.00    +0.000 A 
ATOM     14  C   LIG    1       23.239 -20.394   5.881  0.00  0.00    +0.006 A 
ENDBRANCH   8   9
TORSDOF 1
ENDMDL
MODEL 7
REMARK VINA RESULT:      -6.3      2.589      5.609
REMARK  Name = *****
REMARK                            x       y       z     vdW  Elec       q    Type
REMARK                         _______ _______ _______ _____ _____    ______ ____
ROOT
ATOM      1  C   LIG    1       26.076 -21.795   8.177  0.00  0.00    +0.027 C 
ATOM      2  C   LIG    1       25.752 -20.781   7.068  0.00  0.00    +0.086 C 
ATOM      3  N   LIG    1       24.417 -21.075   6.456  0.00  0.00    -0.298 NA
ATOM      4  C   LIG    1       23.313 -20.923   7.406  0.00  0.00    +0.105 C 
ATOM      5  C   LIG    1       24.197 -20.172   5.305  0.00  0.00    +0.112 C 
ATOM      6  C   LIG    1       25.335 -20.272   4.288  0.00  0.00    +0.176 C 
ATOM      7  O   LIG    1       26.577 -19.906   4.888  0.00  0.00    -0.369 OA
ATOM      8  C   LIG    1       26.889 -20.791   5.981  0.00  0.00    +0.165 C 
ENDROOT
BRANCH   8   9
ATOM      9  C   LIG    1       28.239 -20.349   6.519  0.00  0.00    -0.017 A 
ATOM     10  C   LIG    1       28.896 -21.081   7.520  0.00  0.00    +0.006 A 
ATOM     11  C   LIG    1       30.144 -20.678   7.996  0.00  0.00    +0.000 A 
ATOM     12  C   LIG    1       30.753 -19.536   7.478  0.00  0.00    +0.000 A 
ATOM     13  C   LIG    1       30.112 -18.796   6.487  0.00  0.00    +0.000 A 
ATOM     14  C   LIG    1       28.861 -19.197   6.012  0.00  0.00    +0.006 A 
ENDBRANCH   8   9
TORSDOF 1
ENDMDL
MODEL 8
REMARK VINA RESULT:      -6.3      2.585      5.501
REMARK  Name = *****
REMARK                            x       y       z     vdW  Elec       q    Type
REMARK                         _______ _______ _______ _____ _____    ______ ____
ROOT
ATOM      1  C   LIG    1       26.116 -21.801   8.169  0.00  0.00    +0.027 C 
ATOM      2  C   LIG    1       25.774 -20.782   7.069  0.00  0.00    +0.086 C 
ATOM      3  N   LIG    1       24.436 -21.082   6.468  0.00  0.00    -0.298 NA
ATOM      4  C   LIG    1       23.340 -20.944   7.429  0.00  0.00    +0.105 C 
ATOM      5  C   LIG    1       24.198 -20.174   5.325  0.00  0.00    +0.112 C 
ATOM      6  C   LIG    1       25.327 -20.259   4.296  0.00  0.00    +0.176 C 
ATOM      7  O   LIG    1       26.572 -19.887   4.887  0.00  0.00    -0.369 OA
ATOM      8  C   LIG    1       26.901 -20.777   5.971  0.00  0.00    +0.165 C 
ENDROOT
BRANCH   8   9
ATOM      9  C   LIG    1       28.253 -20.328   6.499  0.00  0.00    -0.017 A 
ATOM     10  C   LIG    1       28.867 -19.160   6.022  0.00  0.00    +0.006 A 
ATOM     11  C   LIG    1       30.100 -18.745   6.525  0.00  0.00    +0.000 A 
ATOM     12  C   LIG    1       30.737 -19.493   7.513  0.00  0.00    +0.000 A 
ATOM     13  C   LIG    1       30.144 -20.658   7.994  0.00  0.00    +0.000 A 
ATOM     14  C   LIG    1       28.910 -21.076   7.489  0.00  0.00    +0.006 A 
ENDBRANCH   8   9
TORSDOF 1
ENDMDL
MODEL 9
REMARK VINA RESULT:      -6.2      4.815      6.467
REMARK  Name = *****
REMARK                            x       y       z     vdW  Elec       q    Type
REMARK                         _______ _______ _______ _____ _____    ______ ____
ROOT
ATOM      1  C   LIG    1       22.111 -21.072   5.084  0.00  0.00    +0.027 C 
ATOM      2  C   LIG    1       23.347 -20.165   4.964  0.00  0.00    +0.086 C 
ATOM      3  N   LIG    1       23.083 -19.034   4.018  0.00  0.00    -0.298 NA
ATOM      4  C   LIG    1       22.030 -18.134   4.492  0.00  0.00    +0.105 C 
ATOM      5  C   LIG    1       24.329 -18.263   3.818  0.00  0.00    +0.112 C 
ATOM      6  C   LIG    1       25.475 -19.160   3.344  0.00  0.00    +0.176 C 
ATOM      7  O   LIG    1       25.749 -20.175   4.309  0.00  0.00    -0.369 OA
ATOM      8  C   LIG    1       24.592 -21.011   4.504  0.00  0.00    +0.165 C 
ENDROOT
BRANCH   8   9
ATOM      9  C   LIG    1       24.998 -22.077   5.507  0.00  0.00    -0.017 A 
ATOM     10  C   LIG    1       24.843 -23.441   5.217  0.00  0.00    +0.006 A 
ATOM     11  C   LIG    1       25.235 -24.415   6.137  0.00  0.00    +0.000 A 
ATOM     12  C   LIG    1       25.787 -24.037   7.360  0.00  0.00    +0.000 A 
ATOM     13  C   LIG    1       25.942 -22.687   7.665  0.00  0.00    +0.000 A 
ATOM     14  C   LIG    1       25.548 -21.712   6.746  0.00  0.00    +0.006 A 
ENDBRANCH   8   9
TORSDOF 1
ENDMDL
