MODEL 1
REMARK VINA RESULT:      -3.2      0.000      0.000
REMARK  Name = *****
REMARK                            x       y       z     vdW  Elec       q    Type
REMARK                         _______ _______ _______ _____ _____    ______ ____
ROOT
ATOM      1  N   LIG    1       24.993 -18.362   4.212  0.00  0.00    -0.293 NA
ATOM      2  H   LIG    1       25.910 -18.647   3.850  0.00  0.00    +0.123 HD
ENDROOT
BRANCH   1   3
ATOM      3  C   LIG    1       24.674 -17.011   3.591  0.00  0.00    +0.143 C 
ATOM      4  C   LIG    1       25.995 -16.140   3.308  0.00  0.00    +0.247 C 
ATOM      5  O   LIG    1       27.107 -16.677   3.286  0.00  0.00    -0.273 OA
ATOM      6  N   LIG    1       25.846 -14.730   3.102  0.00  0.00    -0.219 N 
ATOM      7  N   LIG    1       24.572 -14.145   2.767  0.00  0.00    -0.224 NA
ATOM      8  C   LIG    1       24.615 -12.947   1.925  0.00  0.00    +0.106 C 
ATOM      9  C   LIG    1       25.557 -11.901   2.489  0.00  0.00    +0.019 C 
ATOM     10  C   LIG    1       26.957 -12.506   2.499  0.00  0.00    +0.037 C 
ATOM     11  C   LIG    1       23.711 -13.925   3.926  0.00  0.00    +0.106 C 
ATOM     12  C   LIG    1       22.948 -15.216   4.057  0.00  0.00    +0.019 C 
ATOM     13  C   LIG    1       27.020 -13.814   3.340  0.00  0.00    +0.202 C 
ATOM     14  C   LIG    1       23.895 -16.236   4.644  0.00  0.00    +0.029 C 
BRANCH  13  15
ATOM     15  C   LIG    1       27.099 -13.424   4.866  0.00  0.00    +0.327 C 
ATOM     16  O   LIG    1       26.402 -13.763   5.802  0.00  0.00    -0.249 OA
BRANCH  15  17
ATOM     17  O   LIG    1       28.157 -12.573   5.017  0.00  0.00    -0.479 OA
ATOM     18  H   LIG    1       27.796 -11.713   4.689  0.00  0.00    +0.295 HD
ENDBRANCH  15  17
ENDBRANCH  13  15
ENDBRANCH   1   3
BRANCH   1  19
ATOM     19  C   LIG    1       23.995 -19.490   3.979  0.00  0.00    +0.164 C 
BRANCH  19  20
ATOM     20  C   LIG    1       22.703 -19.379   4.835  0.00  0.00    +0.324 C 
ATOM     21  O   LIG    1       22.705 -19.395   6.060  0.00  0.00    -0.249 OA
BRANCH  20  22
ATOM     22  O   LIG    1       21.577 -19.402   4.049  0.00  0.00    -0.464 OA
BRANCH  22  24
ATOM     23  C   LIG    1       19.695 -18.257   2.834  0.00  0.00    +0.048 C 
ATOM     24  C   LIG    1       20.967 -18.157   3.652  0.00  0.00    +0.229 C 
ENDBRANCH  22  24
ENDBRANCH  20  22
ENDBRANCH  19  20
BRANCH  19  25
ATOM     25  C   LIG    1       24.631 -20.876   4.280  0.00  0.00    +0.035 C 
BRANCH  25  26
ATOM     26  C   LIG    1       25.140 -21.006   5.748  0.00  0.00    +0.037 C 
BRANCH  26  27
ATOM     27  C   LIG    1       26.609 -20.744   6.019  0.00  0.00    -0.047 A 
ATOM     28  C   LIG    1       27.230 -19.638   5.402  0.00  0.00    +0.003 A 
ATOM     29  C   LIG    1       28.581 -19.355   5.618  0.00  0.00    +0.000 A 
ATOM     30  C   LIG    1       29.330 -20.174   6.457  0.00  0.00    +0.000 A 
ATOM     31  C   LIG    1       28.734 -21.281   7.061  0.00  0.00    +0.000 A 
ATOM     32  C   LIG    1       27.384 -21.567   6.841  0.00  0.00    +0.003 A 
ENDBRANCH  26  27
ENDBRANCH  25  26
ENDBRANCH  19  25
ENDBRANCH   1  19
TORSDOF 10
ENDMDL
MODEL 2
REMARK VINA RESULT:      -2.5      1.061      1.923
REMARK  Name = *****
REMARK                            x       y       z     vdW  Elec       q    Type
REMARK                         _______ _______ _______ _____ _____    ______ ____
ROOT
ATOM      1  N   LIG    1       24.076 -17.864   4.430  0.00  0.00    -0.293 NA
ATOM      2  H   LIG    1       25.041 -18.155   4.623  0.00  0.00    +0.123 HD
ENDROOT
BRANCH   1   3
ATOM      3  C   LIG    1       24.152 -16.506   3.751  0.00  0.00    +0.143 C 
ATOM      4  C   LIG    1       25.666 -16.028   3.504  0.00  0.00    +0.247 C 
ATOM      5  O   LIG    1       26.596 -16.841   3.554  0.00  0.00    -0.273 OA
ATOM      6  N   LIG    1       25.906 -14.639   3.245  0.00  0.00    -0.219 N 
ATOM      7  N   LIG    1       24.847 -13.754   2.830  0.00  0.00    -0.224 NA
ATOM      8  C   LIG    1       25.240 -12.648   1.953  0.00  0.00    +0.106 C 
ATOM      9  C   LIG    1       26.403 -11.865   2.528  0.00  0.00    +0.019 C 
ATOM     10  C   LIG    1       27.591 -12.817   2.626  0.00  0.00    +0.037 C 
ATOM     11  C   LIG    1       24.032 -13.264   3.939  0.00  0.00    +0.106 C 
ATOM     12  C   LIG    1       22.949 -14.300   4.074  0.00  0.00    +0.019 C 
ATOM     13  C   LIG    1       27.271 -14.057   3.511  0.00  0.00    +0.202 C 
ATOM     14  C   LIG    1       23.567 -15.507   4.739  0.00  0.00    +0.029 C 
BRANCH  13  15
ATOM     15  C   LIG    1       27.393 -13.635   5.025  0.00  0.00    +0.327 C 
ATOM     16  O   LIG    1       26.737 -13.971   5.991  0.00  0.00    -0.249 OA
BRANCH  15  17
ATOM     17  O   LIG    1       28.434 -12.755   5.123  0.00  0.00    -0.479 OA
ATOM     18  H   LIG    1       29.187 -13.336   5.390  0.00  0.00    +0.295 HD
ENDBRANCH  15  17
ENDBRANCH  13  15
ENDBRANCH   1   3
BRANCH   1  19
ATOM     19  C   LIG    1       23.362 -18.982   3.678  0.00  0.00    +0.164 C 
BRANCH  19  20
ATOM     20  C   LIG    1       22.369 -19.797   4.551  0.00  0.00    +0.324 C 
ATOM     21  O   LIG    1       21.565 -20.597   4.087  0.00  0.00    -0.249 OA
BRANCH  20  22
ATOM     22  O   LIG    1       22.418 -19.405   5.867  0.00  0.00    -0.464 OA
BRANCH  22  24
ATOM     23  C   LIG    1       22.876 -21.571   7.061  0.00  0.00    +0.048 C 
ATOM     24  C   LIG    1       23.256 -20.129   6.789  0.00  0.00    +0.229 C 
ENDBRANCH  22  24
ENDBRANCH  20  22
ENDBRANCH  19  20
BRANCH  19  25
ATOM     25  C   LIG    1       24.376 -19.989   3.068  0.00  0.00    +0.035 C 
BRANCH  25  26
ATOM     26  C   LIG    1       24.836 -21.079   4.083  0.00  0.00    +0.037 C 
BRANCH  26  27
ATOM     27  C   LIG    1       26.019 -20.765   4.978  0.00  0.00    -0.047 A 
ATOM     28  C   LIG    1       26.152 -21.456   6.201  0.00  0.00    +0.003 A 
ATOM     29  C   LIG    1       27.223 -21.202   7.062  0.00  0.00    +0.000 A 
ATOM     30  C   LIG    1       28.179 -20.254   6.710  0.00  0.00    +0.000 A 
ATOM     31  C   LIG    1       28.052 -19.551   5.512  0.00  0.00    +0.000 A 
ATOM     32  C   LIG    1       26.978 -19.801   4.653  0.00  0.00    +0.003 A 
ENDBRANCH  26  27
ENDBRANCH  25  26
ENDBRANCH  19  25
ENDBRANCH   1  19
TORSDOF 10
ENDMDL
