MODEL 1
REMARK VINA RESULT:      -6.3      0.000      0.000
REMARK  Name = *****
REMARK                            x       y       z     vdW  Elec       q    Type
REMARK                         _______ _______ _______ _____ _____    ______ ____
ROOT
ATOM      1  C   LIG    1       28.987 -19.840   7.531  0.00  0.00    +0.134 C 
ENDROOT
BRANCH   1   2
ATOM      2  C   LIG    1       28.607 -19.521   6.059  0.00  0.00    +0.338 C 
BRANCH   2   3
ATOM      3  O   LIG    1       27.647 -20.466   5.597  0.00  0.00    -0.216 OA
BRANCH   3   5
ATOM      4  O   LIG    1       26.608 -18.956   4.272  0.00  0.00    +0.093 OA
ATOM      5  N   LIG    1       26.469 -19.894   5.058  0.00  0.00    +0.284 N 
ATOM      6  O   LIG    1       25.445 -20.416   5.501  0.00  0.00    -0.534 OA
ENDBRANCH   3   5
ENDBRANCH   2   3
ENDBRANCH   1   2
BRANCH   1   7
ATOM      7  C   LIG    1       27.695 -20.080   8.367  0.00  0.00    +0.338 C 
BRANCH   7   8
ATOM      8  O   LIG    1       27.605 -21.454   8.750  0.00  0.00    -0.216 OA
BRANCH   8   9
ATOM      9  N   LIG    1       26.342 -22.027   8.457  0.00  0.00    +0.284 N 
ATOM     10  O   LIG    1       26.297 -22.838   7.528  0.00  0.00    -0.534 OA
ATOM     11  O   LIG    1       25.447 -21.624   9.197  0.00  0.00    +0.093 OA
ENDBRANCH   8   9
ENDBRANCH   7   8
ENDBRANCH   1   7
BRANCH   1  12
ATOM     12  C   LIG    1       29.768 -18.665   8.181  0.00  0.00    +0.338 C 
BRANCH  12  13
ATOM     13  O   LIG    1       29.549 -18.547   9.585  0.00  0.00    -0.216 OA
BRANCH  13  14
ATOM     14  N   LIG    1       30.595 -17.863  10.257  0.00  0.00    +0.284 N 
ATOM     15  O   LIG    1       31.711 -18.373  10.220  0.00  0.00    -0.534 OA
ATOM     16  O   LIG    1       30.202 -16.855  10.846  0.00  0.00    +0.093 OA
ENDBRANCH  13  14
ENDBRANCH  12  13
ENDBRANCH   1  12
BRANCH   1  17
ATOM     17  C   LIG    1       29.847 -21.134   7.535  0.00  0.00    +0.338 C 
BRANCH  17  18
ATOM     18  O   LIG    1       31.085 -20.890   8.199  0.00  0.00    -0.216 OA
BRANCH  18  19
ATOM     19  N   LIG    1       31.410 -21.919   9.117  0.00  0.00    +0.284 N 
ATOM     20  O   LIG    1       32.286 -22.671   8.693  0.00  0.00    -0.534 OA
ATOM     21  O   LIG    1       30.813 -21.910  10.191  0.00  0.00    +0.093 OA
ENDBRANCH  18  19
ENDBRANCH  17  18
ENDBRANCH   1  17
TORSDOF 12
ENDMDL
MODEL 2
REMARK VINA RESULT:      -6.3      0.325      5.550
REMARK  Name = *****
REMARK                            x       y       z     vdW  Elec       q    Type
REMARK                         _______ _______ _______ _____ _____    ______ ____
ROOT
ATOM      1  C   LIG    1       29.197 -19.670   7.523  0.00  0.00    +0.134 C 
ENDROOT
BRANCH   1   2
ATOM      2  C   LIG    1       29.987 -18.501   8.171  0.00  0.00    +0.338 C 
BRANCH   2   3
ATOM      3  O   LIG    1       29.623 -18.377   9.542  0.00  0.00    -0.216 OA
BRANCH   3   5
ATOM      4  O   LIG    1       31.727 -18.262  10.363  0.00  0.00    +0.093 OA
ATOM      5  N   LIG    1       30.602 -17.761  10.358  0.00  0.00    +0.284 N 
ATOM      6  O   LIG    1       30.155 -16.804  10.992  0.00  0.00    -0.534 OA
ENDBRANCH   3   5
ENDBRANCH   2   3
ENDBRANCH   1   2
BRANCH   1   7
ATOM      7  C   LIG    1       30.095 -20.941   7.463  0.00  0.00    +0.338 C 
BRANCH   7   8
ATOM      8  O   LIG    1       31.234 -20.780   8.312  0.00  0.00    -0.216 OA
BRANCH   8   9
ATOM      9  N   LIG    1       31.443 -21.888   9.170  0.00  0.00    +0.284 N 
ATOM     10  O   LIG    1       30.805 -21.905  10.227  0.00  0.00    -0.534 OA
ATOM     11  O   LIG    1       32.251 -22.699   8.723  0.00  0.00    +0.093 OA
ENDBRANCH   8   9
ENDBRANCH   7   8
ENDBRANCH   1   7
BRANCH   1  12
ATOM     12  C   LIG    1       28.758 -19.323   6.074  0.00  0.00    +0.338 C 
BRANCH  12  13
ATOM     13  O   LIG    1       27.940 -20.325   5.475  0.00  0.00    -0.216 OA
BRANCH  13  14
ATOM     14  N   LIG    1       26.663 -19.842   5.084  0.00  0.00    +0.284 N 
ATOM     15  O   LIG    1       26.639 -18.888   4.313  0.00  0.00    -0.534 OA
ATOM     16  O   LIG    1       25.740 -20.437   5.642  0.00  0.00    +0.093 OA
ENDBRANCH  13  14
ENDBRANCH  12  13
ENDBRANCH   1  12
BRANCH   1  17
ATOM     17  C   LIG    1       27.956 -19.963   8.413  0.00  0.00    +0.338 C 
BRANCH  17  18
ATOM     18  O   LIG    1       27.741 -21.370   8.493  0.00  0.00    -0.216 OA
BRANCH  18  19
ATOM     19  N   LIG    1       26.370 -21.690   8.657  0.00  0.00    +0.284 N 
ATOM     20  O   LIG    1       25.778 -20.877   9.365  0.00  0.00    -0.534 OA
ATOM     21  O   LIG    1       25.962 -22.687   8.068  0.00  0.00    +0.093 OA
ENDBRANCH  18  19
ENDBRANCH  17  18
ENDBRANCH   1  17
TORSDOF 12
ENDMDL
MODEL 3
REMARK VINA RESULT:      -6.3      0.122      4.577
REMARK  Name = *****
REMARK                            x       y       z     vdW  Elec       q    Type
REMARK                         _______ _______ _______ _____ _____    ______ ____
ROOT
ATOM      1  C   LIG    1       29.004 -19.830   7.559  0.00  0.00    +0.134 C 
ENDROOT
BRANCH   1   2
ATOM      2  C   LIG    1       29.833 -18.662   8.159  0.00  0.00    +0.338 C 
BRANCH   2   3
ATOM      3  O   LIG    1       29.554 -18.540   9.550  0.00  0.00    -0.216 OA
BRANCH   3   5
ATOM      4  O   LIG    1       30.165 -16.806  10.867  0.00  0.00    +0.093 OA
ATOM      5  N   LIG    1       30.531 -17.829  10.287  0.00  0.00    +0.284 N 
ATOM      6  O   LIG    1       31.649 -18.339  10.204  0.00  0.00    -0.534 OA
ENDBRANCH   3   5
ENDBRANCH   2   3
ENDBRANCH   1   2
BRANCH   1   7
ATOM      7  C   LIG    1       28.552 -19.465   6.114  0.00  0.00    +0.338 C 
BRANCH   7   8
ATOM      8  O   LIG    1       27.675 -20.471   5.604  0.00  0.00    -0.216 OA
BRANCH   8   9
ATOM      9  N   LIG    1       26.444 -19.946   5.138  0.00  0.00    +0.284 N 
ATOM     10  O   LIG    1       25.414 -20.398   5.647  0.00  0.00    -0.534 OA
ATOM     11  O   LIG    1       26.583 -19.086   4.271  0.00  0.00    +0.093 OA
ENDBRANCH   8   9
ENDBRANCH   7   8
ENDBRANCH   1   7
BRANCH   1  12
ATOM     12  C   LIG    1       27.731 -20.112   8.403  0.00  0.00    +0.338 C 
BRANCH  12  13
ATOM     13  O   LIG    1       27.566 -21.488   8.737  0.00  0.00    -0.216 OA
BRANCH  13  14
ATOM     14  N   LIG    1       26.236 -21.950   8.557  0.00  0.00    +0.284 N 
ATOM     15  O   LIG    1       26.059 -22.829   7.720  0.00  0.00    -0.534 OA
ATOM     16  O   LIG    1       25.423 -21.339   9.251  0.00  0.00    +0.093 OA
ENDBRANCH  13  14
ENDBRANCH  12  13
ENDBRANCH   1  12
BRANCH   1  17
ATOM     17  C   LIG    1       29.914 -21.089   7.507  0.00  0.00    +0.338 C 
BRANCH  17  18
ATOM     18  O   LIG    1       31.123 -20.841   8.223  0.00  0.00    -0.216 OA
BRANCH  18  19
ATOM     19  N   LIG    1       31.428 -21.887   9.129  0.00  0.00    +0.284 N 
ATOM     20  O   LIG    1       32.330 -22.617   8.720  0.00  0.00    -0.534 OA
ATOM     21  O   LIG    1       30.793 -21.911  10.180  0.00  0.00    +0.093 OA
ENDBRANCH  18  19
ENDBRANCH  17  18
ENDBRANCH   1  17
TORSDOF 12
ENDMDL
MODEL 4
REMARK VINA RESULT:      -6.3      1.349      6.079
REMARK  Name = *****
REMARK                            x       y       z     vdW  Elec       q    Type
REMARK                         _______ _______ _______ _____ _____    ______ ____
ROOT
ATOM      1  C   LIG    1       28.573 -20.146   7.686  0.00  0.00    +0.134 C 
ENDROOT
BRANCH   1   2
ATOM      2  C   LIG    1       29.443 -21.416   7.887  0.00  0.00    +0.338 C 
BRANCH   2   3
ATOM      3  O   LIG    1       30.099 -21.353   9.150  0.00  0.00    -0.216 OA
BRANCH   3   5
ATOM      4  O   LIG    1       31.501 -23.120   8.986  0.00  0.00    +0.093 OA
ATOM      5  N   LIG    1       31.402 -21.906   9.164  0.00  0.00    +0.284 N 
ATOM      6  O   LIG    1       32.270 -21.062   9.398  0.00  0.00    -0.534 OA
ENDBRANCH   3   5
ENDBRANCH   2   3
ENDBRANCH   1   2
BRANCH   1   7
ATOM      7  C   LIG    1       29.296 -18.912   8.303  0.00  0.00    +0.338 C 
BRANCH   7   8
ATOM      8  O   LIG    1       30.090 -18.259   7.309  0.00  0.00    -0.216 OA
BRANCH   8   9
ATOM      9  N   LIG    1       31.481 -18.446   7.504  0.00  0.00    +0.284 N 
ATOM     10  O   LIG    1       32.044 -17.682   8.293  0.00  0.00    -0.534 OA
ATOM     11  O   LIG    1       31.940 -19.375   6.843  0.00  0.00    +0.093 OA
ENDBRANCH   8   9
ENDBRANCH   7   8
ENDBRANCH   1   7
BRANCH   1  12
ATOM     12  C   LIG    1       27.191 -20.289   8.381  0.00  0.00    +0.338 C 
BRANCH  12  13
ATOM     13  O   LIG    1       26.913 -21.615   8.822  0.00  0.00    -0.216 OA
BRANCH  13  14
ATOM     14  N   LIG    1       25.732 -22.157   8.250  0.00  0.00    +0.284 N 
ATOM     15  O   LIG    1       24.685 -21.550   8.451  0.00  0.00    -0.534 OA
ATOM     16  O   LIG    1       25.933 -23.223   7.667  0.00  0.00    +0.093 OA
ENDBRANCH  13  14
ENDBRANCH  12  13
ENDBRANCH   1  12
BRANCH   1  17
ATOM     17  C   LIG    1       28.394 -19.923   6.158  0.00  0.00    +0.338 C 
BRANCH  17  18
ATOM     18  O   LIG    1       27.336 -20.745   5.670  0.00  0.00    -0.216 OA
BRANCH  18  19
ATOM     19  N   LIG    1       26.309 -19.983   5.060  0.00  0.00    +0.284 N 
ATOM     20  O   LIG    1       25.184 -20.374   5.372  0.00  0.00    -0.534 OA
ATOM     21  O   LIG    1       26.663 -19.048   4.348  0.00  0.00    +0.093 OA
ENDBRANCH  18  19
ENDBRANCH  17  18
ENDBRANCH   1  17
TORSDOF 12
ENDMDL
MODEL 5
REMARK VINA RESULT:      -6.3      0.102      4.858
REMARK  Name = *****
REMARK                            x       y       z     vdW  Elec       q    Type
REMARK                         _______ _______ _______ _____ _____    ______ ____
ROOT
ATOM      1  C   LIG    1       29.024 -19.777   7.557  0.00  0.00    +0.134 C 
ENDROOT
BRANCH   1   2
ATOM      2  C   LIG    1       29.782 -18.555   8.143  0.00  0.00    +0.338 C 
BRANCH   2   3
ATOM      3  O   LIG    1       29.542 -18.468   9.544  0.00  0.00    -0.216 OA
BRANCH   3   5
ATOM      4  O   LIG    1       31.671 -18.340  10.295  0.00  0.00    +0.093 OA
ATOM      5  N   LIG    1       30.559 -17.811  10.277  0.00  0.00    +0.284 N 
ATOM      6  O   LIG    1       30.154 -16.791  10.837  0.00  0.00    -0.534 OA
ENDBRANCH   3   5
ENDBRANCH   2   3
ENDBRANCH   1   2
BRANCH   1   7
ATOM      7  C   LIG    1       27.764 -20.077   8.422  0.00  0.00    +0.338 C 
BRANCH   7   8
ATOM      8  O   LIG    1       27.655 -21.482   8.662  0.00  0.00    -0.216 OA
BRANCH   8   9
ATOM      9  N   LIG    1       26.328 -21.963   8.530  0.00  0.00    +0.284 N 
ATOM     10  O   LIG    1       25.470 -21.442   9.246  0.00  0.00    -0.534 OA
ATOM     11  O   LIG    1       26.221 -22.856   7.691  0.00  0.00    +0.093 OA
ENDBRANCH   8   9
ENDBRANCH   7   8
ENDBRANCH   1   7
BRANCH   1  12
ATOM     12  C   LIG    1       29.916 -21.049   7.553  0.00  0.00    +0.338 C 
BRANCH  12  13
ATOM     13  O   LIG    1       31.146 -20.881   8.253  0.00  0.00    -0.216 OA
BRANCH  13  14
ATOM     14  N   LIG    1       31.421 -21.939   9.158  0.00  0.00    +0.284 N 
ATOM     15  O   LIG    1       30.846 -21.911  10.241  0.00  0.00    -0.534 OA
ATOM     16  O   LIG    1       32.269 -22.723   8.729  0.00  0.00    +0.093 OA
ENDBRANCH  13  14
ENDBRANCH  12  13
ENDBRANCH   1  12
BRANCH   1  17
ATOM     17  C   LIG    1       28.579 -19.419   6.112  0.00  0.00    +0.338 C 
BRANCH  17  18
ATOM     18  O   LIG    1       27.719 -20.437   5.605  0.00  0.00    -0.216 OA
BRANCH  18  19
ATOM     19  N   LIG    1       26.501 -19.908   5.110  0.00  0.00    +0.284 N 
ATOM     20  O   LIG    1       25.515 -20.441   5.616  0.00  0.00    -0.534 OA
ATOM     21  O   LIG    1       26.587 -18.998   4.290  0.00  0.00    +0.093 OA
ENDBRANCH  18  19
ENDBRANCH  17  18
ENDBRANCH   1  17
TORSDOF 12
ENDMDL
MODEL 6
REMARK VINA RESULT:      -6.3      0.974      4.869
REMARK  Name = *****
REMARK                            x       y       z     vdW  Elec       q    Type
REMARK                         _______ _______ _______ _____ _____    ______ ____
ROOT
ATOM      1  C   LIG    1       28.383 -20.389   7.474  0.00  0.00    +0.134 C 
ENDROOT
BRANCH   1   2
ATOM      2  C   LIG    1       29.169 -21.613   8.018  0.00  0.00    +0.338 C 
BRANCH   2   3
ATOM      3  O   LIG    1       30.562 -21.318   8.038  0.00  0.00    -0.216 OA
BRANCH   3   5
ATOM      4  O   LIG    1       30.645 -22.472   9.980  0.00  0.00    +0.093 OA
ATOM      5  N   LIG    1       31.225 -21.683   9.234  0.00  0.00    +0.284 N 
ATOM      6  O   LIG    1       32.305 -21.106   9.371  0.00  0.00    -0.534 OA
ENDBRANCH   3   5
ENDBRANCH   2   3
ENDBRANCH   1   2
BRANCH   1   7
ATOM      7  C   LIG    1       27.052 -20.226   8.266  0.00  0.00    +0.338 C 
BRANCH   7   8
ATOM      8  O   LIG    1       26.701 -21.459   8.899  0.00  0.00    -0.216 OA
BRANCH   8   9
ATOM      9  N   LIG    1       25.640 -22.133   8.245  0.00  0.00    +0.284 N 
ATOM     10  O   LIG    1       25.900 -23.226   7.735  0.00  0.00    -0.534 OA
ATOM     11  O   LIG    1       24.578 -21.514   8.287  0.00  0.00    +0.093 OA
ENDBRANCH   8   9
ENDBRANCH   7   8
ENDBRANCH   1   7
BRANCH   1  12
ATOM     12  C   LIG    1       28.029 -20.565   5.972  0.00  0.00    +0.338 C 
BRANCH  12  13
ATOM     13  O   LIG    1       27.282 -19.477   5.434  0.00  0.00    -0.216 OA
BRANCH  13  14
ATOM     14  N   LIG    1       26.115 -19.890   4.740  0.00  0.00    +0.284 N 
ATOM     15  O   LIG    1       25.679 -19.131   3.880  0.00  0.00    -0.534 OA
ATOM     16  O   LIG    1       25.666 -20.958   5.159  0.00  0.00    +0.093 OA
ENDBRANCH  13  14
ENDBRANCH  12  13
ENDBRANCH   1  12
BRANCH   1  17
ATOM     17  C   LIG    1       29.260 -19.123   7.682  0.00  0.00    +0.338 C 
BRANCH  17  18
ATOM     18  O   LIG    1       29.264 -18.759   9.061  0.00  0.00    -0.216 OA
BRANCH  18  19
ATOM     19  N   LIG    1       30.516 -18.237   9.469  0.00  0.00    +0.284 N 
ATOM     20  O   LIG    1       31.113 -17.671   8.555  0.00  0.00    -0.534 OA
ATOM     21  O   LIG    1       30.819 -18.388  10.650  0.00  0.00    +0.093 OA
ENDBRANCH  18  19
ENDBRANCH  17  18
ENDBRANCH   1  17
TORSDOF 12
ENDMDL
MODEL 7
REMARK VINA RESULT:      -6.3      1.018      4.338
REMARK  Name = *****
REMARK                            x       y       z     vdW  Elec       q    Type
REMARK                         _______ _______ _______ _____ _____    ______ ____
ROOT
ATOM      1  C   LIG    1       28.293 -20.335   7.544  0.00  0.00    +0.134 C 
ENDROOT
BRANCH   1   2
ATOM      2  C   LIG    1       27.790 -20.381   6.076  0.00  0.00    +0.338 C 
BRANCH   2   3
ATOM      3  O   LIG    1       26.421 -19.990   6.026  0.00  0.00    -0.216 OA
BRANCH   3   5
ATOM      4  O   LIG    1       25.162 -21.546   4.974  0.00  0.00    +0.093 OA
ATOM      5  N   LIG    1       25.719 -20.451   4.887  0.00  0.00    +0.284 N 
ATOM      6  O   LIG    1       25.804 -19.675   3.933  0.00  0.00    -0.534 OA
ENDBRANCH   3   5
ENDBRANCH   2   3
ENDBRANCH   1   2
BRANCH   1   7
ATOM      7  C   LIG    1       29.164 -21.592   7.840  0.00  0.00    +0.338 C 
BRANCH   7   8
ATOM      8  O   LIG    1       30.542 -21.223   7.940  0.00  0.00    -0.216 OA
BRANCH   8   9
ATOM      9  N   LIG    1       31.145 -21.662   9.146  0.00  0.00    +0.284 N 
ATOM     10  O   LIG    1       30.488 -22.431   9.853  0.00  0.00    -0.534 OA
ATOM     11  O   LIG    1       32.272 -21.202   9.316  0.00  0.00    +0.093 OA
ENDBRANCH   8   9
ENDBRANCH   7   8
ENDBRANCH   1   7
BRANCH   1  12
ATOM     12  C   LIG    1       27.109 -20.325   8.550  0.00  0.00    +0.338 C 
BRANCH  12  13
ATOM     13  O   LIG    1       26.747 -21.624   9.012  0.00  0.00    -0.216 OA
BRANCH  13  14
ATOM     14  N   LIG    1       25.636 -22.173   8.320  0.00  0.00    +0.284 N 
ATOM     15  O   LIG    1       25.817 -23.229   7.721  0.00  0.00    -0.534 OA
ATOM     16  O   LIG    1       24.638 -21.453   8.377  0.00  0.00    +0.093 OA
ENDBRANCH  13  14
ENDBRANCH  12  13
ENDBRANCH   1  12
BRANCH   1  17
ATOM     17  C   LIG    1       29.163 -19.058   7.715  0.00  0.00    +0.338 C 
BRANCH  17  18
ATOM     18  O   LIG    1       29.276 -18.732   9.099  0.00  0.00    -0.216 OA
BRANCH  18  19
ATOM     19  N   LIG    1       30.553 -18.209   9.420  0.00  0.00    +0.284 N 
ATOM     20  O   LIG    1       30.871 -18.423  10.588  0.00  0.00    -0.534 OA
ATOM     21  O   LIG    1       31.167 -17.654   8.512  0.00  0.00    +0.093 OA
ENDBRANCH  18  19
ENDBRANCH  17  18
ENDBRANCH   1  17
TORSDOF 12
ENDMDL
MODEL 8
REMARK VINA RESULT:      -6.2      0.958      4.473
REMARK  Name = *****
REMARK                            x       y       z     vdW  Elec       q    Type
REMARK                         _______ _______ _______ _____ _____    ______ ____
ROOT
ATOM      1  C   LIG    1       28.389 -20.314   7.533  0.00  0.00    +0.134 C 
ENDROOT
BRANCH   1   2
ATOM      2  C   LIG    1       29.232 -21.593   7.783  0.00  0.00    +0.338 C 
BRANCH   2   3
ATOM      3  O   LIG    1       30.590 -21.235   8.019  0.00  0.00    -0.216 OA
BRANCH   3   5
ATOM      4  O   LIG    1       30.394 -22.430   9.928  0.00  0.00    +0.093 OA
ATOM      5  N   LIG    1       31.142 -21.769   9.208  0.00  0.00    +0.284 N 
ATOM      6  O   LIG    1       32.322 -21.448   9.367  0.00  0.00    -0.534 OA
ENDBRANCH   3   5
ENDBRANCH   2   3
ENDBRANCH   1   2
BRANCH   1   7
ATOM      7  C   LIG    1       27.833 -20.328   6.078  0.00  0.00    +0.338 C 
BRANCH   7   8
ATOM      8  O   LIG    1       26.459 -19.935   6.073  0.00  0.00    -0.216 OA
BRANCH   8   9
ATOM      9  N   LIG    1       25.760 -20.384   4.925  0.00  0.00    +0.284 N 
ATOM     10  O   LIG    1       25.210 -21.486   5.000  0.00  0.00    -0.534 OA
ATOM     11  O   LIG    1       25.800 -19.585   3.992  0.00  0.00    +0.093 OA
ENDBRANCH   8   9
ENDBRANCH   7   8
ENDBRANCH   1   7
BRANCH   1  12
ATOM     12  C   LIG    1       29.244 -19.029   7.707  0.00  0.00    +0.338 C 
BRANCH  12  13
ATOM     13  O   LIG    1       29.347 -18.595   9.060  0.00  0.00    -0.216 OA
BRANCH  13  14
ATOM     14  N   LIG    1       30.672 -18.249   9.436  0.00  0.00    +0.284 N 
ATOM     15  O   LIG    1       31.021 -18.532  10.577  0.00  0.00    -0.534 OA
ATOM     16  O   LIG    1       31.274 -17.643   8.548  0.00  0.00    +0.093 OA
ENDBRANCH  13  14
ENDBRANCH  12  13
ENDBRANCH   1  12
BRANCH   1  17
ATOM     17  C   LIG    1       27.201 -20.317   8.535  0.00  0.00    +0.338 C 
BRANCH  17  18
ATOM     18  O   LIG    1       26.923 -21.653   8.950  0.00  0.00    -0.216 OA
BRANCH  18  19
ATOM     19  N   LIG    1       25.729 -22.152   8.373  0.00  0.00    +0.284 N 
ATOM     20  O   LIG    1       24.768 -21.408   8.561  0.00  0.00    -0.534 OA
ATOM     21  O   LIG    1       25.814 -23.212   7.759  0.00  0.00    +0.093 OA
ENDBRANCH  18  19
ENDBRANCH  17  18
ENDBRANCH   1  17
TORSDOF 12
ENDMDL
MODEL 9
REMARK VINA RESULT:      -6.2      0.928      4.190
REMARK  Name = *****
REMARK                            x       y       z     vdW  Elec       q    Type
REMARK                         _______ _______ _______ _____ _____    ______ ____
ROOT
ATOM      1  C   LIG    1       28.385 -20.258   7.456  0.00  0.00    +0.134 C 
ENDROOT
BRANCH   1   2
ATOM      2  C   LIG    1       27.895 -20.274   5.983  0.00  0.00    +0.338 C 
BRANCH   2   3
ATOM      3  O   LIG    1       26.472 -20.246   5.951  0.00  0.00    -0.216 OA
BRANCH   3   5
ATOM      4  O   LIG    1       26.280 -18.988   4.082  0.00  0.00    +0.093 OA
ATOM      5  N   LIG    1       25.916 -20.005   4.671  0.00  0.00    +0.284 N 
ATOM      6  O   LIG    1       25.094 -20.864   4.344  0.00  0.00    -0.534 OA
ENDBRANCH   3   5
ENDBRANCH   2   3
ENDBRANCH   1   2
BRANCH   1   7
ATOM      7  C   LIG    1       29.216 -18.967   7.718  0.00  0.00    +0.338 C 
BRANCH   7   8
ATOM      8  O   LIG    1       29.307 -18.717   9.122  0.00  0.00    -0.216 OA
BRANCH   8   9
ATOM      9  N   LIG    1       30.567 -18.196   9.510  0.00  0.00    +0.284 N 
ATOM     10  O   LIG    1       31.216 -17.599   8.647  0.00  0.00    -0.534 OA
ATOM     11  O   LIG    1       30.838 -18.417  10.689  0.00  0.00    +0.093 OA
ENDBRANCH   8   9
ENDBRANCH   7   8
ENDBRANCH   1   7
BRANCH   1  12
ATOM     12  C   LIG    1       29.290 -21.482   7.766  0.00  0.00    +0.338 C 
BRANCH  12  13
ATOM     13  O   LIG    1       30.665 -21.144   7.927  0.00  0.00    -0.216 OA
BRANCH  13  14
ATOM     14  N   LIG    1       31.219 -21.623   9.143  0.00  0.00    +0.284 N 
ATOM     15  O   LIG    1       30.531 -22.394   9.805  0.00  0.00    -0.534 OA
ATOM     16  O   LIG    1       32.321 -21.131   9.390  0.00  0.00    +0.093 OA
ENDBRANCH  13  14
ENDBRANCH  12  13
ENDBRANCH   1  12
BRANCH   1  17
ATOM     17  C   LIG    1       27.135 -20.257   8.379  0.00  0.00    +0.338 C 
BRANCH  17  18
ATOM     18  O   LIG    1       26.888 -21.576   8.860  0.00  0.00    -0.216 OA
BRANCH  18  19
ATOM     19  N   LIG    1       25.708 -22.133   8.306  0.00  0.00    +0.284 N 
ATOM     20  O   LIG    1       25.914 -23.203   7.736  0.00  0.00    -0.534 OA
ATOM     21  O   LIG    1       24.666 -21.508   8.485  0.00  0.00    +0.093 OA
ENDBRANCH  18  19
ENDBRANCH  17  18
ENDBRANCH   1  17
TORSDOF 12
ENDMDL
