MODEL 1
REMARK VINA RESULT:      -4.1      0.000      0.000
REMARK  Name = *****
REMARK                            x       y       z     vdW  Elec       q    Type
REMARK                         _______ _______ _______ _____ _____    ______ ____
ROOT
ATOM      1  C   LIG    1       23.691 -19.834   4.785  0.00  0.00    +0.080 A 
ATOM      2  C   LIG    1       23.216 -18.604   4.255  0.00  0.00    +0.009 A 
ATOM      3  C   LIG    1       21.849 -18.579   3.862  0.00  0.00    +0.032 A 
ATOM      4  C   LIG    1       21.014 -19.675   4.022  0.00  0.00    +0.060 A 
ATOM      5 CL   LIG    1       19.361 -19.594   3.574  0.00  0.00    -0.082 Cl
ATOM      6  C   LIG    1       21.556 -20.817   4.551  0.00  0.00    +0.131 A 
ATOM      7  N   LIG    1       22.854 -20.916   4.916  0.00  0.00    -0.253 NA
ENDROOT
BRANCH   1  12
ATOM      8  C   LIG    1       28.937 -20.801   7.062  0.00  0.00    +0.065 C 
ATOM      9  C   LIG    1       27.585 -20.648   6.424  0.00  0.00    +0.038 A 
ATOM     10  N   LIG    1       27.498 -19.944   5.271  0.00  0.00    -0.260 NA
ATOM     11  C   LIG    1       26.252 -19.715   4.758  0.00  0.00    +0.121 A 
ATOM     12  C   LIG    1       25.053 -20.170   5.301  0.00  0.00    +0.019 A 
ATOM     13  C   LIG    1       25.206 -20.913   6.491  0.00  0.00    +0.013 A 
ATOM     14  C   LIG    1       26.461 -21.144   7.062  0.00  0.00    +0.024 A 
ENDBRANCH   1  12
BRANCH   2  15
ATOM     15  C   LIG    1       23.981 -17.340   4.058  0.00  0.00    -0.016 A 
ATOM     16  C   LIG    1       23.409 -16.093   4.416  0.00  0.00    +0.010 A 
ATOM     17  C   LIG    1       24.074 -14.879   4.215  0.00  0.00    +0.027 A 
ATOM     18  C   LIG    1       25.361 -14.894   3.691  0.00  0.00    +0.088 A 
ATOM     19  C   LIG    1       25.948 -16.099   3.301  0.00  0.00    +0.027 A 
ATOM     20  C   LIG    1       25.248 -17.304   3.457  0.00  0.00    +0.010 A 
BRANCH  18  21
ATOM     21  S   LIG    1       26.248 -13.367   3.474  0.00  0.00    -0.006 S 
ATOM     22  O   LIG    1       26.005 -12.549   4.653  0.00  0.00    -0.170 OA
ATOM     23  O   LIG    1       25.945 -12.869   2.150  0.00  0.00    -0.170 OA
ATOM     24  C   LIG    1       27.945 -13.883   3.503  0.00  0.00    +0.200 C 
ENDBRANCH  18  21
ENDBRANCH   2  15
TORSDOF 3
ENDMDL
