MODEL 1
REMARK VINA RESULT:      -8.6      0.000      0.000
REMARK  Name = *****
REMARK                            x       y       z     vdW  Elec       q    Type
REMARK                         _______ _______ _______ _____ _____    ______ ____
ROOT
ATOM      1  C   LIG    1       25.468 -21.651   6.618  0.00  0.00    +0.053 C 
ENDROOT
BRANCH   1   8
ATOM      2  C   LIG    1       30.988 -19.395   6.692  0.00  0.00    +0.048 C 
ATOM      3  C   LIG    1       29.610 -19.984   6.812  0.00  0.00    +0.003 C 
ATOM      4  C   LIG    1       28.626 -19.424   5.849  0.00  0.00    +0.185 C 
ATOM      5  O   LIG    1       28.898 -18.421   5.196  0.00  0.00    -0.287 OA
ATOM      6  C   LIG    1       27.311 -20.116   5.685  0.00  0.00    +0.004 C 
ATOM      7  C   LIG    1       26.562 -19.690   4.451  0.00  0.00    +0.048 C 
ATOM      8  C   LIG    1       26.870 -20.999   6.609  0.00  0.00    +0.013 C 
ATOM      9  C   LIG    1       27.777 -21.333   7.753  0.00  0.00    +0.186 C 
ATOM     10  O   LIG    1       27.374 -21.943   8.740  0.00  0.00    -0.287 OA
ATOM     11  C   LIG    1       29.208 -20.909   7.698  0.00  0.00    +0.003 C 
ATOM     12  C   LIG    1       30.071 -21.565   8.740  0.00  0.00    +0.048 C 
ENDBRANCH   1   8
BRANCH   1  13
ATOM     13  C   LIG    1       25.511 -23.147   6.286  0.00  0.00    -0.040 A 
ATOM     14  C   LIG    1       25.966 -24.077   7.234  0.00  0.00    +0.004 A 
ATOM     15  C   LIG    1       25.972 -25.447   6.944  0.00  0.00    +0.000 A 
ATOM     16  C   LIG    1       25.526 -25.909   5.706  0.00  0.00    +0.000 A 
ATOM     17  C   LIG    1       25.092 -25.002   4.749  0.00  0.00    +0.000 A 
ATOM     18  C   LIG    1       25.084 -23.640   5.040  0.00  0.00    +0.004 A 
ENDBRANCH   1  13
BRANCH   1  19
ATOM     19  C   LIG    1       24.691 -21.306   7.931  0.00  0.00    +0.013 C 
BRANCH  19  20
ATOM     20  C   LIG    1       23.194 -20.994   7.718  0.00  0.00    +0.001 C 
BRANCH  20  21
ATOM     21  C   LIG    1       22.602 -21.847   6.587  0.00  0.00    +0.001 C 
BRANCH  21  22
ATOM     22  C   LIG    1       22.374 -21.040   5.303  0.00  0.00    +0.011 C 
BRANCH  22  23
ATOM     23  C   LIG    1       22.621 -19.547   5.532  0.00  0.00    +0.120 C 
BRANCH  23  24
ATOM     24  C   LIG    1       22.406 -18.749   4.263  0.00  0.00    +0.305 C 
ATOM     25  O   LIG    1       21.354 -18.241   3.930  0.00  0.00    -0.251 OA
BRANCH  24  26
ATOM     26  O   LIG    1       23.514 -18.693   3.484  0.00  0.00    -0.481 OA
ATOM     27  H   LIG    1       23.899 -17.802   3.396  0.00  0.00    +0.295 HD
ENDBRANCH  24  26
ENDBRANCH  23  24
ENDBRANCH  22  23
ENDBRANCH  21  22
ENDBRANCH  20  21
ENDBRANCH  19  20
ENDBRANCH   1  19
TORSDOF 9
ENDMDL
MODEL 2
REMARK VINA RESULT:      -8.6      2.685      5.024
REMARK  Name = *****
REMARK                            x       y       z     vdW  Elec       q    Type
REMARK                         _______ _______ _______ _____ _____    ______ ____
ROOT
ATOM      1  C   LIG    1       25.788 -22.058   6.829  0.00  0.00    +0.053 C 
ENDROOT
BRANCH   1   8
ATOM      2  C   LIG    1       30.986 -19.135   6.742  0.00  0.00    +0.048 C 
ATOM      3  C   LIG    1       29.695 -19.891   6.901  0.00  0.00    +0.003 C 
ATOM      4  C   LIG    1       28.617 -19.453   5.978  0.00  0.00    +0.185 C 
ATOM      5  O   LIG    1       28.741 -18.420   5.326  0.00  0.00    -0.287 OA
ATOM      6  C   LIG    1       27.393 -20.301   5.850  0.00  0.00    +0.004 C 
ATOM      7  C   LIG    1       26.556 -19.964   4.646  0.00  0.00    +0.048 C 
ATOM      8  C   LIG    1       27.097 -21.237   6.780  0.00  0.00    +0.013 C 
ATOM      9  C   LIG    1       28.076 -21.463   7.890  0.00  0.00    +0.186 C 
ATOM     10  O   LIG    1       27.786 -22.123   8.883  0.00  0.00    -0.287 OA
ATOM     11  C   LIG    1       29.442 -20.864   7.791  0.00  0.00    +0.003 C 
ATOM     12  C   LIG    1       30.415 -21.414   8.798  0.00  0.00    +0.048 C 
ENDBRANCH   1   8
BRANCH   1  13
ATOM     13  C   LIG    1       24.621 -21.351   6.131  0.00  0.00    -0.040 A 
ATOM     14  C   LIG    1       24.311 -21.636   4.792  0.00  0.00    +0.004 A 
ATOM     15  C   LIG    1       23.223 -21.017   4.165  0.00  0.00    +0.000 A 
ATOM     16  C   LIG    1       22.431 -20.105   4.862  0.00  0.00    +0.000 A 
ATOM     17  C   LIG    1       22.735 -19.796   6.180  0.00  0.00    +0.000 A 
ATOM     18  C   LIG    1       23.816 -20.415   6.804  0.00  0.00    +0.004 A 
ENDBRANCH   1  13
BRANCH   1  19
ATOM     19  C   LIG    1       26.024 -23.530   6.356  0.00  0.00    +0.013 C 
BRANCH  19  20
ATOM     20  C   LIG    1       25.176 -24.581   7.105  0.00  0.00    +0.001 C 
BRANCH  20  21
ATOM     21  C   LIG    1       24.006 -25.072   6.239  0.00  0.00    +0.001 C 
BRANCH  21  22
ATOM     22  C   LIG    1       24.349 -26.349   5.463  0.00  0.00    +0.011 C 
BRANCH  22  23
ATOM     23  C   LIG    1       24.457 -27.558   6.396  0.00  0.00    +0.120 C 
BRANCH  23  24
ATOM     24  C   LIG    1       24.454 -28.858   5.620  0.00  0.00    +0.305 C 
ATOM     25  O   LIG    1       25.445 -29.422   5.202  0.00  0.00    -0.251 OA
BRANCH  24  26
ATOM     26  O   LIG    1       23.203 -29.326   5.385  0.00  0.00    -0.481 OA
ATOM     27  H   LIG    1       22.560 -28.641   5.128  0.00  0.00    +0.295 HD
ENDBRANCH  24  26
ENDBRANCH  23  24
ENDBRANCH  22  23
ENDBRANCH  21  22
ENDBRANCH  20  21
ENDBRANCH  19  20
ENDBRANCH   1  19
TORSDOF 9
ENDMDL
MODEL 3
REMARK VINA RESULT:      -8.4      1.680      2.900
REMARK  Name = *****
REMARK                            x       y       z     vdW  Elec       q    Type
REMARK                         _______ _______ _______ _____ _____    ______ ____
ROOT
ATOM      1  C   LIG    1       24.792 -21.290   5.972  0.00  0.00    +0.053 C 
ENDROOT
BRANCH   1   8
ATOM      2  C   LIG    1       30.227 -19.524   7.677  0.00  0.00    +0.048 C 
ATOM      3  C   LIG    1       28.895 -19.940   7.115  0.00  0.00    +0.003 C 
ATOM      4  C   LIG    1       28.234 -21.036   7.870  0.00  0.00    +0.185 C 
ATOM      5  O   LIG    1       28.855 -21.664   8.723  0.00  0.00    -0.287 OA
ATOM      6  C   LIG    1       26.801 -21.343   7.579  0.00  0.00    +0.004 C 
ATOM      7  C   LIG    1       26.148 -22.198   8.633  0.00  0.00    +0.048 C 
ATOM      8  C   LIG    1       26.212 -20.904   6.444  0.00  0.00    +0.013 C 
ATOM      9  C   LIG    1       27.010 -20.024   5.532  0.00  0.00    +0.186 C 
ATOM     10  O   LIG    1       26.636 -19.769   4.391  0.00  0.00    -0.287 OA
ATOM     11  C   LIG    1       28.298 -19.444   6.019  0.00  0.00    +0.003 C 
ATOM     12  C   LIG    1       28.835 -18.348   5.142  0.00  0.00    +0.048 C 
ENDBRANCH   1   8
BRANCH   1  13
ATOM     13  C   LIG    1       24.552 -22.804   5.998  0.00  0.00    -0.040 A 
ATOM     14  C   LIG    1       23.468 -23.344   6.706  0.00  0.00    +0.004 A 
ATOM     15  C   LIG    1       23.228 -24.724   6.700  0.00  0.00    +0.000 A 
ATOM     16  C   LIG    1       24.066 -25.583   5.990  0.00  0.00    +0.000 A 
ATOM     17  C   LIG    1       25.155 -25.069   5.300  0.00  0.00    +0.000 A 
ATOM     18  C   LIG    1       25.390 -23.696   5.305  0.00  0.00    +0.004 A 
ENDBRANCH   1  13
BRANCH   1  19
ATOM     19  C   LIG    1       23.700 -20.454   6.717  0.00  0.00    +0.013 C 
BRANCH  19  20
ATOM     20  C   LIG    1       22.588 -19.901   5.799  0.00  0.00    +0.001 C 
BRANCH  20  21
ATOM     21  C   LIG    1       23.102 -19.689   4.367  0.00  0.00    +0.001 C 
BRANCH  21  22
ATOM     22  C   LIG    1       23.301 -18.206   4.031  0.00  0.00    +0.011 C 
BRANCH  22  23
ATOM     23  C   LIG    1       22.139 -17.355   4.551  0.00  0.00    +0.120 C 
BRANCH  23  24
ATOM     24  C   LIG    1       22.576 -15.933   4.830  0.00  0.00    +0.305 C 
ATOM     25  O   LIG    1       23.362 -15.300   4.154  0.00  0.00    -0.251 OA
BRANCH  24  26
ATOM     26  O   LIG    1       22.032 -15.430   5.965  0.00  0.00    -0.481 OA
ATOM     27  H   LIG    1       22.421 -15.780   6.787  0.00  0.00    +0.295 HD
ENDBRANCH  24  26
ENDBRANCH  23  24
ENDBRANCH  22  23
ENDBRANCH  21  22
ENDBRANCH  20  21
ENDBRANCH  19  20
ENDBRANCH   1  19
TORSDOF 9
ENDMDL
MODEL 4
REMARK VINA RESULT:      -8.2      1.656      2.853
REMARK  Name = *****
REMARK                            x       y       z     vdW  Elec       q    Type
REMARK                         _______ _______ _______ _____ _____    ______ ____
ROOT
ATOM      1  C   LIG    1       24.944 -21.350   6.069  0.00  0.00    +0.053 C 
ENDROOT
BRANCH   1   8
ATOM      2  C   LIG    1       30.390 -19.645   7.803  0.00  0.00    +0.048 C 
ATOM      3  C   LIG    1       29.057 -20.048   7.234  0.00  0.00    +0.003 C 
ATOM      4  C   LIG    1       28.371 -21.121   7.998  0.00  0.00    +0.185 C 
ATOM      5  O   LIG    1       28.973 -21.747   8.867  0.00  0.00    -0.287 OA
ATOM      6  C   LIG    1       26.936 -21.411   7.697  0.00  0.00    +0.004 C 
ATOM      7  C   LIG    1       26.259 -22.239   8.757  0.00  0.00    +0.048 C 
ATOM      8  C   LIG    1       26.366 -20.979   6.550  0.00  0.00    +0.013 C 
ATOM      9  C   LIG    1       27.187 -20.126   5.633  0.00  0.00    +0.186 C 
ATOM     10  O   LIG    1       26.829 -19.882   4.484  0.00  0.00    -0.287 OA
ATOM     11  C   LIG    1       28.479 -19.560   6.125  0.00  0.00    +0.003 C 
ATOM     12  C   LIG    1       29.043 -18.485   5.236  0.00  0.00    +0.048 C 
ENDBRANCH   1   8
BRANCH   1  13
ATOM     13  C   LIG    1       24.677 -22.858   6.124  0.00  0.00    -0.040 A 
ATOM     14  C   LIG    1       23.464 -23.351   6.628  0.00  0.00    +0.004 A 
ATOM     15  C   LIG    1       23.205 -24.727   6.644  0.00  0.00    +0.000 A 
ATOM     16  C   LIG    1       24.151 -25.630   6.162  0.00  0.00    +0.000 A 
ATOM     17  C   LIG    1       25.365 -25.162   5.678  0.00  0.00    +0.000 A 
ATOM     18  C   LIG    1       25.620 -23.793   5.659  0.00  0.00    +0.004 A 
ENDBRANCH   1  13
BRANCH   1  19
ATOM     19  C   LIG    1       23.860 -20.478   6.782  0.00  0.00    +0.013 C 
BRANCH  19  20
ATOM     20  C   LIG    1       22.948 -19.686   5.820  0.00  0.00    +0.001 C 
BRANCH  20  21
ATOM     21  C   LIG    1       23.050 -20.226   4.386  0.00  0.00    +0.001 C 
BRANCH  21  22
ATOM     22  C   LIG    1       23.842 -19.290   3.464  0.00  0.00    +0.011 C 
BRANCH  22  23
ATOM     23  C   LIG    1       23.847 -17.855   3.997  0.00  0.00    +0.120 C 
BRANCH  23  24
ATOM     24  C   LIG    1       25.047 -17.082   3.492  0.00  0.00    +0.305 C 
ATOM     25  O   LIG    1       25.174 -15.876   3.554  0.00  0.00    -0.251 OA
BRANCH  24  26
ATOM     26  O   LIG    1       25.973 -17.877   2.902  0.00  0.00    -0.481 OA
ATOM     27  H   LIG    1       26.856 -17.840   3.313  0.00  0.00    +0.295 HD
ENDBRANCH  24  26
ENDBRANCH  23  24
ENDBRANCH  22  23
ENDBRANCH  21  22
ENDBRANCH  20  21
ENDBRANCH  19  20
ENDBRANCH   1  19
TORSDOF 9
ENDMDL
MODEL 5
REMARK VINA RESULT:      -8.0      2.752      5.777
REMARK  Name = *****
REMARK                            x       y       z     vdW  Elec       q    Type
REMARK                         _______ _______ _______ _____ _____    ______ ____
ROOT
ATOM      1  C   LIG    1       24.838 -21.760   5.995  0.00  0.00    +0.053 C 
ENDROOT
BRANCH   1   8
ATOM      2  C   LIG    1       30.080 -19.448   7.649  0.00  0.00    +0.048 C 
ATOM      3  C   LIG    1       28.794 -20.001   7.100  0.00  0.00    +0.003 C 
ATOM      4  C   LIG    1       28.239 -21.136   7.882  0.00  0.00    +0.185 C 
ATOM      5  O   LIG    1       28.916 -21.682   8.748  0.00  0.00    -0.287 OA
ATOM      6  C   LIG    1       26.841 -21.585   7.600  0.00  0.00    +0.004 C 
ATOM      7  C   LIG    1       26.272 -22.471   8.675  0.00  0.00    +0.048 C 
ATOM      8  C   LIG    1       26.215 -21.230   6.456  0.00  0.00    +0.013 C 
ATOM      9  C   LIG    1       26.927 -20.300   5.522  0.00  0.00    +0.186 C 
ATOM     10  O   LIG    1       26.531 -20.110   4.375  0.00  0.00    -0.287 OA
ATOM     11  C   LIG    1       28.154 -19.591   5.993  0.00  0.00    +0.003 C 
ATOM     12  C   LIG    1       28.586 -18.469   5.089  0.00  0.00    +0.048 C 
ENDBRANCH   1   8
BRANCH   1  13
ATOM     13  C   LIG    1       23.988 -20.681   5.314  0.00  0.00    -0.040 A 
ATOM     14  C   LIG    1       24.057 -20.489   3.925  0.00  0.00    +0.004 A 
ATOM     15  C   LIG    1       23.254 -19.528   3.298  0.00  0.00    +0.000 A 
ATOM     16  C   LIG    1       22.375 -18.745   4.045  0.00  0.00    +0.000 A 
ATOM     17  C   LIG    1       22.308 -18.908   5.422  0.00  0.00    +0.000 A 
ATOM     18  C   LIG    1       23.105 -19.866   6.044  0.00  0.00    +0.004 A 
ENDBRANCH   1  13
BRANCH   1  19
ATOM     19  C   LIG    1       24.986 -23.079   5.168  0.00  0.00    +0.013 C 
BRANCH  19  20
ATOM     20  C   LIG    1       24.631 -24.362   5.951  0.00  0.00    +0.001 C 
BRANCH  20  21
ATOM     21  C   LIG    1       25.887 -25.189   6.264  0.00  0.00    +0.001 C 
BRANCH  21  22
ATOM     22  C   LIG    1       25.553 -26.628   6.673  0.00  0.00    +0.011 C 
BRANCH  22  23
ATOM     23  C   LIG    1       24.415 -27.199   5.823  0.00  0.00    +0.120 C 
BRANCH  23  24
ATOM     24  C   LIG    1       24.307 -28.701   5.981  0.00  0.00    +0.305 C 
ATOM     25  O   LIG    1       25.102 -29.398   6.578  0.00  0.00    -0.251 OA
BRANCH  24  26
ATOM     26  O   LIG    1       23.234 -29.221   5.335  0.00  0.00    -0.481 OA
ATOM     27  H   LIG    1       23.136 -30.186   5.429  0.00  0.00    +0.295 HD
ENDBRANCH  24  26
ENDBRANCH  23  24
ENDBRANCH  22  23
ENDBRANCH  21  22
ENDBRANCH  20  21
ENDBRANCH  19  20
ENDBRANCH   1  19
TORSDOF 9
ENDMDL
MODEL 6
REMARK VINA RESULT:      -8.0      1.715      6.110
REMARK  Name = *****
REMARK                            x       y       z     vdW  Elec       q    Type
REMARK                         _______ _______ _______ _____ _____    ______ ____
ROOT
ATOM      1  C   LIG    1       25.597 -22.591   6.884  0.00  0.00    +0.053 C 
ENDROOT
BRANCH   1   8
ATOM      2  C   LIG    1       22.732 -18.755   3.328  0.00  0.00    +0.048 C 
ATOM      3  C   LIG    1       23.560 -19.630   4.227  0.00  0.00    +0.003 C 
ATOM      4  C   LIG    1       22.764 -20.452   5.175  0.00  0.00    +0.185 C 
ATOM      5  O   LIG    1       21.566 -20.234   5.330  0.00  0.00    -0.287 OA
ATOM      6  C   LIG    1       23.449 -21.552   5.920  0.00  0.00    +0.004 C 
ATOM      7  C   LIG    1       22.494 -22.528   6.554  0.00  0.00    +0.048 C 
ATOM      8  C   LIG    1       24.797 -21.593   6.015  0.00  0.00    +0.013 C 
ATOM      9  C   LIG    1       25.587 -20.557   5.277  0.00  0.00    +0.186 C 
ATOM     10  O   LIG    1       26.785 -20.388   5.487  0.00  0.00    -0.287 OA
ATOM     11  C   LIG    1       24.901 -19.702   4.262  0.00  0.00    +0.003 C 
ATOM     12  C   LIG    1       25.848 -18.934   3.383  0.00  0.00    +0.048 C 
ENDBRANCH   1   8
BRANCH   1  13
ATOM     13  C   LIG    1       25.541 -24.023   6.340  0.00  0.00    -0.040 A 
ATOM     14  C   LIG    1       25.098 -24.274   5.032  0.00  0.00    +0.004 A 
ATOM     15  C   LIG    1       25.081 -25.579   4.523  0.00  0.00    +0.000 A 
ATOM     16  C   LIG    1       25.503 -26.650   5.310  0.00  0.00    +0.000 A 
ATOM     17  C   LIG    1       25.926 -26.422   6.613  0.00  0.00    +0.000 A 
ATOM     18  C   LIG    1       25.945 -25.124   7.117  0.00  0.00    +0.004 A 
ENDBRANCH   1  13
BRANCH   1  19
ATOM     19  C   LIG    1       27.043 -22.066   7.164  0.00  0.00    +0.013 C 
BRANCH  19  20
ATOM     20  C   LIG    1       27.151 -21.126   8.384  0.00  0.00    +0.001 C 
BRANCH  20  21
ATOM     21  C   LIG    1       28.317 -20.138   8.224  0.00  0.00    +0.001 C 
BRANCH  21  22
ATOM     22  C   LIG    1       29.556 -20.792   7.602  0.00  0.00    +0.011 C 
BRANCH  22  23
ATOM     23  C   LIG    1       30.793 -20.592   8.482  0.00  0.00    +0.120 C 
BRANCH  23  24
ATOM     24  C   LIG    1       31.199 -21.880   9.167  0.00  0.00    +0.305 C 
ATOM     25  O   LIG    1       30.716 -22.302  10.198  0.00  0.00    -0.251 OA
BRANCH  24  26
ATOM     26  O   LIG    1       32.215 -22.515   8.532  0.00  0.00    -0.481 OA
ATOM     27  H   LIG    1       32.570 -22.035   7.761  0.00  0.00    +0.295 HD
ENDBRANCH  24  26
ENDBRANCH  23  24
ENDBRANCH  22  23
ENDBRANCH  21  22
ENDBRANCH  20  21
ENDBRANCH  19  20
ENDBRANCH   1  19
TORSDOF 9
ENDMDL
MODEL 7
REMARK VINA RESULT:      -7.7      1.759      5.930
REMARK  Name = *****
REMARK                            x       y       z     vdW  Elec       q    Type
REMARK                         _______ _______ _______ _____ _____    ______ ____
ROOT
ATOM      1  C   LIG    1       25.657 -22.499   6.909  0.00  0.00    +0.053 C 
ENDROOT
BRANCH   1   8
ATOM      2  C   LIG    1       22.790 -18.656   3.362  0.00  0.00    +0.048 C 
ATOM      3  C   LIG    1       23.620 -19.535   4.256  0.00  0.00    +0.003 C 
ATOM      4  C   LIG    1       22.829 -20.331   5.229  0.00  0.00    +0.185 C 
ATOM      5  O   LIG    1       21.638 -20.091   5.404  0.00  0.00    -0.287 OA
ATOM      6  C   LIG    1       23.509 -21.435   5.974  0.00  0.00    +0.004 C 
ATOM      7  C   LIG    1       22.549 -22.385   6.638  0.00  0.00    +0.048 C 
ATOM      8  C   LIG    1       24.857 -21.498   6.044  0.00  0.00    +0.013 C 
ATOM      9  C   LIG    1       25.651 -20.485   5.278  0.00  0.00    +0.186 C 
ATOM     10  O   LIG    1       26.855 -20.334   5.463  0.00  0.00    -0.287 OA
ATOM     11  C   LIG    1       24.960 -19.630   4.266  0.00  0.00    +0.003 C 
ATOM     12  C   LIG    1       25.903 -18.889   3.359  0.00  0.00    +0.048 C 
ENDBRANCH   1   8
BRANCH   1  13
ATOM     13  C   LIG    1       25.577 -23.934   6.376  0.00  0.00    -0.040 A 
ATOM     14  C   LIG    1       25.107 -24.190   5.079  0.00  0.00    +0.004 A 
ATOM     15  C   LIG    1       25.068 -25.497   4.579  0.00  0.00    +0.000 A 
ATOM     16  C   LIG    1       25.495 -26.567   5.365  0.00  0.00    +0.000 A 
ATOM     17  C   LIG    1       25.944 -26.335   6.658  0.00  0.00    +0.000 A 
ATOM     18  C   LIG    1       25.985 -25.034   7.152  0.00  0.00    +0.004 A 
ENDBRANCH   1  13
BRANCH   1  19
ATOM     19  C   LIG    1       27.112 -21.989   7.167  0.00  0.00    +0.013 C 
BRANCH  19  20
ATOM     20  C   LIG    1       27.256 -21.083   8.409  0.00  0.00    +0.001 C 
BRANCH  20  21
ATOM     21  C   LIG    1       28.393 -20.065   8.227  0.00  0.00    +0.001 C 
BRANCH  21  22
ATOM     22  C   LIG    1       29.679 -20.713   7.702  0.00  0.00    +0.011 C 
BRANCH  22  23
ATOM     23  C   LIG    1       30.651 -19.663   7.158  0.00  0.00    +0.120 C 
BRANCH  23  24
ATOM     24  C   LIG    1       31.443 -19.011   8.272  0.00  0.00    +0.305 C 
ATOM     25  O   LIG    1       32.035 -19.609   9.147  0.00  0.00    -0.251 OA
BRANCH  24  26
ATOM     26  O   LIG    1       31.388 -17.657   8.231  0.00  0.00    -0.481 OA
ATOM     27  H   LIG    1       30.486 -17.289   8.270  0.00  0.00    +0.295 HD
ENDBRANCH  24  26
ENDBRANCH  23  24
ENDBRANCH  22  23
ENDBRANCH  21  22
ENDBRANCH  20  21
ENDBRANCH  19  20
ENDBRANCH   1  19
TORSDOF 9
ENDMDL
MODEL 8
REMARK VINA RESULT:      -7.3      5.747      9.075
REMARK  Name = *****
REMARK                            x       y       z     vdW  Elec       q    Type
REMARK                         _______ _______ _______ _____ _____    ______ ____
ROOT
ATOM      1  C   LIG    1       25.421 -29.730   7.725  0.00  0.00    +0.053 C 
ENDROOT
BRANCH   1   8
ATOM      2  C   LIG    1       24.571 -29.071  13.591  0.00  0.00    +0.048 C 
ATOM      3  C   LIG    1       24.921 -29.214  12.136  0.00  0.00    +0.003 C 
ATOM      4  C   LIG    1       24.059 -30.171  11.395  0.00  0.00    +0.185 C 
ATOM      5  O   LIG    1       23.297 -30.918  12.002  0.00  0.00    -0.287 OA
ATOM      6  C   LIG    1       24.129 -30.192   9.902  0.00  0.00    +0.004 C 
ATOM      7  C   LIG    1       22.976 -30.917   9.261  0.00  0.00    +0.048 C 
ATOM      8  C   LIG    1       25.171 -29.632   9.248  0.00  0.00    +0.013 C 
ATOM      9  C   LIG    1       26.205 -28.911  10.055  0.00  0.00    +0.186 C 
ATOM     10  O   LIG    1       27.282 -28.574   9.572  0.00  0.00    -0.287 OA
ATOM     11  C   LIG    1       25.925 -28.599  11.489  0.00  0.00    +0.003 C 
ATOM     12  C   LIG    1       26.890 -27.615  12.092  0.00  0.00    +0.048 C 
ENDBRANCH   1   8
BRANCH   1  13
ATOM     13  C   LIG    1       25.507 -31.178   7.233  0.00  0.00    -0.040 A 
ATOM     14  C   LIG    1       24.665 -31.637   6.208  0.00  0.00    +0.004 A 
ATOM     15  C   LIG    1       24.769 -32.950   5.734  0.00  0.00    +0.000 A 
ATOM     16  C   LIG    1       25.711 -33.825   6.274  0.00  0.00    +0.000 A 
ATOM     17  C   LIG    1       26.539 -33.394   7.302  0.00  0.00    +0.000 A 
ATOM     18  C   LIG    1       26.437 -32.087   7.771  0.00  0.00    +0.004 A 
ENDBRANCH   1  13
BRANCH   1  19
ATOM     19  C   LIG    1       24.413 -28.839   6.927  0.00  0.00    +0.013 C 
BRANCH  19  20
ATOM     20  C   LIG    1       25.080 -27.784   6.018  0.00  0.00    +0.001 C 
BRANCH  20  21
ATOM     21  C   LIG    1       25.874 -26.760   6.843  0.00  0.00    +0.001 C 
BRANCH  21  22
ATOM     22  C   LIG    1       25.517 -25.314   6.480  0.00  0.00    +0.011 C 
BRANCH  22  23
ATOM     23  C   LIG    1       24.017 -25.158   6.218  0.00  0.00    +0.120 C 
BRANCH  23  24
ATOM     24  C   LIG    1       23.497 -23.839   6.748  0.00  0.00    +0.305 C 
ATOM     25  O   LIG    1       24.183 -22.966   7.240  0.00  0.00    -0.251 OA
BRANCH  24  26
ATOM     26  O   LIG    1       22.147 -23.736   6.667  0.00  0.00    -0.481 OA
ATOM     27  H   LIG    1       21.774 -24.015   5.811  0.00  0.00    +0.295 HD
ENDBRANCH  24  26
ENDBRANCH  23  24
ENDBRANCH  22  23
ENDBRANCH  21  22
ENDBRANCH  20  21
ENDBRANCH  19  20
ENDBRANCH   1  19
TORSDOF 9
ENDMDL
MODEL 9
REMARK VINA RESULT:      -7.2      5.903      9.556
REMARK  Name = *****
REMARK                            x       y       z     vdW  Elec       q    Type
REMARK                         _______ _______ _______ _____ _____    ______ ____
ROOT
ATOM      1  C   LIG    1       25.295 -29.886   6.963  0.00  0.00    +0.053 C 
ENDROOT
BRANCH   1   8
ATOM      2  C   LIG    1       23.840 -31.196  12.596  0.00  0.00    +0.048 C 
ATOM      3  C   LIG    1       24.081 -30.917  11.138  0.00  0.00    +0.003 C 
ATOM      4  C   LIG    1       24.926 -29.722  10.882  0.00  0.00    +0.185 C 
ATOM      5  O   LIG    1       25.188 -28.940  11.791  0.00  0.00    -0.287 OA
ATOM      6  C   LIG    1       25.460 -29.505   9.502  0.00  0.00    +0.004 C 
ATOM      7  C   LIG    1       26.575 -28.495   9.446  0.00  0.00    +0.048 C 
ATOM      8  C   LIG    1       24.926 -30.150   8.441  0.00  0.00    +0.013 C 
ATOM      9  C   LIG    1       23.848 -31.157   8.698  0.00  0.00    +0.186 C 
ATOM     10  O   LIG    1       23.163 -31.616   7.788  0.00  0.00    -0.287 OA
ATOM     11  C   LIG    1       23.591 -31.611  10.098  0.00  0.00    +0.003 C 
ATOM     12  C   LIG    1       22.717 -32.831  10.185  0.00  0.00    +0.048 C 
ENDBRANCH   1   8
BRANCH   1  13
ATOM     13  C   LIG    1       25.890 -31.119   6.274  0.00  0.00    -0.040 A 
ATOM     14  C   LIG    1       25.607 -31.392   4.927  0.00  0.00    +0.004 A 
ATOM     15  C   LIG    1       26.181 -32.499   4.288  0.00  0.00    +0.000 A 
ATOM     16  C   LIG    1       27.041 -33.348   4.982  0.00  0.00    +0.000 A 
ATOM     17  C   LIG    1       27.317 -33.105   6.321  0.00  0.00    +0.000 A 
ATOM     18  C   LIG    1       26.748 -32.002   6.954  0.00  0.00    +0.004 A 
ENDBRANCH   1  13
BRANCH   1  19
ATOM     19  C   LIG    1       24.103 -29.231   6.190  0.00  0.00    +0.013 C 
BRANCH  19  20
ATOM     20  C   LIG    1       24.354 -27.770   5.758  0.00  0.00    +0.001 C 
BRANCH  20  21
ATOM     21  C   LIG    1       25.783 -27.325   6.104  0.00  0.00    +0.001 C 
BRANCH  21  22
ATOM     22  C   LIG    1       25.833 -25.894   6.653  0.00  0.00    +0.011 C 
BRANCH  22  23
ATOM     23  C   LIG    1       25.051 -24.926   5.760  0.00  0.00    +0.120 C 
BRANCH  23  24
ATOM     24  C   LIG    1       24.176 -24.002   6.580  0.00  0.00    +0.305 C 
ATOM     25  O   LIG    1       24.578 -23.068   7.243  0.00  0.00    -0.251 OA
BRANCH  24  26
ATOM     26  O   LIG    1       22.866 -24.351   6.544  0.00  0.00    -0.481 OA
ATOM     27  H   LIG    1       22.301 -23.857   7.165  0.00  0.00    +0.295 HD
ENDBRANCH  24  26
ENDBRANCH  23  24
ENDBRANCH  22  23
ENDBRANCH  21  22
ENDBRANCH  20  21
ENDBRANCH  19  20
ENDBRANCH   1  19
TORSDOF 9
ENDMDL
