MODEL 1
REMARK VINA RESULT:       2.1      0.000      0.000
REMARK  Name = *****
REMARK                            x       y       z     vdW  Elec       q    Type
REMARK                         _______ _______ _______ _____ _____    ______ ____
ROOT
ATOM      1  C   LIG    1       29.475 -18.554   5.835  0.00  0.00    +0.052 C 
ATOM      2  C   LIG    1       28.131 -18.712   5.213  0.00  0.00    -0.011 A 
ATOM      3  S   LIG    1       27.535 -20.262   4.840  0.00  0.00    -0.078 S 
ATOM      4  C   LIG    1       26.044 -19.640   4.255  0.00  0.00    +0.085 A 
ATOM      5  N   LIG    1       25.093 -20.517   3.858  0.00  0.00    -0.305 N 
ATOM      6  H   LIG    1       25.340 -21.495   3.975  0.00  0.00    +0.153 HD
ATOM      7  C   LIG    1       23.711 -20.283   4.042  0.00  0.00    +0.083 A 
ATOM      8  C   LIG    1       23.103 -19.013   3.993  0.00  0.00    +0.197 A 
ATOM      9  N   LIG    1       23.692 -17.796   3.620  0.00  0.00    -0.040 NA
ATOM     10  C   LIG    1       24.935 -17.451   3.714  0.00  0.00    +0.324 C 
ATOM     11  C   LIG    1       21.718 -18.925   4.228  0.00  0.00    +0.057 A 
ATOM     12  C   LIG    1       20.936 -20.048   4.497  0.00  0.00    +0.004 A 
ATOM     13  C   LIG    1       21.529 -21.300   4.518  0.00  0.00    +0.002 A 
ATOM     14  C   LIG    1       22.900 -21.415   4.287  0.00  0.00    +0.027 A 
ATOM     15  C   LIG    1       26.020 -18.261   4.259  0.00  0.00    +0.094 A 
ATOM     16  C   LIG    1       27.230 -17.737   4.854  0.00  0.00    +0.028 A 
ENDROOT
BRANCH  10  17
ATOM     17  N   LIG    1       25.370 -16.192   3.304  0.00  0.00    -0.217 N 
ATOM     18  C   LIG    1       26.830 -15.965   3.297  0.00  0.00    +0.241 C 
ATOM     19  C   LIG    1       27.181 -14.659   2.553  0.00  0.00    +0.127 C 
ATOM     20  N   LIG    1       26.479 -13.447   3.034  0.00  0.00    -0.298 NA
ATOM     21  C   LIG    1       27.003 -12.999   4.322  0.00  0.00    +0.105 C 
ATOM     22  C   LIG    1       25.029 -13.731   3.104  0.00  0.00    +0.127 C 
ATOM     23  C   LIG    1       24.643 -15.025   3.855  0.00  0.00    +0.241 C 
ENDBRANCH  10  17
TORSDOF 1
ENDMDL
MODEL 2
REMARK VINA RESULT:       3.8      1.983      4.389
REMARK  Name = *****
REMARK                            x       y       z     vdW  Elec       q    Type
REMARK                         _______ _______ _______ _____ _____    ______ ____
ROOT
ATOM      1  C   LIG    1       21.085 -19.577   3.257  0.00  0.00    +0.052 C 
ATOM      2  C   LIG    1       22.405 -19.418   3.927  0.00  0.00    -0.011 A 
ATOM      3  S   LIG    1       22.757 -20.287   5.348  0.00  0.00    -0.078 S 
ATOM      4  C   LIG    1       24.346 -19.643   5.449  0.00  0.00    +0.085 A 
ATOM      5  N   LIG    1       25.156 -20.084   6.440  0.00  0.00    -0.305 N 
ATOM      6  H   LIG    1       24.752 -20.802   7.033  0.00  0.00    +0.153 HD
ATOM      7  C   LIG    1       26.552 -20.243   6.274  0.00  0.00    +0.083 A 
ATOM      8  C   LIG    1       27.357 -19.423   5.459  0.00  0.00    +0.197 A 
ATOM      9  N   LIG    1       26.983 -18.245   4.795  0.00  0.00    -0.040 NA
ATOM     10  C   LIG    1       25.809 -17.910   4.367  0.00  0.00    +0.324 C 
ATOM     11  C   LIG    1       28.730 -19.717   5.363  0.00  0.00    +0.057 A 
ATOM     12  C   LIG    1       29.312 -20.782   6.050  0.00  0.00    +0.004 A 
ATOM     13  C   LIG    1       28.525 -21.572   6.872  0.00  0.00    +0.002 A 
ATOM     14  C   LIG    1       27.162 -21.300   6.987  0.00  0.00    +0.027 A 
ATOM     15  C   LIG    1       24.591 -18.709   4.465  0.00  0.00    +0.094 A 
ATOM     16  C   LIG    1       23.462 -18.616   3.565  0.00  0.00    +0.028 A 
ENDROOT
BRANCH  10  17
ATOM     17  N   LIG    1       25.596 -16.698   3.713  0.00  0.00    -0.217 N 
ATOM     18  C   LIG    1       26.801 -15.942   3.312  0.00  0.00    +0.241 C 
ATOM     19  C   LIG    1       26.434 -14.789   2.352  0.00  0.00    +0.127 C 
ATOM     20  N   LIG    1       25.392 -13.862   2.846  0.00  0.00    -0.298 NA
ATOM     21  C   LIG    1       25.905 -12.988   3.899  0.00  0.00    +0.105 C 
ATOM     22  C   LIG    1       24.231 -14.652   3.313  0.00  0.00    +0.127 C 
ATOM     23  C   LIG    1       24.562 -15.805   4.285  0.00  0.00    +0.241 C 
ENDBRANCH  10  17
TORSDOF 1
ENDMDL
MODEL 3
REMARK VINA RESULT:       3.9      1.591      5.916
REMARK  Name = *****
REMARK                            x       y       z     vdW  Elec       q    Type
REMARK                         _______ _______ _______ _____ _____    ______ ____
ROOT
ATOM      1  C   LIG    1       29.475 -20.930   5.934  0.00  0.00    +0.052 C 
ATOM      2  C   LIG    1       28.738 -19.699   5.539  0.00  0.00    -0.011 A 
ATOM      3  S   LIG    1       29.258 -18.173   6.086  0.00  0.00    -0.078 S 
ATOM      4  C   LIG    1       28.022 -17.348   5.224  0.00  0.00    +0.085 A 
ATOM      5  N   LIG    1       28.008 -15.996   5.259  0.00  0.00    -0.305 N 
ATOM      6  H   LIG    1       28.770 -15.574   5.780  0.00  0.00    +0.153 HD
ATOM      7  C   LIG    1       27.605 -15.206   4.157  0.00  0.00    +0.083 A 
ATOM      8  C   LIG    1       26.609 -15.574   3.232  0.00  0.00    +0.197 A 
ATOM      9  N   LIG    1       25.747 -16.679   3.297  0.00  0.00    -0.040 NA
ATOM     10  C   LIG    1       25.954 -17.818   3.876  0.00  0.00    +0.324 C 
ATOM     11  C   LIG    1       26.333 -14.702   2.162  0.00  0.00    +0.057 A 
ATOM     12  C   LIG    1       27.005 -13.491   1.997  0.00  0.00    +0.004 A 
ATOM     13  C   LIG    1       27.966 -13.116   2.922  0.00  0.00    +0.002 A 
ATOM     14  C   LIG    1       28.257 -13.962   3.992  0.00  0.00    +0.027 A 
ATOM     15  C   LIG    1       27.163 -18.220   4.589  0.00  0.00    +0.094 A 
ATOM     16  C   LIG    1       27.615 -19.584   4.753  0.00  0.00    +0.028 A 
ENDROOT
BRANCH  10  17
ATOM     17  N   LIG    1       24.995 -18.829   3.847  0.00  0.00    -0.217 N 
ATOM     18  C   LIG    1       23.624 -18.452   4.250  0.00  0.00    +0.241 C 
ATOM     19  C   LIG    1       22.619 -19.569   3.893  0.00  0.00    +0.127 C 
ATOM     20  N   LIG    1       22.953 -20.913   4.415  0.00  0.00    -0.298 NA
ATOM     21  C   LIG    1       22.727 -21.000   5.856  0.00  0.00    +0.105 C 
ATOM     22  C   LIG    1       24.355 -21.228   4.064  0.00  0.00    +0.127 C 
ATOM     23  C   LIG    1       25.388 -20.136   4.421  0.00  0.00    +0.241 C 
ENDBRANCH  10  17
TORSDOF 1
ENDMDL
MODEL 4
REMARK VINA RESULT:       4.6      2.171      4.365
REMARK  Name = *****
REMARK                            x       y       z     vdW  Elec       q    Type
REMARK                         _______ _______ _______ _____ _____    ______ ____
ROOT
ATOM      1  C   LIG    1       26.930 -13.732   2.592  0.00  0.00    +0.052 C 
ATOM      2  C   LIG    1       26.090 -14.834   3.135  0.00  0.00    -0.011 A 
ATOM      3  S   LIG    1       24.501 -14.524   3.661  0.00  0.00    -0.078 S 
ATOM      4  C   LIG    1       24.221 -16.172   4.057  0.00  0.00    +0.085 A 
ATOM      5  N   LIG    1       22.991 -16.527   4.497  0.00  0.00    -0.305 N 
ATOM      6  H   LIG    1       22.314 -15.772   4.523  0.00  0.00    +0.153 HD
ATOM      7  C   LIG    1       22.399 -17.774   4.189  0.00  0.00    +0.083 A 
ATOM      8  C   LIG    1       23.111 -18.980   4.034  0.00  0.00    +0.197 A 
ATOM      9  N   LIG    1       24.471 -19.209   4.288  0.00  0.00    -0.040 NA
ATOM     10  C   LIG    1       25.446 -18.359   4.236  0.00  0.00    +0.324 C 
ATOM     11  C   LIG    1       22.394 -20.142   3.696  0.00  0.00    +0.057 A 
ATOM     12  C   LIG    1       21.010 -20.137   3.519  0.00  0.00    +0.004 A 
ATOM     13  C   LIG    1       20.306 -18.957   3.698  0.00  0.00    +0.002 A 
ATOM     14  C   LIG    1       20.994 -17.792   4.036  0.00  0.00    +0.027 A 
ATOM     15  C   LIG    1       25.346 -16.948   3.875  0.00  0.00    +0.094 A 
ATOM     16  C   LIG    1       26.416 -16.160   3.304  0.00  0.00    +0.028 A 
ENDROOT
BRANCH  10  17
ATOM     17  N   LIG    1       26.757 -18.744   4.511  0.00  0.00    -0.217 N 
ATOM     18  C   LIG    1       26.933 -19.841   5.487  0.00  0.00    +0.241 C 
ATOM     19  C   LIG    1       28.388 -20.360   5.475  0.00  0.00    +0.127 C 
ATOM     20  N   LIG    1       29.430 -19.327   5.673  0.00  0.00    -0.298 NA
ATOM     21  C   LIG    1       29.474 -18.868   7.060  0.00  0.00    +0.105 C 
ATOM     22  C   LIG    1       29.180 -18.209   4.737  0.00  0.00    +0.127 C 
ATOM     23  C   LIG    1       27.738 -17.657   4.735  0.00  0.00    +0.241 C 
ENDBRANCH  10  17
TORSDOF 1
ENDMDL
