MODEL 1
REMARK VINA RESULT:      -5.0      0.000      0.000
REMARK  Name = *****
REMARK                            x       y       z     vdW  Elec       q    Type
REMARK                         _______ _______ _______ _____ _____    ______ ____
ROOT
ATOM      1  C   LIG    1       25.631 -18.031   3.358  0.00  0.00    +0.069 C 
ENDROOT
BRANCH   1   2
ATOM      2  C   LIG    1       25.235 -16.562   3.553  0.00  0.00    -0.038 A 
ATOM      3  C   LIG    1       23.954 -16.198   4.006  0.00  0.00    +0.005 A 
ATOM      4  C   LIG    1       23.605 -14.853   4.164  0.00  0.00    +0.015 A 
ATOM      5  C   LIG    1       24.536 -13.859   3.878  0.00  0.00    +0.018 A 
ATOM      6 BR   LIG    1       24.059 -12.039   4.057  0.00  0.00    -0.050 Br
ATOM      7  C   LIG    1       25.817 -14.199   3.450  0.00  0.00    +0.015 A 
ATOM      8  C   LIG    1       26.165 -15.544   3.290  0.00  0.00    +0.005 A 
ENDBRANCH   1   2
BRANCH   1   9
ATOM      9  C   LIG    1       24.514 -18.985   3.785  0.00  0.00    +0.049 A 
ATOM     10  N   LIG    1       24.714 -20.325   3.653  0.00  0.00    -0.259 NA
ATOM     11  C   LIG    1       23.741 -21.148   4.108  0.00  0.00    +0.111 A 
ATOM     12  C   LIG    1       22.560 -20.716   4.684  0.00  0.00    +0.020 A 
ATOM     13  C   LIG    1       22.358 -19.346   4.802  0.00  0.00    +0.003 A 
ATOM     14  C   LIG    1       23.347 -18.473   4.356  0.00  0.00    +0.024 A 
ENDBRANCH   1   9
BRANCH   1  15
ATOM     15  C   LIG    1       27.003 -18.299   4.024  0.00  0.00    +0.029 C 
BRANCH  15  16
ATOM     16  C   LIG    1       26.983 -19.463   5.033  0.00  0.00    +0.085 C 
BRANCH  16  18
ATOM     17  C   LIG    1       29.192 -18.589   5.584  0.00  0.00    +0.104 C 
ATOM     18  N   LIG    1       28.313 -19.760   5.612  0.00  0.00    -0.308 NA
ATOM     19  C   LIG    1       28.166 -20.220   6.999  0.00  0.00    +0.104 C 
ENDBRANCH  16  18
ENDBRANCH  15  16
ENDBRANCH   1  15
TORSDOF 5
ENDMDL
MODEL 2
REMARK VINA RESULT:      -4.5      2.869      5.842
REMARK  Name = *****
REMARK                            x       y       z     vdW  Elec       q    Type
REMARK                         _______ _______ _______ _____ _____    ______ ____
ROOT
ATOM      1  C   LIG    1       25.654 -17.566   3.279  0.00  0.00    +0.069 C 
ENDROOT
BRANCH   1   2
ATOM      2  C   LIG    1       26.599 -18.321   4.222  0.00  0.00    -0.038 A 
ATOM      3  C   LIG    1       27.886 -17.837   4.517  0.00  0.00    +0.005 A 
ATOM      4  C   LIG    1       28.741 -18.546   5.368  0.00  0.00    +0.015 A 
ATOM      5  C   LIG    1       28.313 -19.742   5.937  0.00  0.00    +0.018 A 
ATOM      6 BR   LIG    1       29.475 -20.721   7.061  0.00  0.00    -0.050 Br
ATOM      7  C   LIG    1       27.033 -20.226   5.677  0.00  0.00    +0.015 A 
ATOM      8  C   LIG    1       26.180 -19.518   4.824  0.00  0.00    +0.005 A 
ENDBRANCH   1   2
BRANCH   1   9
ATOM      9  C   LIG    1       25.842 -16.051   3.375  0.00  0.00    +0.049 A 
ATOM     10  N   LIG    1       27.048 -15.520   3.036  0.00  0.00    -0.259 NA
ATOM     11  C   LIG    1       27.164 -14.172   3.057  0.00  0.00    +0.111 A 
ATOM     12  C   LIG    1       26.145 -13.307   3.411  0.00  0.00    +0.020 A 
ATOM     13  C   LIG    1       24.920 -13.859   3.771  0.00  0.00    +0.003 A 
ATOM     14  C   LIG    1       24.765 -15.242   3.744  0.00  0.00    +0.024 A 
ENDBRANCH   1   9
BRANCH   1  15
ATOM     15  C   LIG    1       24.199 -18.053   3.490  0.00  0.00    +0.029 C 
BRANCH  15  16
ATOM     16  C   LIG    1       24.030 -19.577   3.342  0.00  0.00    +0.085 C 
BRANCH  16  18
ATOM     17  C   LIG    1       23.226 -21.325   4.841  0.00  0.00    +0.104 C 
ATOM     18  N   LIG    1       22.873 -20.115   4.095  0.00  0.00    -0.308 NA
ATOM     19  C   LIG    1       22.366 -19.103   5.030  0.00  0.00    +0.104 C 
ENDBRANCH  16  18
ENDBRANCH  15  16
ENDBRANCH   1  15
TORSDOF 5
ENDMDL
MODEL 3
REMARK VINA RESULT:      -4.4      2.820      5.581
REMARK  Name = *****
REMARK                            x       y       z     vdW  Elec       q    Type
REMARK                         _______ _______ _______ _____ _____    ______ ____
ROOT
ATOM      1  C   LIG    1       26.379 -18.641   3.636  0.00  0.00    +0.069 C 
ENDROOT
BRANCH   1   2
ATOM      2  C   LIG    1       25.073 -19.374   3.966  0.00  0.00    -0.038 A 
ATOM      3  C   LIG    1       25.041 -20.765   4.174  0.00  0.00    +0.005 A 
ATOM      4  C   LIG    1       23.839 -21.419   4.460  0.00  0.00    +0.015 A 
ATOM      5  C   LIG    1       22.658 -20.688   4.549  0.00  0.00    +0.018 A 
ATOM      6 BR   LIG    1       21.025 -21.572   4.901  0.00  0.00    -0.050 Br
ATOM      7  C   LIG    1       22.671 -19.307   4.370  0.00  0.00    +0.015 A 
ATOM      8  C   LIG    1       23.874 -18.653   4.081  0.00  0.00    +0.005 A 
ENDBRANCH   1   2
BRANCH   1   9
ATOM      9  C   LIG    1       27.457 -18.891   4.692  0.00  0.00    +0.049 A 
ATOM     10  N   LIG    1       28.571 -18.109   4.685  0.00  0.00    -0.259 NA
ATOM     11  C   LIG    1       29.473 -18.301   5.675  0.00  0.00    +0.111 A 
ATOM     12  C   LIG    1       29.342 -19.243   6.679  0.00  0.00    +0.020 A 
ATOM     13  C   LIG    1       28.208 -20.047   6.669  0.00  0.00    +0.003 A 
ATOM     14  C   LIG    1       27.254 -19.864   5.672  0.00  0.00    +0.024 A 
ENDBRANCH   1   9
BRANCH   1  15
ATOM     15  C   LIG    1       26.087 -17.147   3.350  0.00  0.00    +0.029 C 
BRANCH  15  16
ATOM     16  C   LIG    1       27.263 -16.212   3.683  0.00  0.00    +0.085 C 
BRANCH  16  18
ATOM     17  C   LIG    1       25.670 -14.380   3.445  0.00  0.00    +0.104 C 
ATOM     18  N   LIG    1       27.052 -14.817   3.231  0.00  0.00    -0.308 NA
ATOM     19  C   LIG    1       27.960 -13.913   3.946  0.00  0.00    +0.104 C 
ENDBRANCH  16  18
ENDBRANCH  15  16
ENDBRANCH   1  15
TORSDOF 5
ENDMDL
MODEL 4
REMARK VINA RESULT:      -4.3      3.653      6.888
REMARK  Name = *****
REMARK                            x       y       z     vdW  Elec       q    Type
REMARK                         _______ _______ _______ _____ _____    ______ ____
ROOT
ATOM      1  C   LIG    1       25.215 -14.832   3.110  0.00  0.00    +0.069 C 
ENDROOT
BRANCH   1   2
ATOM      2  C   LIG    1       25.107 -16.329   3.422  0.00  0.00    -0.038 A 
ATOM      3  C   LIG    1       26.219 -17.185   3.322  0.00  0.00    +0.005 A 
ATOM      4  C   LIG    1       26.099 -18.552   3.597  0.00  0.00    +0.015 A 
ATOM      5  C   LIG    1       24.868 -19.073   3.982  0.00  0.00    +0.018 A 
ATOM      6 BR   LIG    1       24.693 -20.925   4.322  0.00  0.00    -0.050 Br
ATOM      7  C   LIG    1       23.760 -18.239   4.110  0.00  0.00    +0.015 A 
ATOM      8  C   LIG    1       23.880 -16.874   3.833  0.00  0.00    +0.005 A 
ENDBRANCH   1   2
BRANCH   1   9
ATOM      9  C   LIG    1       26.422 -14.191   3.797  0.00  0.00    +0.049 A 
ATOM     10  N   LIG    1       27.522 -13.903   3.049  0.00  0.00    -0.259 NA
ATOM     11  C   LIG    1       28.546 -13.267   3.664  0.00  0.00    +0.111 A 
ATOM     12  C   LIG    1       28.550 -12.906   4.999  0.00  0.00    +0.020 A 
ATOM     13  C   LIG    1       27.428 -13.217   5.759  0.00  0.00    +0.003 A 
ATOM     14  C   LIG    1       26.352 -13.857   5.150  0.00  0.00    +0.024 A 
ENDBRANCH   1   9
BRANCH   1  15
ATOM     15  C   LIG    1       23.861 -14.136   3.395  0.00  0.00    +0.029 C 
BRANCH  15  16
ATOM     16  C   LIG    1       23.418 -13.167   2.283  0.00  0.00    +0.085 C 
BRANCH  16  18
ATOM     17  C   LIG    1       23.791 -11.470   3.995  0.00  0.00    +0.104 C 
ATOM     18  N   LIG    1       23.772 -11.756   2.558  0.00  0.00    -0.308 NA
ATOM     19  C   LIG    1       25.089 -11.447   1.987  0.00  0.00    +0.104 C 
ENDBRANCH  16  18
ENDBRANCH  15  16
ENDBRANCH   1  15
TORSDOF 5
ENDMDL
MODEL 5
REMARK VINA RESULT:      -4.2      3.645      6.778
REMARK  Name = *****
REMARK                            x       y       z     vdW  Elec       q    Type
REMARK                         _______ _______ _______ _____ _____    ______ ____
ROOT
ATOM      1  C   LIG    1       25.225 -14.872   3.152  0.00  0.00    +0.069 C 
ENDROOT
BRANCH   1   2
ATOM      2  C   LIG    1       25.127 -16.373   3.453  0.00  0.00    -0.038 A 
ATOM      3  C   LIG    1       23.912 -16.971   3.833  0.00  0.00    +0.005 A 
ATOM      4  C   LIG    1       23.844 -18.339   4.119  0.00  0.00    +0.015 A 
ATOM      5  C   LIG    1       24.990 -19.123   4.019  0.00  0.00    +0.018 A 
ATOM      6 BR   LIG    1       24.912 -20.965   4.435  0.00  0.00    -0.050 Br
ATOM      7  C   LIG    1       26.198 -18.555   3.621  0.00  0.00    +0.015 A 
ATOM      8  C   LIG    1       26.265 -17.187   3.338  0.00  0.00    +0.005 A 
ENDBRANCH   1   2
BRANCH   1   9
ATOM      9  C   LIG    1       26.438 -14.232   3.830  0.00  0.00    +0.049 A 
ATOM     10  N   LIG    1       27.544 -13.974   3.079  0.00  0.00    -0.259 NA
ATOM     11  C   LIG    1       28.574 -13.339   3.684  0.00  0.00    +0.111 A 
ATOM     12  C   LIG    1       28.578 -12.950   5.011  0.00  0.00    +0.020 A 
ATOM     13  C   LIG    1       27.451 -13.231   5.774  0.00  0.00    +0.003 A 
ATOM     14  C   LIG    1       26.368 -13.870   5.176  0.00  0.00    +0.024 A 
ENDBRANCH   1   9
BRANCH   1  15
ATOM     15  C   LIG    1       23.872 -14.184   3.461  0.00  0.00    +0.029 C 
BRANCH  15  16
ATOM     16  C   LIG    1       23.442 -13.160   2.395  0.00  0.00    +0.085 C 
BRANCH  16  18
ATOM     17  C   LIG    1       23.857 -11.552   4.182  0.00  0.00    +0.104 C 
ATOM     18  N   LIG    1       23.816 -11.768   2.733  0.00  0.00    -0.308 NA
ATOM     19  C   LIG    1       25.130 -11.447   2.161  0.00  0.00    +0.104 C 
ENDBRANCH  16  18
ENDBRANCH  15  16
ENDBRANCH   1  15
TORSDOF 5
ENDMDL
MODEL 6
REMARK VINA RESULT:      -3.5      1.419      4.293
REMARK  Name = *****
REMARK                            x       y       z     vdW  Elec       q    Type
REMARK                         _______ _______ _______ _____ _____    ______ ____
ROOT
ATOM      1  C   LIG    1       25.622 -19.157   4.475  0.00  0.00    +0.069 C 
ENDROOT
BRANCH   1   2
ATOM      2  C   LIG    1       25.984 -17.728   4.054  0.00  0.00    -0.038 A 
ATOM      3  C   LIG    1       27.318 -17.282   4.031  0.00  0.00    +0.005 A 
ATOM      4  C   LIG    1       27.629 -15.970   3.659  0.00  0.00    +0.015 A 
ATOM      5  C   LIG    1       26.609 -15.094   3.298  0.00  0.00    +0.018 A 
ATOM      6 BR   LIG    1       27.020 -13.310   2.827  0.00  0.00    -0.050 Br
ATOM      7  C   LIG    1       25.284 -15.522   3.291  0.00  0.00    +0.015 A 
ATOM      8  C   LIG    1       24.974 -16.833   3.666  0.00  0.00    +0.005 A 
ENDBRANCH   1   2
BRANCH   1   9
ATOM      9  C   LIG    1       26.732 -19.807   5.303  0.00  0.00    +0.049 A 
ATOM     10  N   LIG    1       28.014 -19.387   5.119  0.00  0.00    -0.259 NA
ATOM     11  C   LIG    1       28.966 -19.923   5.917  0.00  0.00    +0.111 A 
ATOM     12  C   LIG    1       28.722 -20.874   6.891  0.00  0.00    +0.020 A 
ATOM     13  C   LIG    1       27.412 -21.308   7.062  0.00  0.00    +0.003 A 
ATOM     14  C   LIG    1       26.408 -20.763   6.266  0.00  0.00    +0.024 A 
ENDBRANCH   1   9
BRANCH   1  15
ATOM     15  C   LIG    1       25.174 -19.973   3.237  0.00  0.00    +0.029 C 
BRANCH  15  16
ATOM     16  C   LIG    1       23.736 -20.515   3.340  0.00  0.00    +0.085 C 
BRANCH  16  18
ATOM     17  C   LIG    1       21.986 -19.035   4.174  0.00  0.00    +0.104 C 
ATOM     18  N   LIG    1       23.007 -20.023   4.531  0.00  0.00    -0.308 NA
ATOM     19  C   LIG    1       22.369 -21.145   5.230  0.00  0.00    +0.104 C 
ENDBRANCH  16  18
ENDBRANCH  15  16
ENDBRANCH   1  15
TORSDOF 5
ENDMDL
