MODEL 1
REMARK VINA RESULT:      -8.7      0.000      0.000
REMARK  Name = *****
REMARK                            x       y       z     vdW  Elec       q    Type
REMARK                         _______ _______ _______ _____ _____    ______ ____
ROOT
ATOM      1  O   LIG    1       22.713 -24.035   7.009  0.00  0.00    -0.271 OA
ATOM      2  C   LIG    1       23.432 -23.270   6.359  0.00  0.00    +0.269 C 
ATOM      3  C   LIG    1       24.787 -23.714   5.757  0.00  0.00    +0.320 C 
ATOM      4  N   LIG    1       25.873 -22.966   6.374  0.00  0.00    -0.243 NA
ATOM      5  C   LIG    1       25.965 -21.693   6.189  0.00  0.00    +0.079 C 
ATOM      6  C   LIG    1       25.053 -20.863   5.343  0.00  0.00    +0.023 A 
ATOM      7  C   LIG    1       23.655 -20.991   5.399  0.00  0.00    +0.043 A 
ATOM      8  C   LIG    1       22.852 -20.037   4.758  0.00  0.00    +0.025 A 
ATOM      9  C   LIG    1       23.427 -19.012   4.004  0.00  0.00    +0.022 A 
ATOM     10  C   LIG    1       24.811 -18.928   3.900  0.00  0.00    +0.042 A 
ATOM     11 CL   LIG    1       25.523 -17.673   2.965  0.00  0.00    -0.084 Cl
ATOM     12  C   LIG    1       25.626 -19.840   4.566  0.00  0.00    +0.032 A 
ATOM     13  N   LIG    1       22.979 -22.005   6.089  0.00  0.00    -0.281 N 
ATOM     14  H   LIG    1       22.000 -21.885   6.313  0.00  0.00    +0.155 HD
ENDROOT
BRANCH   5  15
ATOM     15  C   LIG    1       27.112 -21.015   6.866  0.00  0.00    +0.019 A 
ATOM     16  C   LIG    1       27.023 -20.451   8.147  0.00  0.00    +0.050 A 
ATOM     17 CL   LIG    1       25.596 -20.538   9.117  0.00  0.00    -0.083 Cl
ATOM     18  C   LIG    1       28.140 -19.819   8.703  0.00  0.00    +0.021 A 
ATOM     19  C   LIG    1       29.343 -19.759   7.996  0.00  0.00    +0.002 A 
ATOM     20  C   LIG    1       29.439 -20.341   6.733  0.00  0.00    +0.001 A 
ATOM     21  C   LIG    1       28.329 -20.971   6.170  0.00  0.00    +0.011 A 
ENDBRANCH   5  15
BRANCH   3  22
ATOM     22  O   LIG    1       24.818 -23.709   4.342  0.00  0.00    -0.364 OA
ATOM     23  H   LIG    1       24.414 -22.857   4.110  0.00  0.00    +0.212 HD
ENDBRANCH   3  22
TORSDOF 2
ENDMDL
MODEL 2
REMARK VINA RESULT:      -7.9      2.615      4.693
REMARK  Name = *****
REMARK                            x       y       z     vdW  Elec       q    Type
REMARK                         _______ _______ _______ _____ _____    ______ ____
ROOT
ATOM      1  O   LIG    1       29.697 -20.564   6.569  0.00  0.00    -0.271 OA
ATOM      2  C   LIG    1       28.463 -20.600   6.552  0.00  0.00    +0.269 C 
ATOM      3  C   LIG    1       27.626 -20.999   7.791  0.00  0.00    +0.320 C 
ATOM      4  N   LIG    1       26.895 -22.229   7.521  0.00  0.00    -0.243 NA
ATOM      5  C   LIG    1       25.967 -22.243   6.625  0.00  0.00    +0.079 C 
ATOM      6  C   LIG    1       25.516 -21.071   5.813  0.00  0.00    +0.023 A 
ATOM      7  C   LIG    1       26.422 -20.191   5.198  0.00  0.00    +0.043 A 
ATOM      8  C   LIG    1       25.946 -19.254   4.270  0.00  0.00    +0.025 A 
ATOM      9  C   LIG    1       24.579 -19.137   4.012  0.00  0.00    +0.022 A 
ATOM     10  C   LIG    1       23.681 -19.968   4.672  0.00  0.00    +0.042 A 
ATOM     11 CL   LIG    1       21.996 -19.822   4.363  0.00  0.00    -0.084 Cl
ATOM     12  C   LIG    1       24.138 -20.936   5.563  0.00  0.00    +0.032 A 
ATOM     13  N   LIG    1       27.805 -20.195   5.421  0.00  0.00    -0.281 N 
ATOM     14  H   LIG    1       28.415 -19.732   4.758  0.00  0.00    +0.155 HD
ENDROOT
BRANCH   5  15
ATOM     15  C   LIG    1       25.277 -23.553   6.419  0.00  0.00    +0.019 A 
ATOM     16  C   LIG    1       23.935 -23.776   6.758  0.00  0.00    +0.050 A 
ATOM     17 CL   LIG    1       22.906 -22.539   7.388  0.00  0.00    -0.083 Cl
ATOM     18  C   LIG    1       23.369 -25.038   6.550  0.00  0.00    +0.021 A 
ATOM     19  C   LIG    1       24.130 -26.069   5.994  0.00  0.00    +0.002 A 
ATOM     20  C   LIG    1       25.456 -25.842   5.633  0.00  0.00    +0.001 A 
ATOM     21  C   LIG    1       26.029 -24.587   5.841  0.00  0.00    +0.011 A 
ENDBRANCH   5  15
BRANCH   3  22
ATOM     22  O   LIG    1       26.821 -19.953   8.304  0.00  0.00    -0.364 OA
ATOM     23  H   LIG    1       27.067 -19.919   9.243  0.00  0.00    +0.212 HD
ENDBRANCH   3  22
TORSDOF 2
ENDMDL
MODEL 3
REMARK VINA RESULT:      -7.4      2.330      4.014
REMARK  Name = *****
REMARK                            x       y       z     vdW  Elec       q    Type
REMARK                         _______ _______ _______ _____ _____    ______ ____
ROOT
ATOM      1  O   LIG    1       22.444 -19.862   5.175  0.00  0.00    -0.271 OA
ATOM      2  C   LIG    1       23.171 -20.707   5.703  0.00  0.00    +0.269 C 
ATOM      3  C   LIG    1       23.555 -20.655   7.201  0.00  0.00    +0.320 C 
ATOM      4  N   LIG    1       24.991 -20.457   7.339  0.00  0.00    -0.243 NA
ATOM      5  C   LIG    1       25.808 -21.374   6.943  0.00  0.00    +0.079 C 
ATOM      6  C   LIG    1       25.424 -22.695   6.357  0.00  0.00    +0.023 A 
ATOM      7  C   LIG    1       24.437 -22.817   5.365  0.00  0.00    +0.043 A 
ATOM      8  C   LIG    1       24.284 -24.039   4.696  0.00  0.00    +0.025 A 
ATOM      9  C   LIG    1       25.046 -25.151   5.059  0.00  0.00    +0.022 A 
ATOM     10  C   LIG    1       25.977 -25.041   6.085  0.00  0.00    +0.042 A 
ATOM     11 CL   LIG    1       26.913 -26.410   6.541  0.00  0.00    -0.084 Cl
ATOM     12  C   LIG    1       26.176 -23.823   6.731  0.00  0.00    +0.032 A 
ATOM     13  N   LIG    1       23.591 -21.778   4.957  0.00  0.00    -0.281 N 
ATOM     14  H   LIG    1       23.104 -21.853   4.073  0.00  0.00    +0.155 HD
ENDROOT
BRANCH   5  15
ATOM     15  C   LIG    1       27.262 -21.076   7.124  0.00  0.00    +0.019 A 
ATOM     16  C   LIG    1       27.996 -20.269   6.244  0.00  0.00    +0.050 A 
ATOM     17 CL   LIG    1       27.288 -19.470   4.887  0.00  0.00    -0.083 Cl
ATOM     18  C   LIG    1       29.359 -20.054   6.477  0.00  0.00    +0.021 A 
ATOM     19  C   LIG    1       29.985 -20.627   7.586  0.00  0.00    +0.002 A 
ATOM     20  C   LIG    1       29.250 -21.409   8.475  0.00  0.00    +0.001 A 
ATOM     21  C   LIG    1       27.891 -21.631   8.249  0.00  0.00    +0.011 A 
ENDBRANCH   5  15
BRANCH   3  22
ATOM     22  O   LIG    1       23.048 -21.734   7.964  0.00  0.00    -0.364 OA
ATOM     23  H   LIG    1       23.280 -22.514   7.434  0.00  0.00    +0.212 HD
ENDBRANCH   3  22
TORSDOF 2
ENDMDL
MODEL 4
REMARK VINA RESULT:      -7.3      2.817      5.356
REMARK  Name = *****
REMARK                            x       y       z     vdW  Elec       q    Type
REMARK                         _______ _______ _______ _____ _____    ______ ____
ROOT
ATOM      1  O   LIG    1       28.571 -19.604   8.709  0.00  0.00    -0.271 OA
ATOM      2  C   LIG    1       28.003 -20.302   7.865  0.00  0.00    +0.269 C 
ATOM      3  C   LIG    1       28.180 -20.077   6.344  0.00  0.00    +0.320 C 
ATOM      4  N   LIG    1       26.910 -19.685   5.749  0.00  0.00    -0.243 NA
ATOM      5  C   LIG    1       25.925 -20.518   5.727  0.00  0.00    +0.079 C 
ATOM      6  C   LIG    1       25.953 -21.921   6.242  0.00  0.00    +0.023 A 
ATOM      7  C   LIG    1       26.511 -22.251   7.489  0.00  0.00    +0.043 A 
ATOM      8  C   LIG    1       26.305 -23.534   8.014  0.00  0.00    +0.025 A 
ATOM      9  C   LIG    1       25.621 -24.504   7.279  0.00  0.00    +0.022 A 
ATOM     10  C   LIG    1       25.127 -24.191   6.019  0.00  0.00    +0.042 A 
ATOM     11 CL   LIG    1       24.291 -25.385   5.106  0.00  0.00    -0.084 Cl
ATOM     12  C   LIG    1       25.282 -22.908   5.498  0.00  0.00    +0.032 A 
ATOM     13  N   LIG    1       27.250 -21.367   8.285  0.00  0.00    -0.281 N 
ATOM     14  H   LIG    1       27.384 -21.577   9.266  0.00  0.00    +0.155 HD
ENDROOT
BRANCH   5  15
ATOM     15  C   LIG    1       24.663 -20.021   5.098  0.00  0.00    +0.019 A 
ATOM     16  C   LIG    1       23.410 -20.099   5.723  0.00  0.00    +0.050 A 
ATOM     17 CL   LIG    1       23.193 -20.716   7.322  0.00  0.00    -0.083 Cl
ATOM     18  C   LIG    1       22.274 -19.626   5.057  0.00  0.00    +0.021 A 
ATOM     19  C   LIG    1       22.385 -19.066   3.783  0.00  0.00    +0.002 A 
ATOM     20  C   LIG    1       23.633 -18.964   3.171  0.00  0.00    +0.001 A 
ATOM     21  C   LIG    1       24.771 -19.436   3.827  0.00  0.00    +0.011 A 
ENDBRANCH   5  15
BRANCH   3  22
ATOM     22  O   LIG    1       28.822 -21.145   5.674  0.00  0.00    -0.364 OA
ATOM     23  H   LIG    1       28.183 -21.873   5.745  0.00  0.00    +0.212 HD
ENDBRANCH   3  22
TORSDOF 2
ENDMDL
MODEL 5
REMARK VINA RESULT:      -6.9      7.512      9.537
REMARK  Name = *****
REMARK                            x       y       z     vdW  Elec       q    Type
REMARK                         _______ _______ _______ _____ _____    ______ ____
ROOT
ATOM      1  O   LIG    1       23.965 -33.372   5.775  0.00  0.00    -0.271 OA
ATOM      2  C   LIG    1       24.474 -32.328   6.193  0.00  0.00    +0.269 C 
ATOM      3  C   LIG    1       25.701 -32.320   7.136  0.00  0.00    +0.320 C 
ATOM      4  N   LIG    1       25.334 -31.744   8.422  0.00  0.00    -0.243 NA
ATOM      5  C   LIG    1       24.999 -30.501   8.499  0.00  0.00    +0.079 C 
ATOM      6  C   LIG    1       24.975 -29.529   7.363  0.00  0.00    +0.023 A 
ATOM      7  C   LIG    1       24.409 -29.847   6.116  0.00  0.00    +0.043 A 
ATOM      8  C   LIG    1       24.211 -28.828   5.174  0.00  0.00    +0.025 A 
ATOM      9  C   LIG    1       24.638 -27.525   5.432  0.00  0.00    +0.022 A 
ATOM     10  C   LIG    1       25.255 -27.230   6.642  0.00  0.00    +0.042 A 
ATOM     11 CL   LIG    1       25.791 -25.627   6.961  0.00  0.00    -0.084 Cl
ATOM     12  C   LIG    1       25.420 -28.218   7.609  0.00  0.00    +0.032 A 
ATOM     13  N   LIG    1       23.988 -31.129   5.741  0.00  0.00    -0.281 N 
ATOM     14  H   LIG    1       23.356 -31.233   4.958  0.00  0.00    +0.155 HD
ENDROOT
BRANCH   5  15
ATOM     15  C   LIG    1       24.638 -30.005   9.862  0.00  0.00    +0.019 A 
ATOM     16  C   LIG    1       25.575 -29.477  10.761  0.00  0.00    +0.050 A 
ATOM     17 CL   LIG    1       27.245 -29.276  10.370  0.00  0.00    -0.083 Cl
ATOM     18  C   LIG    1       25.156 -29.051  12.026  0.00  0.00    +0.021 A 
ATOM     19  C   LIG    1       23.810 -29.135  12.390  0.00  0.00    +0.002 A 
ATOM     20  C   LIG    1       22.874 -29.636  11.487  0.00  0.00    +0.001 A 
ATOM     21  C   LIG    1       23.284 -30.066  10.225  0.00  0.00    +0.011 A 
ENDBRANCH   5  15
BRANCH   3  22
ATOM     22  O   LIG    1       26.865 -31.752   6.563  0.00  0.00    -0.364 OA
ATOM     23  H   LIG    1       26.530 -30.962   6.108  0.00  0.00    +0.212 HD
ENDBRANCH   3  22
TORSDOF 2
ENDMDL
MODEL 6
REMARK VINA RESULT:      -6.8      7.183      9.009
REMARK  Name = *****
REMARK                            x       y       z     vdW  Elec       q    Type
REMARK                         _______ _______ _______ _____ _____    ______ ____
ROOT
ATOM      1  O   LIG    1       23.516 -32.782   5.858  0.00  0.00    -0.271 OA
ATOM      2  C   LIG    1       24.178 -31.789   6.173  0.00  0.00    +0.269 C 
ATOM      3  C   LIG    1       25.586 -31.895   6.808  0.00  0.00    +0.320 C 
ATOM      4  N   LIG    1       25.563 -31.350   8.158  0.00  0.00    -0.243 NA
ATOM      5  C   LIG    1       25.342 -30.093   8.341  0.00  0.00    +0.079 C 
ATOM      6  C   LIG    1       25.126 -29.076   7.266  0.00  0.00    +0.023 A 
ATOM      7  C   LIG    1       24.271 -29.308   6.175  0.00  0.00    +0.043 A 
ATOM      8  C   LIG    1       23.934 -28.242   5.330  0.00  0.00    +0.025 A 
ATOM      9  C   LIG    1       24.499 -26.979   5.515  0.00  0.00    +0.022 A 
ATOM     10  C   LIG    1       25.394 -26.772   6.558  0.00  0.00    +0.042 A 
ATOM     11 CL   LIG    1       26.099 -25.219   6.784  0.00  0.00    -0.084 Cl
ATOM     12  C   LIG    1       25.706 -27.806   7.436  0.00  0.00    +0.032 A 
ATOM     13  N   LIG    1       23.687 -30.545   5.875  0.00  0.00    -0.281 N 
ATOM     14  H   LIG    1       22.887 -30.579   5.256  0.00  0.00    +0.155 HD
ENDROOT
BRANCH   5  15
ATOM     15  C   LIG    1       25.335 -29.631   9.763  0.00  0.00    +0.019 A 
ATOM     16  C   LIG    1       24.206 -29.705  10.590  0.00  0.00    +0.050 A 
ATOM     17 CL   LIG    1       22.711 -30.405  10.080  0.00  0.00    -0.083 Cl
ATOM     18  C   LIG    1       24.279 -29.234  11.905  0.00  0.00    +0.021 A 
ATOM     19  C   LIG    1       25.473 -28.705  12.400  0.00  0.00    +0.002 A 
ATOM     20  C   LIG    1       26.603 -28.654  11.586  0.00  0.00    +0.001 A 
ATOM     21  C   LIG    1       26.538 -29.118  10.273  0.00  0.00    +0.011 A 
ENDBRANCH   5  15
BRANCH   3  22
ATOM     22  O   LIG    1       26.625 -31.378   5.997  0.00  0.00    -0.364 OA
ATOM     23  H   LIG    1       27.228 -30.968   6.638  0.00  0.00    +0.212 HD
ENDBRANCH   3  22
TORSDOF 2
ENDMDL
MODEL 7
REMARK VINA RESULT:      -5.9      7.406     10.054
REMARK  Name = *****
REMARK                            x       y       z     vdW  Elec       q    Type
REMARK                         _______ _______ _______ _____ _____    ______ ____
ROOT
ATOM      1  O   LIG    1       27.604 -33.041   5.615  0.00  0.00    -0.271 OA
ATOM      2  C   LIG    1       26.650 -32.450   6.128  0.00  0.00    +0.269 C 
ATOM      3  C   LIG    1       25.450 -31.930   5.300  0.00  0.00    +0.320 C 
ATOM      4  N   LIG    1       25.391 -30.477   5.370  0.00  0.00    -0.243 NA
ATOM      5  C   LIG    1       25.140 -29.897   6.495  0.00  0.00    +0.079 C 
ATOM      6  C   LIG    1       24.859 -30.585   7.792  0.00  0.00    +0.023 A 
ATOM      7  C   LIG    1       25.634 -31.662   8.253  0.00  0.00    +0.043 A 
ATOM      8  C   LIG    1       25.467 -32.113   9.570  0.00  0.00    +0.025 A 
ATOM      9  C   LIG    1       24.490 -31.556  10.396  0.00  0.00    +0.022 A 
ATOM     10  C   LIG    1       23.682 -30.533   9.913  0.00  0.00    +0.042 A 
ATOM     11 CL   LIG    1       22.471 -29.849  10.924  0.00  0.00    -0.084 Cl
ATOM     12  C   LIG    1       23.863 -30.040   8.623  0.00  0.00    +0.032 A 
ATOM     13  N   LIG    1       26.609 -32.319   7.492  0.00  0.00    -0.281 N 
ATOM     14  H   LIG    1       27.302 -32.889   7.960  0.00  0.00    +0.155 HD
ENDROOT
BRANCH   5  15
ATOM     15  C   LIG    1       25.103 -28.402   6.464  0.00  0.00    +0.019 A 
ATOM     16  C   LIG    1       25.787 -27.598   7.387  0.00  0.00    +0.050 A 
ATOM     17 CL   LIG    1       26.806 -28.243   8.623  0.00  0.00    -0.083 Cl
ATOM     18  C   LIG    1       25.686 -26.206   7.299  0.00  0.00    +0.021 A 
ATOM     19  C   LIG    1       24.921 -25.615   6.291  0.00  0.00    +0.002 A 
ATOM     20  C   LIG    1       24.262 -26.414   5.357  0.00  0.00    +0.001 A 
ATOM     21  C   LIG    1       24.355 -27.803   5.440  0.00  0.00    +0.011 A 
ENDBRANCH   5  15
BRANCH   3  22
ATOM     22  O   LIG    1       24.223 -32.570   5.599  0.00  0.00    -0.364 OA
ATOM     23  H   LIG    1       23.594 -31.833   5.665  0.00  0.00    +0.212 HD
ENDBRANCH   3  22
TORSDOF 2
ENDMDL
