MODEL 1
REMARK VINA RESULT:      -5.5      0.000      0.000
REMARK  Name = *****
REMARK                            x       y       z     vdW  Elec       q    Type
REMARK                         _______ _______ _______ _____ _____    ______ ____
ROOT
ATOM      1  C   LIG    1       23.796 -28.787  12.497  0.00  0.00    +0.049 C 
ATOM      2  C   LIG    1       24.797 -29.898  12.152  0.00  0.00    +0.084 C 
ATOM      3  N   LIG    1       25.511 -29.634  10.929  0.00  0.00    -0.268 N 
ATOM      4  C   LIG    1       26.756 -29.061  11.201  0.00  0.00    +0.239 C 
ATOM      5  O   LIG    1       27.494 -28.567  10.359  0.00  0.00    -0.273 OA
ATOM      6  CA  LIG    1       26.999 -29.152  12.702  0.00  0.00    +0.173 C 
ATOM      7  N   LIG    1       25.844 -29.941  13.189  0.00  0.00    -0.282 NA
ATOM      8  H   LIG    1       26.166 -30.903  13.285  0.00  0.00    +0.125 HD
ATOM      9  C   LIG    1       24.115 -31.267  12.189  0.00  0.00    +0.049 C 
ENDROOT
BRANCH   3  10
ATOM     10  CA  LIG    1       24.887 -29.382   9.590  0.00  0.00    +0.194 C 
ATOM     11  C   LIG    1       25.586 -30.053   8.366  0.00  0.00    +0.165 C 
ATOM     12  S   LIG    1       26.543 -31.578   8.676  0.00  0.00    -0.127 S 
ATOM     13  C   LIG    1       25.228 -32.745   8.119  0.00  0.00    +0.042 C 
ATOM     14  CA  LIG    1       24.153 -31.896   7.399  0.00  0.00    +0.201 C 
ATOM     15  C   LIG    1       24.611 -33.421   9.353  0.00  0.00    +0.025 C 
ATOM     16  C   LIG    1       25.950 -33.825   7.305  0.00  0.00    +0.025 C 
ATOM     17  N   LIG    1       24.258 -30.511   7.907  0.00  0.00    -0.271 N 
ATOM     18  C   LIG    1       23.653 -30.168   9.090  0.00  0.00    +0.240 C 
ATOM     19  O   LIG    1       22.552 -30.477   9.506  0.00  0.00    -0.273 OA
BRANCH  14  20
ATOM     20  C   LIG    1       24.209 -31.924   5.866  0.00  0.00    +0.327 C 
ATOM     21  O   LIG    1       25.069 -31.371   5.196  0.00  0.00    -0.249 OA
BRANCH  20  22
ATOM     22  OXT LIG    1       23.249 -32.692   5.296  0.00  0.00    -0.479 OA
ATOM     23  HXT LIG    1       22.506 -32.832   5.919  0.00  0.00    +0.295 HD
ENDBRANCH  20  22
ENDBRANCH  14  20
ENDBRANCH   3  10
BRANCH   6  24
ATOM     24  C   LIG    1       27.133 -27.826  13.435  0.00  0.00    -0.022 A 
ATOM     25  C   LIG    1       26.665 -26.621  12.888  0.00  0.00    +0.006 A 
ATOM     26  C   LIG    1       26.828 -25.411  13.569  0.00  0.00    +0.000 A 
ATOM     27  C   LIG    1       27.483 -25.378  14.797  0.00  0.00    +0.000 A 
ATOM     28  C   LIG    1       27.987 -26.553  15.342  0.00  0.00    +0.000 A 
ATOM     29  C   LIG    1       27.823 -27.761  14.662  0.00  0.00    +0.006 A 
ENDBRANCH   6  24
TORSDOF 4
ENDMDL
MODEL 2
REMARK VINA RESULT:      -5.2      4.119      6.760
REMARK  Name = *****
REMARK                            x       y       z     vdW  Elec       q    Type
REMARK                         _______ _______ _______ _____ _____    ______ ____
ROOT
ATOM      1  C   LIG    1       20.557 -30.163  12.221  0.00  0.00    +0.049 C 
ATOM      2  C   LIG    1       21.457 -30.109  13.463  0.00  0.00    +0.084 C 
ATOM      3  N   LIG    1       22.307 -28.947  13.476  0.00  0.00    -0.268 N 
ATOM      4  C   LIG    1       21.742 -27.934  14.256  0.00  0.00    +0.239 C 
ATOM      5  O   LIG    1       22.148 -26.781  14.300  0.00  0.00    -0.273 OA
ATOM      6  CA  LIG    1       20.553 -28.523  15.003  0.00  0.00    +0.173 C 
ATOM      7  N   LIG    1       20.613 -29.963  14.662  0.00  0.00    -0.282 NA
ATOM      8  H   LIG    1       21.073 -30.430  15.442  0.00  0.00    +0.125 HD
ATOM      9  C   LIG    1       22.209 -31.430  13.640  0.00  0.00    +0.049 C 
ENDROOT
BRANCH   3  10
ATOM     10  CA  LIG    1       23.277 -28.561  12.400  0.00  0.00    +0.194 C 
ATOM     11  C   LIG    1       24.697 -28.121  12.878  0.00  0.00    +0.165 C 
ATOM     12  S   LIG    1       25.290 -28.783  14.474  0.00  0.00    -0.127 S 
ATOM     13  C   LIG    1       26.332 -30.122  13.751  0.00  0.00    +0.042 C 
ATOM     14  CA  LIG    1       26.442 -29.832  12.234  0.00  0.00    +0.201 C 
ATOM     15  C   LIG    1       25.628 -31.470  13.969  0.00  0.00    +0.025 C 
ATOM     16  C   LIG    1       27.625 -30.130  14.573  0.00  0.00    +0.025 C 
ATOM     17  N   LIG    1       25.275 -29.009  11.847  0.00  0.00    -0.271 N 
ATOM     18  C   LIG    1       24.070 -29.609  11.586  0.00  0.00    +0.240 C 
ATOM     19  O   LIG    1       23.840 -30.630  10.964  0.00  0.00    -0.273 OA
BRANCH  14  20
ATOM     20  C   LIG    1       27.752 -29.176  11.782  0.00  0.00    +0.327 C 
ATOM     21  O   LIG    1       28.672 -29.772  11.241  0.00  0.00    -0.249 OA
BRANCH  20  22
ATOM     22  OXT LIG    1       27.785 -27.833  11.966  0.00  0.00    -0.479 OA
ATOM     23  HXT LIG    1       28.604 -27.569  12.431  0.00  0.00    +0.295 HD
ENDBRANCH  20  22
ENDBRANCH  14  20
ENDBRANCH   3  10
BRANCH   6  24
ATOM     24  C   LIG    1       19.197 -27.916  14.678  0.00  0.00    -0.022 A 
ATOM     25  C   LIG    1       19.041 -26.549  14.397  0.00  0.00    +0.006 A 
ATOM     26  C   LIG    1       17.778 -26.010  14.131  0.00  0.00    +0.000 A 
ATOM     27  C   LIG    1       16.646 -26.819  14.165  0.00  0.00    +0.000 A 
ATOM     28  C   LIG    1       16.772 -28.168  14.477  0.00  0.00    +0.000 A 
ATOM     29  C   LIG    1       18.032 -28.706  14.741  0.00  0.00    +0.006 A 
ENDBRANCH   6  24
TORSDOF 4
ENDMDL
MODEL 3
REMARK VINA RESULT:      -4.7      3.388      5.409
REMARK  Name = *****
REMARK                            x       y       z     vdW  Elec       q    Type
REMARK                         _______ _______ _______ _____ _____    ______ ____
ROOT
ATOM      1  C   LIG    1       23.497 -28.911  14.724  0.00  0.00    +0.049 C 
ATOM      2  C   LIG    1       23.538 -28.492  13.249  0.00  0.00    +0.084 C 
ATOM      3  N   LIG    1       23.058 -29.527  12.370  0.00  0.00    -0.268 N 
ATOM      4  C   LIG    1       21.716 -29.312  12.044  0.00  0.00    +0.239 C 
ATOM      5  O   LIG    1       21.002 -30.122  11.469  0.00  0.00    -0.273 OA
ATOM      6  CA  LIG    1       21.326 -27.928  12.544  0.00  0.00    +0.173 C 
ATOM      7  N   LIG    1       22.605 -27.370  13.041  0.00  0.00    -0.282 NA
ATOM      8  H   LIG    1       22.972 -26.775  12.301  0.00  0.00    +0.125 HD
ATOM      9  C   LIG    1       24.923 -27.957  12.880  0.00  0.00    +0.049 C 
ENDROOT
BRANCH   3  10
ATOM     10  CA  LIG    1       23.597 -30.924  12.288  0.00  0.00    +0.194 C 
ATOM     11  C   LIG    1       23.641 -31.564  10.865  0.00  0.00    +0.165 C 
ATOM     12  S   LIG    1       23.767 -30.432   9.437  0.00  0.00    -0.127 S 
ATOM     13  C   LIG    1       25.585 -30.627   9.197  0.00  0.00    +0.042 C 
ATOM     14  CA  LIG    1       26.022 -31.833  10.063  0.00  0.00    +0.201 C 
ATOM     15  C   LIG    1       26.289 -29.354   9.692  0.00  0.00    +0.025 C 
ATOM     16  C   LIG    1       25.795 -30.720   7.682  0.00  0.00    +0.025 C 
ATOM     17  N   LIG    1       25.026 -31.996  11.144  0.00  0.00    -0.271 N 
ATOM     18  C   LIG    1       25.113 -31.226  12.277  0.00  0.00    +0.240 C 
ATOM     19  O   LIG    1       26.098 -30.922  12.923  0.00  0.00    -0.273 OA
BRANCH  14  20
ATOM     20  C   LIG    1       26.228 -33.149   9.303  0.00  0.00    +0.327 C 
ATOM     21  O   LIG    1       25.325 -33.809   8.808  0.00  0.00    -0.249 OA
BRANCH  20  22
ATOM     22  OXT LIG    1       27.529 -33.497   9.150  0.00  0.00    -0.479 OA
ATOM     23  HXT LIG    1       28.106 -32.710   9.222  0.00  0.00    +0.295 HD
ENDBRANCH  20  22
ENDBRANCH  14  20
ENDBRANCH   3  10
BRANCH   6  24
ATOM     24  C   LIG    1       20.236 -27.887  13.604  0.00  0.00    -0.022 A 
ATOM     25  C   LIG    1       19.886 -29.019  14.357  0.00  0.00    +0.006 A 
ATOM     26  C   LIG    1       18.859 -28.963  15.305  0.00  0.00    +0.000 A 
ATOM     27  C   LIG    1       18.146 -27.783  15.500  0.00  0.00    +0.000 A 
ATOM     28  C   LIG    1       18.451 -26.659  14.740  0.00  0.00    +0.000 A 
ATOM     29  C   LIG    1       19.477 -26.715  13.796  0.00  0.00    +0.006 A 
ENDBRANCH   6  24
TORSDOF 4
ENDMDL
MODEL 4
REMARK VINA RESULT:      -4.7      2.142      7.687
REMARK  Name = *****
REMARK                            x       y       z     vdW  Elec       q    Type
REMARK                         _______ _______ _______ _____ _____    ______ ____
ROOT
ATOM      1  C   LIG    1       27.117 -32.592   8.172  0.00  0.00    +0.049 C 
ATOM      2  C   LIG    1       25.757 -32.491   8.875  0.00  0.00    +0.084 C 
ATOM      3  N   LIG    1       25.209 -31.161   8.824  0.00  0.00    -0.268 N 
ATOM      4  C   LIG    1       24.295 -31.046   7.773  0.00  0.00    +0.239 C 
ATOM      5  O   LIG    1       23.816 -29.991   7.380  0.00  0.00    -0.273 OA
ATOM      6  CA  LIG    1       24.034 -32.441   7.222  0.00  0.00    +0.173 C 
ATOM      7  N   LIG    1       24.778 -33.322   8.151  0.00  0.00    -0.282 NA
ATOM      8  H   LIG    1       24.099 -33.682   8.820  0.00  0.00    +0.125 HD
ATOM      9  C   LIG    1       25.837 -33.076  10.287  0.00  0.00    +0.049 C 
ENDROOT
BRANCH   3  10
ATOM     10  CA  LIG    1       25.884 -29.918   9.322  0.00  0.00    +0.194 C 
ATOM     11  C   LIG    1       25.098 -29.084  10.382  0.00  0.00    +0.165 C 
ATOM     12  S   LIG    1       23.896 -29.975  11.430  0.00  0.00    -0.127 S 
ATOM     13  C   LIG    1       25.004 -30.139  12.895  0.00  0.00    +0.042 C 
ATOM     14  CA  LIG    1       26.215 -29.208  12.645  0.00  0.00    +0.201 C 
ATOM     15  C   LIG    1       25.483 -31.595  12.993  0.00  0.00    +0.025 C 
ATOM     16  C   LIG    1       24.122 -29.853  14.115  0.00  0.00    +0.025 C 
ATOM     17  N   LIG    1       26.336 -29.009  11.184  0.00  0.00    -0.271 N 
ATOM     18  C   LIG    1       26.975 -29.950  10.416  0.00  0.00    +0.240 C 
ATOM     19  O   LIG    1       28.003 -30.558  10.646  0.00  0.00    -0.273 OA
BRANCH  14  20
ATOM     20  C   LIG    1       26.175 -27.863  13.381  0.00  0.00    +0.327 C 
ATOM     21  O   LIG    1       25.504 -26.904  13.030  0.00  0.00    -0.249 OA
BRANCH  20  22
ATOM     22  OXT LIG    1       26.903 -27.842  14.524  0.00  0.00    -0.479 OA
ATOM     23  HXT LIG    1       27.726 -27.328  14.398  0.00  0.00    +0.295 HD
ENDBRANCH  20  22
ENDBRANCH  14  20
ENDBRANCH   3  10
BRANCH   6  24
ATOM     24  C   LIG    1       24.438 -32.669   5.773  0.00  0.00    -0.022 A 
ATOM     25  C   LIG    1       23.787 -33.609   4.957  0.00  0.00    +0.006 A 
ATOM     26  C   LIG    1       24.198 -33.822   3.638  0.00  0.00    +0.000 A 
ATOM     27  C   LIG    1       25.280 -33.119   3.116  0.00  0.00    +0.000 A 
ATOM     28  C   LIG    1       25.963 -32.209   3.916  0.00  0.00    +0.000 A 
ATOM     29  C   LIG    1       25.552 -31.996   5.233  0.00  0.00    +0.006 A 
ENDBRANCH   6  24
TORSDOF 4
ENDMDL
MODEL 5
REMARK VINA RESULT:      -4.5      2.288      7.530
REMARK  Name = *****
REMARK                            x       y       z     vdW  Elec       q    Type
REMARK                         _______ _______ _______ _____ _____    ______ ____
ROOT
ATOM      1  C   LIG    1       23.957 -32.181  10.584  0.00  0.00    +0.049 C 
ATOM      2  C   LIG    1       24.009 -30.654  10.434  0.00  0.00    +0.084 C 
ATOM      3  N   LIG    1       25.357 -30.152  10.394  0.00  0.00    -0.268 N 
ATOM      4  C   LIG    1       25.770 -29.957   9.073  0.00  0.00    +0.239 C 
ATOM      5  O   LIG    1       26.919 -29.714   8.732  0.00  0.00    -0.273 OA
ATOM      6  CA  LIG    1       24.554 -30.118   8.171  0.00  0.00    +0.173 C 
ATOM      7  N   LIG    1       23.435 -30.280   9.129  0.00  0.00    -0.282 NA
ATOM      8  H   LIG    1       22.993 -29.367   9.219  0.00  0.00    +0.125 HD
ATOM      9  C   LIG    1       23.125 -29.981  11.487  0.00  0.00    +0.049 C 
ENDROOT
BRANCH   3  10
ATOM     10  CA  LIG    1       26.405 -30.373  11.443  0.00  0.00    +0.194 C 
ATOM     11  C   LIG    1       27.363 -29.174  11.726  0.00  0.00    +0.165 C 
ATOM     12  S   LIG    1       26.733 -27.495  11.379  0.00  0.00    -0.127 S 
ATOM     13  C   LIG    1       26.286 -27.094  13.122  0.00  0.00    +0.042 C 
ATOM     14  CA  LIG    1       26.931 -28.185  14.011  0.00  0.00    +0.201 C 
ATOM     15  C   LIG    1       24.758 -27.147  13.267  0.00  0.00    +0.025 C 
ATOM     16  C   LIG    1       26.728 -25.642  13.340  0.00  0.00    +0.025 C 
ATOM     17  N   LIG    1       27.138 -29.385  13.171  0.00  0.00    -0.271 N 
ATOM     18  C   LIG    1       26.100 -30.257  12.954  0.00  0.00    +0.240 C 
ATOM     19  O   LIG    1       25.273 -30.674  13.742  0.00  0.00    -0.273 OA
BRANCH  14  20
ATOM     20  C   LIG    1       28.230 -27.778  14.716  0.00  0.00    +0.327 C 
ATOM     21  O   LIG    1       28.327 -26.844  15.500  0.00  0.00    -0.249 OA
BRANCH  20  22
ATOM     22  OXT LIG    1       29.277 -28.600  14.457  0.00  0.00    -0.479 OA
ATOM     23  HXT LIG    1       29.151 -29.465  14.896  0.00  0.00    +0.295 HD
ENDBRANCH  20  22
ENDBRANCH  14  20
ENDBRANCH   3  10
BRANCH   6  24
ATOM     24  C   LIG    1       24.616 -31.261   7.169  0.00  0.00    -0.022 A 
ATOM     25  C   LIG    1       25.669 -31.389   6.249  0.00  0.00    +0.006 A 
ATOM     26  C   LIG    1       25.687 -32.432   5.318  0.00  0.00    +0.000 A 
ATOM     27  C   LIG    1       24.643 -33.351   5.272  0.00  0.00    +0.000 A 
ATOM     28  C   LIG    1       23.572 -33.224   6.149  0.00  0.00    +0.000 A 
ATOM     29  C   LIG    1       23.555 -32.183   7.079  0.00  0.00    +0.006 A 
ENDBRANCH   6  24
TORSDOF 4
ENDMDL
MODEL 6
REMARK VINA RESULT:      -4.5      4.583      6.820
REMARK  Name = *****
REMARK                            x       y       z     vdW  Elec       q    Type
REMARK                         _______ _______ _______ _____ _____    ______ ____
ROOT
ATOM      1  C   LIG    1       19.095 -30.836  11.909  0.00  0.00    +0.049 C 
ATOM      2  C   LIG    1       20.120 -30.848  13.051  0.00  0.00    +0.084 C 
ATOM      3  N   LIG    1       21.085 -29.785  12.933  0.00  0.00    -0.268 N 
ATOM      4  C   LIG    1       20.715 -28.696  13.727  0.00  0.00    +0.239 C 
ATOM      5  O   LIG    1       21.243 -27.593  13.685  0.00  0.00    -0.273 OA
ATOM      6  CA  LIG    1       19.555 -29.131  14.612  0.00  0.00    +0.173 C 
ATOM      7  N   LIG    1       19.426 -30.577  14.323  0.00  0.00    -0.282 NA
ATOM      8  H   LIG    1       19.913 -31.070  15.069  0.00  0.00    +0.125 HD
ATOM      9  C   LIG    1       20.742 -32.238  13.202  0.00  0.00    +0.049 C 
ENDROOT
BRANCH   3  10
ATOM     10  CA  LIG    1       21.973 -29.538  11.752  0.00  0.00    +0.194 C 
ATOM     11  C   LIG    1       23.450 -29.145  12.069  0.00  0.00    +0.165 C 
ATOM     12  S   LIG    1       24.150 -29.717  13.656  0.00  0.00    -0.127 S 
ATOM     13  C   LIG    1       25.055 -31.163  12.957  0.00  0.00    +0.042 C 
ATOM     14  CA  LIG    1       25.042 -30.995  11.418  0.00  0.00    +0.201 C 
ATOM     15  C   LIG    1       24.306 -32.449  13.342  0.00  0.00    +0.025 C 
ATOM     16  C   LIG    1       26.414 -31.183  13.664  0.00  0.00    +0.025 C 
ATOM     17  N   LIG    1       23.889 -30.138  11.067  0.00  0.00    -0.271 N 
ATOM     18  C   LIG    1       22.636 -30.687  10.959  0.00  0.00    +0.240 C 
ATOM     19  O   LIG    1       22.301 -31.737  10.443  0.00  0.00    -0.273 OA
BRANCH  14  20
ATOM     20  C   LIG    1       26.338 -30.451  10.805  0.00  0.00    +0.327 C 
ATOM     21  O   LIG    1       27.182 -31.139  10.250  0.00  0.00    -0.249 OA
BRANCH  20  22
ATOM     22  OXT LIG    1       26.445 -29.100  10.859  0.00  0.00    -0.479 OA
ATOM     23  HXT LIG    1       26.445 -28.792  11.788  0.00  0.00    +0.295 HD
ENDBRANCH  20  22
ENDBRANCH  14  20
ENDBRANCH   3  10
BRANCH   6  24
ATOM     24  C   LIG    1       18.244 -28.388  14.402  0.00  0.00    -0.022 A 
ATOM     25  C   LIG    1       18.178 -26.985  14.378  0.00  0.00    +0.006 A 
ATOM     26  C   LIG    1       16.956 -26.326  14.214  0.00  0.00    +0.000 A 
ATOM     27  C   LIG    1       15.775 -27.054  14.096  0.00  0.00    +0.000 A 
ATOM     28  C   LIG    1       15.811 -28.442  14.153  0.00  0.00    +0.000 A 
ATOM     29  C   LIG    1       17.032 -29.100  14.316  0.00  0.00    +0.006 A 
ENDBRANCH   6  24
TORSDOF 4
ENDMDL
MODEL 7
REMARK VINA RESULT:      -4.4      2.462      7.601
REMARK  Name = *****
REMARK                            x       y       z     vdW  Elec       q    Type
REMARK                         _______ _______ _______ _____ _____    ______ ____
ROOT
ATOM      1  C   LIG    1       26.918 -32.652   8.676  0.00  0.00    +0.049 C 
ATOM      2  C   LIG    1       25.487 -32.724   9.224  0.00  0.00    +0.084 C 
ATOM      3  N   LIG    1       24.825 -31.446   9.200  0.00  0.00    -0.268 N 
ATOM      4  C   LIG    1       24.022 -31.329   8.062  0.00  0.00    +0.239 C 
ATOM      5  O   LIG    1       23.491 -30.292   7.688  0.00  0.00    -0.273 OA
ATOM      6  CA  LIG    1       23.956 -32.694   7.391  0.00  0.00    +0.173 C 
ATOM      7  N   LIG    1       24.675 -33.577   8.338  0.00  0.00    -0.282 NA
ATOM      8  H   LIG    1       23.965 -34.045   8.898  0.00  0.00    +0.125 HD
ATOM      9  C   LIG    1       25.469 -33.408  10.593  0.00  0.00    +0.049 C 
ENDROOT
BRANCH   3  10
ATOM     10  CA  LIG    1       25.320 -30.192   9.855  0.00  0.00    +0.194 C 
ATOM     11  C   LIG    1       24.254 -29.341  10.615  0.00  0.00    +0.165 C 
ATOM     12  S   LIG    1       22.791 -30.218  11.269  0.00  0.00    -0.127 S 
ATOM     13  C   LIG    1       23.407 -30.351  13.002  0.00  0.00    +0.042 C 
ATOM     14  CA  LIG    1       24.639 -29.421  13.110  0.00  0.00    +0.201 C 
ATOM     15  C   LIG    1       23.832 -31.804  13.266  0.00  0.00    +0.025 C 
ATOM     16  C   LIG    1       22.199 -30.047  13.895  0.00  0.00    +0.025 C 
ATOM     17  N   LIG    1       25.194 -29.248  11.750  0.00  0.00    -0.271 N 
ATOM     18  C   LIG    1       26.032 -30.200  11.227  0.00  0.00    +0.240 C 
ATOM     19  O   LIG    1       26.943 -30.800  11.767  0.00  0.00    -0.273 OA
BRANCH  14  20
ATOM     20  C   LIG    1       24.382 -28.063  13.776  0.00  0.00    +0.327 C 
ATOM     21  O   LIG    1       23.835 -27.118  13.227  0.00  0.00    -0.249 OA
BRANCH  20  22
ATOM     22  OXT LIG    1       24.751 -28.012  15.079  0.00  0.00    -0.479 OA
ATOM     23  HXT LIG    1       24.178 -28.590  15.622  0.00  0.00    +0.295 HD
ENDBRANCH  20  22
ENDBRANCH  14  20
ENDBRANCH   3  10
BRANCH   6  24
ATOM     24  C   LIG    1       24.533 -32.773   5.986  0.00  0.00    -0.022 A 
ATOM     25  C   LIG    1       24.126 -33.754   5.067  0.00  0.00    +0.006 A 
ATOM     26  C   LIG    1       24.695 -33.825   3.792  0.00  0.00    +0.000 A 
ATOM     27  C   LIG    1       25.697 -32.933   3.419  0.00  0.00    +0.000 A 
ATOM     28  C   LIG    1       26.142 -31.977   4.324  0.00  0.00    +0.000 A 
ATOM     29  C   LIG    1       25.573 -31.906   5.597  0.00  0.00    +0.006 A 
ENDBRANCH   6  24
TORSDOF 4
ENDMDL
MODEL 8
REMARK VINA RESULT:      -4.3      3.337      7.164
REMARK  Name = *****
REMARK                            x       y       z     vdW  Elec       q    Type
REMARK                         _______ _______ _______ _____ _____    ______ ____
ROOT
ATOM      1  C   LIG    1       25.534 -29.338  10.271  0.00  0.00    +0.049 C 
ATOM      2  C   LIG    1       24.998 -30.595  10.968  0.00  0.00    +0.084 C 
ATOM      3  N   LIG    1       23.597 -30.807  10.716  0.00  0.00    -0.268 N 
ATOM      4  C   LIG    1       23.418 -31.720   9.672  0.00  0.00    +0.239 C 
ATOM      5  O   LIG    1       22.348 -31.950   9.125  0.00  0.00    -0.273 OA
ATOM      6  CA  LIG    1       24.772 -32.337   9.350  0.00  0.00    +0.173 C 
ATOM      7  N   LIG    1       25.660 -31.781  10.396  0.00  0.00    -0.282 NA
ATOM      8  H   LIG    1       25.738 -32.491  11.122  0.00  0.00    +0.125 HD
ATOM      9  C   LIG    1       25.368 -30.586  12.453  0.00  0.00    +0.049 C 
ENDROOT
BRANCH   3  10
ATOM     10  CA  LIG    1       22.498 -29.829  11.004  0.00  0.00    +0.194 C 
ATOM     11  C   LIG    1       21.189 -30.420  11.615  0.00  0.00    +0.165 C 
ATOM     12  S   LIG    1       21.335 -31.966  12.577  0.00  0.00    -0.127 S 
ATOM     13  C   LIG    1       21.329 -31.161  14.236  0.00  0.00    +0.042 C 
ATOM     14  CA  LIG    1       20.898 -29.690  14.016  0.00  0.00    +0.201 C 
ATOM     15  C   LIG    1       22.753 -31.201  14.811  0.00  0.00    +0.025 C 
ATOM     16  C   LIG    1       20.440 -32.041  15.121  0.00  0.00    +0.025 C 
ATOM     17  N   LIG    1       21.212 -29.333  12.615  0.00  0.00    -0.271 N 
ATOM     18  C   LIG    1       22.485 -28.950  12.275  0.00  0.00    +0.240 C 
ATOM     19  O   LIG    1       23.249 -28.214  12.871  0.00  0.00    -0.273 OA
BRANCH  14  20
ATOM     20  C   LIG    1       19.434 -29.376  14.349  0.00  0.00    +0.327 C 
ATOM     21  O   LIG    1       19.061 -28.831  15.377  0.00  0.00    -0.249 OA
BRANCH  20  22
ATOM     22  OXT LIG    1       18.567 -29.688  13.355  0.00  0.00    -0.479 OA
ATOM     23  HXT LIG    1       17.997 -28.922  13.142  0.00  0.00    +0.295 HD
ENDBRANCH  20  22
ENDBRANCH  14  20
ENDBRANCH   3  10
BRANCH   6  24
ATOM     24  C   LIG    1       25.305 -32.076   7.950  0.00  0.00    -0.022 A 
ATOM     25  C   LIG    1       24.744 -31.102   7.109  0.00  0.00    +0.006 A 
ATOM     26  C   LIG    1       25.234 -30.901   5.814  0.00  0.00    +0.000 A 
ATOM     27  C   LIG    1       26.275 -31.686   5.327  0.00  0.00    +0.000 A 
ATOM     28  C   LIG    1       26.822 -32.682   6.129  0.00  0.00    +0.000 A 
ATOM     29  C   LIG    1       26.334 -32.880   7.421  0.00  0.00    +0.006 A 
ENDBRANCH   6  24
TORSDOF 4
ENDMDL
MODEL 9
REMARK VINA RESULT:      -4.3      3.988      7.880
REMARK  Name = *****
REMARK                            x       y       z     vdW  Elec       q    Type
REMARK                         _______ _______ _______ _____ _____    ______ ____
ROOT
ATOM      1  C   LIG    1       20.506 -30.385  14.102  0.00  0.00    +0.049 C 
ATOM      2  C   LIG    1       21.218 -29.681  12.939  0.00  0.00    +0.084 C 
ATOM      3  N   LIG    1       22.313 -30.456  12.416  0.00  0.00    -0.268 N 
ATOM      4  C   LIG    1       21.911 -31.178  11.290  0.00  0.00    +0.239 C 
ATOM      5  O   LIG    1       22.573 -32.054  10.751  0.00  0.00    -0.273 OA
ATOM      6  CA  LIG    1       20.526 -30.689  10.887  0.00  0.00    +0.173 C 
ATOM      7  N   LIG    1       20.281 -29.555  11.808  0.00  0.00    -0.282 NA
ATOM      8  H   LIG    1       20.507 -28.706  11.293  0.00  0.00    +0.125 HD
ATOM      9  C   LIG    1       21.598 -28.251  13.328  0.00  0.00    +0.049 C 
ENDROOT
BRANCH   3  10
ATOM     10  CA  LIG    1       23.483 -30.960  13.206  0.00  0.00    +0.194 C 
ATOM     11  C   LIG    1       24.896 -30.685  12.601  0.00  0.00    +0.165 C 
ATOM     12  S   LIG    1       25.070 -29.238  11.500  0.00  0.00    -0.127 S 
ATOM     13  C   LIG    1       25.783 -28.112  12.774  0.00  0.00    +0.042 C 
ATOM     14  CA  LIG    1       26.163 -28.995  13.987  0.00  0.00    +0.201 C 
ATOM     15  C   LIG    1       24.709 -27.095  13.193  0.00  0.00    +0.025 C 
ATOM     16  C   LIG    1       26.906 -27.345  12.068  0.00  0.00    +0.025 C 
ATOM     17  N   LIG    1       25.332 -30.217  13.933  0.00  0.00    -0.271 N 
ATOM     18  C   LIG    1       24.051 -30.196  14.424  0.00  0.00    +0.240 C 
ATOM     19  O   LIG    1       23.629 -29.683  15.443  0.00  0.00    -0.273 OA
BRANCH  14  20
ATOM     20  C   LIG    1       27.651 -29.347  14.105  0.00  0.00    +0.327 C 
ATOM     21  O   LIG    1       28.197 -30.251  13.489  0.00  0.00    -0.249 OA
BRANCH  20  22
ATOM     22  OXT LIG    1       28.351 -28.510  14.909  0.00  0.00    -0.479 OA
ATOM     23  HXT LIG    1       27.971 -28.501  15.811  0.00  0.00    +0.295 HD
ENDBRANCH  20  22
ENDBRANCH  14  20
ENDBRANCH   3  10
BRANCH   6  24
ATOM     24  C   LIG    1       19.412 -31.724  10.948  0.00  0.00    -0.022 A 
ATOM     25  C   LIG    1       19.449 -32.904  10.188  0.00  0.00    +0.006 A 
ATOM     26  C   LIG    1       18.398 -33.825  10.239  0.00  0.00    +0.000 A 
ATOM     27  C   LIG    1       17.280 -33.573  11.029  0.00  0.00    +0.000 A 
ATOM     28  C   LIG    1       17.205 -32.394  11.762  0.00  0.00    +0.000 A 
ATOM     29  C   LIG    1       18.255 -31.476  11.712  0.00  0.00    +0.006 A 
ENDBRANCH   6  24
TORSDOF 4
ENDMDL
