MODEL 1
REMARK VINA RESULT:      39.7      0.000      0.000
REMARK  Name = *****
REMARK                            x       y       z     vdW  Elec       q    Type
REMARK                         _______ _______ _______ _____ _____    ______ ____
ROOT
ATOM      1  C   LIG    1       25.149 -17.314   4.645  0.00  0.00    +0.064 C 
ATOM      2  C   LIG    1       26.581 -17.799   4.254  0.00  0.00    +0.119 C 
ATOM      3  C   LIG    1       27.559 -16.719   3.785  0.00  0.00    +0.074 C 
ATOM      4  C   LIG    1       27.665 -16.913   2.284  0.00  0.00    +0.239 C 
ATOM      5  O   LIG    1       27.373 -18.280   2.060  0.00  0.00    -0.464 OA
ATOM      6  C   LIG    1       27.155 -15.304   4.154  0.00  0.00    +0.159 C 
ATOM      7  C   LIG    1       25.743 -15.057   3.647  0.00  0.00    -0.011 A 
ATOM      8  C   LIG    1       25.435 -13.907   2.893  0.00  0.00    +0.056 A 
ATOM      9  C   LIG    1       24.114 -13.685   2.566  0.00  0.00    +0.167 A 
ATOM     10  O   LIG    1       23.637 -12.645   1.830  0.00  0.00    -0.453 OA
ATOM     11  C   LIG    1       22.221 -12.934   1.838  0.00  0.00    +0.466 C 
ATOM     12  O   LIG    1       21.879 -14.077   2.648  0.00  0.00    -0.453 OA
ATOM     13  C   LIG    1       23.116 -14.516   3.005  0.00  0.00    +0.167 A 
ATOM     14  C   LIG    1       23.387 -15.665   3.715  0.00  0.00    +0.054 A 
ATOM     15  C   LIG    1       26.685 -18.796   3.120  0.00  0.00    +0.312 C 
ATOM     16  O   LIG    1       26.280 -19.942   3.144  0.00  0.00    -0.251 OA
ATOM     17  C   LIG    1       24.730 -16.006   3.960  0.00  0.00    -0.030 A 
ENDROOT
BRANCH   1  22
ATOM     18  C   LIG    1       23.323 -20.523   5.704  0.00  0.00    +0.165 A 
ATOM     19  C   LIG    1       22.085 -20.352   5.092  0.00  0.00    +0.201 A 
ATOM     20  C   LIG    1       21.843 -19.268   4.233  0.00  0.00    +0.165 A 
ATOM     21  C   LIG    1       22.846 -18.318   4.016  0.00  0.00    +0.053 A 
ATOM     22  C   LIG    1       24.080 -18.413   4.698  0.00  0.00    -0.032 A 
ATOM     23  C   LIG    1       24.303 -19.540   5.518  0.00  0.00    +0.053 A 
BRANCH  18  25
ATOM     24  C   LIG    1       25.051 -21.567   6.938  0.00  0.00    +0.277 C 
ATOM     25  O   LIG    1       23.679 -21.535   6.557  0.00  0.00    -0.491 OA
ENDBRANCH  18  25
BRANCH  19  26
ATOM     26  O   LIG    1       21.036 -21.204   5.341  0.00  0.00    -0.501 OA
ATOM     27  H   LIG    1       20.487 -20.744   6.006  0.00  0.00    +0.292 HD
ENDBRANCH  19  26
BRANCH  20  28
ATOM     28  O   LIG    1       20.573 -19.258   3.711  0.00  0.00    -0.491 OA
ATOM     29  C   LIG    1       20.261 -18.249   2.763  0.00  0.00    +0.277 C 
ENDBRANCH  20  28
ENDBRANCH   1  22
BRANCH   6  30
ATOM     30  O   LIG    1       27.114 -15.117   5.574  0.00  0.00    -0.340 OA
BRANCH  30  31
ATOM     31  C   LIG    1       27.793 -13.978   6.127  0.00  0.00    +0.282 C 
ATOM     32  C   LIG    1       28.305 -12.987   5.056  0.00  0.00    +0.201 C 
ATOM     33  C   LIG    1       27.204 -11.989   4.658  0.00  0.00    +0.179 C 
ATOM     34  C   LIG    1       25.818 -12.606   4.873  0.00  0.00    +0.183 C 
ATOM     35  C   LIG    1       25.654 -12.972   6.366  0.00  0.00    +0.178 C 
ATOM     36  C   LIG    1       24.883 -11.835   7.054  0.00  0.00    +0.197 C 
ATOM     37  O   LIG    1       23.618 -11.571   6.425  0.00  0.00    -0.349 OA
ATOM     38  C   LIG    1       23.570 -12.056   5.084  0.00  0.00    +0.248 C 
ATOM     39  C   LIG    1       22.380 -11.477   4.348  0.00  0.00    +0.070 C 
ATOM     40  O   LIG    1       24.782 -11.729   4.405  0.00  0.00    -0.343 OA
ATOM     41  O   LIG    1       26.894 -13.274   7.009  0.00  0.00    -0.341 OA
BRANCH  32  42
ATOM     42  O   LIG    1       29.456 -12.273   5.537  0.00  0.00    -0.384 OA
ATOM     43  H   LIG    1       29.194 -11.334   5.587  0.00  0.00    +0.210 HD
ENDBRANCH  32  42
BRANCH  33  44
ATOM     44  O   LIG    1       27.385 -11.639   3.270  0.00  0.00    -0.386 OA
ATOM     45  H   LIG    1       27.082 -10.728   3.191  0.00  0.00    +0.210 HD
ENDBRANCH  33  44
ENDBRANCH  30  31
ENDBRANCH   6  30
TORSDOF 8
ENDMDL
MODEL 2
REMARK VINA RESULT:      40.6      0.709      2.071
REMARK  Name = *****
REMARK                            x       y       z     vdW  Elec       q    Type
REMARK                         _______ _______ _______ _____ _____    ______ ____
ROOT
ATOM      1  C   LIG    1       25.026 -16.821   4.549  0.00  0.00    +0.064 C 
ATOM      2  C   LIG    1       26.363 -17.506   4.125  0.00  0.00    +0.119 C 
ATOM      3  C   LIG    1       27.481 -16.576   3.648  0.00  0.00    +0.074 C 
ATOM      4  C   LIG    1       27.530 -16.764   2.142  0.00  0.00    +0.239 C 
ATOM      5  O   LIG    1       27.036 -18.070   1.911  0.00  0.00    -0.464 OA
ATOM      6  C   LIG    1       27.296 -15.122   4.038  0.00  0.00    +0.159 C 
ATOM      7  C   LIG    1       25.927 -14.663   3.562  0.00  0.00    -0.011 A 
ATOM      8  C   LIG    1       25.778 -13.471   2.826  0.00  0.00    +0.056 A 
ATOM      9  C   LIG    1       24.498 -13.053   2.528  0.00  0.00    +0.167 A 
ATOM     10  O   LIG    1       24.166 -11.945   1.812  0.00  0.00    -0.453 OA
ATOM     11  C   LIG    1       22.723 -12.023   1.845  0.00  0.00    +0.466 C 
ATOM     12  O   LIG    1       22.231 -13.114   2.651  0.00  0.00    -0.453 OA
ATOM     13  C   LIG    1       23.397 -13.734   2.978  0.00  0.00    +0.167 A 
ATOM     14  C   LIG    1       23.509 -14.920   3.672  0.00  0.00    +0.054 A 
ATOM     15  C   LIG    1       26.299 -18.493   2.979  0.00  0.00    +0.312 C 
ATOM     16  O   LIG    1       25.730 -19.567   3.000  0.00  0.00    -0.251 OA
ATOM     17  C   LIG    1       24.791 -15.457   3.886  0.00  0.00    -0.030 A 
ENDROOT
BRANCH   1  22
ATOM     18  C   LIG    1       21.563 -18.289   3.772  0.00  0.00    +0.165 A 
ATOM     19  C   LIG    1       21.625 -19.512   4.433  0.00  0.00    +0.201 A 
ATOM     20  C   LIG    1       22.725 -19.847   5.237  0.00  0.00    +0.165 A 
ATOM     21  C   LIG    1       23.800 -18.958   5.349  0.00  0.00    +0.053 A 
ATOM     22  C   LIG    1       23.807 -17.752   4.613  0.00  0.00    -0.032 A 
ATOM     23  C   LIG    1       22.665 -17.429   3.851  0.00  0.00    +0.053 A 
BRANCH  18  25
ATOM     24  C   LIG    1       19.445 -18.740   2.818  0.00  0.00    +0.277 C 
ATOM     25  O   LIG    1       20.547 -17.849   2.963  0.00  0.00    -0.491 OA
ENDBRANCH  18  25
BRANCH  19  26
ATOM     26  O   LIG    1       20.641 -20.460   4.286  0.00  0.00    -0.501 OA
ATOM     27  H   LIG    1       21.105 -21.318   4.340  0.00  0.00    +0.292 HD
ENDBRANCH  19  26
BRANCH  20  28
ATOM     28  O   LIG    1       22.619 -21.085   5.820  0.00  0.00    -0.491 OA
ATOM     29  C   LIG    1       23.412 -21.341   6.970  0.00  0.00    +0.277 C 
ENDBRANCH  20  28
ENDBRANCH   1  22
BRANCH   6  30
ATOM     30  O   LIG    1       27.309 -14.949   5.461  0.00  0.00    -0.340 OA
BRANCH  30  31
ATOM     31  C   LIG    1       27.939 -13.773   5.994  0.00  0.00    +0.282 C 
ATOM     32  C   LIG    1       28.342 -12.745   4.911  0.00  0.00    +0.201 C 
ATOM     33  C   LIG    1       27.165 -11.817   4.566  0.00  0.00    +0.179 C 
ATOM     34  C   LIG    1       25.831 -12.521   4.834  0.00  0.00    +0.183 C 
ATOM     35  C   LIG    1       25.752 -12.904   6.329  0.00  0.00    +0.178 C 
ATOM     36  C   LIG    1       24.941 -11.822   7.057  0.00  0.00    +0.197 C 
ATOM     37  O   LIG    1       23.636 -11.634   6.483  0.00  0.00    -0.349 OA
ATOM     38  C   LIG    1       23.563 -12.114   5.141  0.00  0.00    +0.248 C 
ATOM     39  C   LIG    1       22.310 -11.607   4.459  0.00  0.00    +0.070 C 
ATOM     40  O   LIG    1       24.724 -11.708   4.415  0.00  0.00    -0.343 OA
ATOM     41  O   LIG    1       27.034 -13.131   6.918  0.00  0.00    -0.341 OA
BRANCH  32  42
ATOM     42  O   LIG    1       29.465 -11.963   5.350  0.00  0.00    -0.384 OA
ATOM     43  H   LIG    1       30.190 -12.150   4.723  0.00  0.00    +0.210 HD
ENDBRANCH  32  42
BRANCH  33  44
ATOM     44  O   LIG    1       27.265 -11.448   3.175  0.00  0.00    -0.386 OA
ATOM     45  H   LIG    1       26.728 -10.656   3.077  0.00  0.00    +0.210 HD
ENDBRANCH  33  44
ENDBRANCH  30  31
ENDBRANCH   6  30
TORSDOF 8
ENDMDL
