MODEL 1
REMARK VINA RESULT:      -8.3      0.000      0.000
REMARK  Name = *****
REMARK                            x       y       z     vdW  Elec       q    Type
REMARK                         _______ _______ _______ _____ _____    ______ ____
ROOT
ATOM      1  C   LIG    1       25.800 -21.580   6.309  0.00  0.00    -0.006 A 
ATOM      2  C   LIG    1       27.087 -21.194   6.784  0.00  0.00    +0.007 A 
ATOM      3  C   LIG    1       27.756 -21.831   7.855  0.00  0.00    +0.010 A 
ATOM      4  C   LIG    1       28.998 -21.393   8.306  0.00  0.00    +0.001 A 
ATOM      5  C   LIG    1       29.603 -20.312   7.687  0.00  0.00    +0.014 A 
ATOM      6  C   LIG    1       28.974 -19.662   6.608  0.00  0.00    +0.081 A 
ATOM      7  C   LIG    1       27.726 -20.088   6.153  0.00  0.00    +0.084 A 
ATOM      8  N   LIG    1       27.150 -19.435   5.137  0.00  0.00    -0.242 NA
ATOM      9  C   LIG    1       25.925 -19.799   4.677  0.00  0.00    +0.145 A 
ATOM     10  C   LIG    1       25.242 -20.870   5.234  0.00  0.00    +0.039 A 
ENDROOT
BRANCH   6  11
ATOM     11  C   LIG    1       29.706 -18.497   5.985  0.00  0.00    +0.419 C 
ATOM     12  F   LIG    1       30.584 -18.918   5.024  0.00  0.00    -0.166 F 
ATOM     13  F   LIG    1       30.481 -17.845   6.904  0.00  0.00    -0.166 F 
ATOM     14  F   LIG    1       28.964 -17.527   5.390  0.00  0.00    -0.166 F 
ENDBRANCH   6  11
BRANCH   9  15
ATOM     15  C   LIG    1       25.291 -18.984   3.557  0.00  0.00    +0.434 C 
ATOM     16  F   LIG    1       24.060 -18.494   3.883  0.00  0.00    -0.164 F 
ATOM     17  F   LIG    1       25.121 -19.701   2.409  0.00  0.00    -0.164 F 
ATOM     18  F   LIG    1       26.029 -17.893   3.195  0.00  0.00    -0.164 F 
ENDBRANCH   9  15
BRANCH   1  19
ATOM     19  C   LIG    1       24.965 -22.690   6.951  0.00  0.00    +0.162 C 
BRANCH  19  20
ATOM     20  C   LIG    1       23.999 -23.451   5.974  0.00  0.00    +0.087 C 
ATOM     21  N   LIG    1       24.655 -23.859   4.701  0.00  0.00    -0.311 NA
ATOM     22  H   LIG    1       23.916 -24.008   4.010  0.00  0.00    +0.122 HD
ATOM     23  C   LIG    1       25.427 -25.108   4.776  0.00  0.00    +0.081 C 
ATOM     24  C   LIG    1       24.655 -26.276   5.381  0.00  0.00    +0.015 C 
ATOM     25  C   LIG    1       24.035 -25.905   6.719  0.00  0.00    +0.003 C 
ATOM     26  C   LIG    1       23.214 -24.630   6.580  0.00  0.00    +0.021 C 
ENDBRANCH  19  20
BRANCH  19  27
ATOM     27  O   LIG    1       24.261 -22.127   8.063  0.00  0.00    -0.386 OA
ATOM     28  H   LIG    1       24.796 -21.366   8.344  0.00  0.00    +0.210 HD
ENDBRANCH  19  27
ENDBRANCH   1  19
TORSDOF 5
ENDMDL
MODEL 2
REMARK VINA RESULT:      -8.1      2.848      6.075
REMARK  Name = *****
REMARK                            x       y       z     vdW  Elec       q    Type
REMARK                         _______ _______ _______ _____ _____    ______ ____
ROOT
ATOM      1  C   LIG    1       27.661 -20.066   5.988  0.00  0.00    -0.006 A 
ATOM      2  C   LIG    1       26.905 -20.971   6.789  0.00  0.00    +0.007 A 
ATOM      3  C   LIG    1       27.433 -21.675   7.896  0.00  0.00    +0.010 A 
ATOM      4  C   LIG    1       26.663 -22.576   8.625  0.00  0.00    +0.001 A 
ATOM      5  C   LIG    1       25.341 -22.785   8.268  0.00  0.00    +0.014 A 
ATOM      6  C   LIG    1       24.776 -22.091   7.180  0.00  0.00    +0.081 A 
ATOM      7  C   LIG    1       25.542 -21.191   6.438  0.00  0.00    +0.084 A 
ATOM      8  N   LIG    1       24.976 -20.563   5.401  0.00  0.00    -0.242 NA
ATOM      9  C   LIG    1       25.690 -19.697   4.635  0.00  0.00    +0.145 A 
ATOM     10  C   LIG    1       27.020 -19.424   4.916  0.00  0.00    +0.039 A 
ENDROOT
BRANCH   6  11
ATOM     11  C   LIG    1       23.326 -22.371   6.863  0.00  0.00    +0.419 C 
ATOM     12  F   LIG    1       22.501 -21.896   7.845  0.00  0.00    -0.166 F 
ATOM     13  F   LIG    1       23.076 -23.716   6.818  0.00  0.00    -0.166 F 
ATOM     14  F   LIG    1       22.824 -21.875   5.703  0.00  0.00    -0.166 F 
ENDBRANCH   6  11
BRANCH   9  15
ATOM     15  C   LIG    1       25.013 -19.054   3.431  0.00  0.00    +0.434 C 
ATOM     16  F   LIG    1       24.802 -19.929   2.406  0.00  0.00    -0.164 F 
ATOM     17  F   LIG    1       25.732 -18.021   2.906  0.00  0.00    -0.164 F 
ATOM     18  F   LIG    1       23.784 -18.530   3.717  0.00  0.00    -0.164 F 
ENDBRANCH   9  15
BRANCH   1  19
ATOM     19  C   LIG    1       29.154 -19.805   6.196  0.00  0.00    +0.162 C 
BRANCH  19  20
ATOM     20  C   LIG    1       29.668 -19.993   7.669  0.00  0.00    +0.087 C 
ATOM     21  N   LIG    1       31.123 -20.302   7.746  0.00  0.00    -0.311 NA
ATOM     22  H   LIG    1       31.292 -20.748   8.651  0.00  0.00    +0.122 HD
ATOM     23  C   LIG    1       32.007 -19.130   7.677  0.00  0.00    +0.081 C 
ATOM     24  C   LIG    1       31.641 -18.020   8.655  0.00  0.00    +0.015 C 
ATOM     25  C   LIG    1       30.174 -17.636   8.544  0.00  0.00    +0.003 C 
ATOM     26  C   LIG    1       29.298 -18.875   8.663  0.00  0.00    +0.021 C 
ENDBRANCH  19  20
BRANCH  19  27
ATOM     27  O   LIG    1       29.449 -18.498   5.693  0.00  0.00    -0.386 OA
ATOM     28  H   LIG    1       30.349 -18.561   5.332  0.00  0.00    +0.210 HD
ENDBRANCH  19  27
ENDBRANCH   1  19
TORSDOF 5
ENDMDL
MODEL 3
REMARK VINA RESULT:      -7.8      3.451      6.709
REMARK  Name = *****
REMARK                            x       y       z     vdW  Elec       q    Type
REMARK                         _______ _______ _______ _____ _____    ______ ____
ROOT
ATOM      1  C   LIG    1       27.768 -20.209   5.984  0.00  0.00    -0.006 A 
ATOM      2  C   LIG    1       26.827 -19.577   5.121  0.00  0.00    +0.007 A 
ATOM      3  C   LIG    1       27.152 -18.520   4.239  0.00  0.00    +0.010 A 
ATOM      4  C   LIG    1       26.189 -17.911   3.441  0.00  0.00    +0.001 A 
ATOM      5  C   LIG    1       24.878 -18.354   3.500  0.00  0.00    +0.014 A 
ATOM      6  C   LIG    1       24.519 -19.413   4.355  0.00  0.00    +0.081 A 
ATOM      7  C   LIG    1       25.476 -20.026   5.165  0.00  0.00    +0.084 A 
ATOM      8  N   LIG    1       25.095 -21.018   5.978  0.00  0.00    -0.242 NA
ATOM      9  C   LIG    1       25.987 -21.627   6.802  0.00  0.00    +0.145 A 
ATOM     10  C   LIG    1       27.322 -21.252   6.812  0.00  0.00    +0.039 A 
ENDROOT
BRANCH   6  11
ATOM     11  C   LIG    1       23.070 -19.840   4.352  0.00  0.00    +0.419 C 
ATOM     12  F   LIG    1       22.328 -19.072   3.498  0.00  0.00    -0.166 F 
ATOM     13  F   LIG    1       22.493 -19.656   5.579  0.00  0.00    -0.166 F 
ATOM     14  F   LIG    1       22.789 -21.125   4.014  0.00  0.00    -0.166 F 
ENDBRANCH   6  11
BRANCH   9  15
ATOM     15  C   LIG    1       25.489 -22.711   7.749  0.00  0.00    +0.434 C 
ATOM     16  F   LIG    1       24.139 -22.901   7.680  0.00  0.00    -0.164 F 
ATOM     17  F   LIG    1       25.768 -22.445   9.057  0.00  0.00    -0.164 F 
ATOM     18  F   LIG    1       26.038 -23.939   7.505  0.00  0.00    -0.164 F 
ENDBRANCH   9  15
BRANCH   1  19
ATOM     19  C   LIG    1       29.228 -19.768   6.104  0.00  0.00    +0.162 C 
BRANCH  19  20
ATOM     20  C   LIG    1       29.922 -20.113   7.471  0.00  0.00    +0.087 C 
ATOM     21  N   LIG    1       31.409 -20.052   7.405  0.00  0.00    -0.311 NA
ATOM     22  H   LIG    1       31.771 -20.614   8.179  0.00  0.00    +0.122 HD
ATOM     23  C   LIG    1       31.979 -18.706   7.552  0.00  0.00    +0.081 C 
ATOM     24  C   LIG    1       31.464 -17.945   8.768  0.00  0.00    +0.015 C 
ATOM     25  C   LIG    1       29.944 -17.930   8.818  0.00  0.00    +0.003 C 
ATOM     26  C   LIG    1       29.403 -19.349   8.704  0.00  0.00    +0.021 C 
ENDBRANCH  19  20
BRANCH  19  27
ATOM     27  O   LIG    1       29.294 -18.369   5.813  0.00  0.00    -0.386 OA
ATOM     28  H   LIG    1       29.130 -17.924   6.661  0.00  0.00    +0.210 HD
ENDBRANCH  19  27
ENDBRANCH   1  19
TORSDOF 5
ENDMDL
MODEL 4
REMARK VINA RESULT:      -7.7      2.639      6.036
REMARK  Name = *****
REMARK                            x       y       z     vdW  Elec       q    Type
REMARK                         _______ _______ _______ _____ _____    ______ ____
ROOT
ATOM      1  C   LIG    1       27.634 -20.306   6.107  0.00  0.00    -0.006 A 
ATOM      2  C   LIG    1       26.558 -21.133   6.543  0.00  0.00    +0.007 A 
ATOM      3  C   LIG    1       26.683 -22.129   7.540  0.00  0.00    +0.010 A 
ATOM      4  C   LIG    1       25.610 -22.936   7.905  0.00  0.00    +0.001 A 
ATOM      5  C   LIG    1       24.384 -22.758   7.287  0.00  0.00    +0.014 A 
ATOM      6  C   LIG    1       24.218 -21.767   6.301  0.00  0.00    +0.081 A 
ATOM      7  C   LIG    1       25.288 -20.957   5.921  0.00  0.00    +0.084 A 
ATOM      8  N   LIG    1       25.098 -20.038   4.968  0.00  0.00    -0.242 NA
ATOM      9  C   LIG    1       26.117 -19.244   4.549  0.00  0.00    +0.145 A 
ATOM     10  C   LIG    1       27.381 -19.349   5.110  0.00  0.00    +0.039 A 
ENDROOT
BRANCH   6  11
ATOM     11  C   LIG    1       22.846 -21.634   5.683  0.00  0.00    +0.419 C 
ATOM     12  F   LIG    1       22.244 -20.464   6.057  0.00  0.00    -0.166 F 
ATOM     13  F   LIG    1       22.002 -22.616   6.124  0.00  0.00    -0.166 F 
ATOM     14  F   LIG    1       22.755 -21.666   4.328  0.00  0.00    -0.166 F 
ENDBRANCH   6  11
BRANCH   9  15
ATOM     15  C   LIG    1       25.860 -18.254   3.421  0.00  0.00    +0.434 C 
ATOM     16  F   LIG    1       25.944 -18.821   2.183  0.00  0.00    -0.164 F 
ATOM     17  F   LIG    1       26.736 -17.209   3.419  0.00  0.00    -0.164 F 
ATOM     18  F   LIG    1       24.618 -17.684   3.472  0.00  0.00    -0.164 F 
ENDBRANCH   9  15
BRANCH   1  19
ATOM     19  C   LIG    1       29.067 -20.447   6.623  0.00  0.00    +0.162 C 
BRANCH  19  20
ATOM     20  C   LIG    1       29.254 -20.184   8.160  0.00  0.00    +0.087 C 
ATOM     21  N   LIG    1       30.389 -20.947   8.752  0.00  0.00    -0.311 NA
ATOM     22  H   LIG    1       30.224 -21.005   9.759  0.00  0.00    +0.122 HD
ATOM     23  C   LIG    1       31.710 -20.328   8.570  0.00  0.00    +0.081 C 
ATOM     24  C   LIG    1       31.770 -18.864   8.990  0.00  0.00    +0.015 C 
ATOM     25  C   LIG    1       30.663 -18.049   8.341  0.00  0.00    +0.003 C 
ATOM     26  C   LIG    1       29.313 -18.706   8.591  0.00  0.00    +0.021 C 
ENDBRANCH  19  20
BRANCH  19  27
ATOM     27  O   LIG    1       29.908 -19.602   5.832  0.00  0.00    -0.386 OA
ATOM     28  H   LIG    1       29.635 -19.760   4.913  0.00  0.00    +0.210 HD
ENDBRANCH  19  27
ENDBRANCH   1  19
TORSDOF 5
ENDMDL
MODEL 5
REMARK VINA RESULT:      -7.2      1.635      4.198
REMARK  Name = *****
REMARK                            x       y       z     vdW  Elec       q    Type
REMARK                         _______ _______ _______ _____ _____    ______ ____
ROOT
ATOM      1  C   LIG    1       25.801 -22.378   6.350  0.00  0.00    -0.006 A 
ATOM      2  C   LIG    1       25.193 -21.565   5.350  0.00  0.00    +0.007 A 
ATOM      3  C   LIG    1       24.009 -21.917   4.660  0.00  0.00    +0.010 A 
ATOM      4  C   LIG    1       23.473 -21.104   3.665  0.00  0.00    +0.001 A 
ATOM      5  C   LIG    1       24.106 -19.914   3.345  0.00  0.00    +0.014 A 
ATOM      6  C   LIG    1       25.278 -19.524   4.021  0.00  0.00    +0.081 A 
ATOM      7  C   LIG    1       25.828 -20.335   5.015  0.00  0.00    +0.084 A 
ATOM      8  N   LIG    1       26.952 -19.939   5.623  0.00  0.00    -0.242 NA
ATOM      9  C   LIG    1       27.536 -20.708   6.578  0.00  0.00    +0.145 A 
ATOM     10  C   LIG    1       26.975 -21.915   6.966  0.00  0.00    +0.039 A 
ENDROOT
BRANCH   6  11
ATOM     11  C   LIG    1       25.900 -18.208   3.616  0.00  0.00    +0.419 C 
ATOM     12  F   LIG    1       25.029 -17.169   3.802  0.00  0.00    -0.166 F 
ATOM     13  F   LIG    1       26.192 -18.184   2.280  0.00  0.00    -0.166 F 
ATOM     14  F   LIG    1       27.045 -17.830   4.240  0.00  0.00    -0.166 F 
ENDBRANCH   6  11
BRANCH   9  15
ATOM     15  C   LIG    1       28.847 -20.238   7.197  0.00  0.00    +0.434 C 
ATOM     16  F   LIG    1       29.715 -19.722   6.280  0.00  0.00    -0.164 F 
ATOM     17  F   LIG    1       29.520 -21.236   7.838  0.00  0.00    -0.164 F 
ATOM     18  F   LIG    1       28.683 -19.255   8.132  0.00  0.00    -0.164 F 
ENDBRANCH   9  15
BRANCH   1  19
ATOM     19  C   LIG    1       25.277 -23.761   6.743  0.00  0.00    +0.162 C 
BRANCH  19  20
ATOM     20  C   LIG    1       25.457 -24.879   5.656  0.00  0.00    +0.087 C 
ATOM     21  N   LIG    1       26.673 -25.713   5.868  0.00  0.00    -0.311 NA
ATOM     22  H   LIG    1       26.905 -26.147   4.972  0.00  0.00    +0.122 HD
ATOM     23  C   LIG    1       26.514 -26.802   6.841  0.00  0.00    +0.081 C 
ATOM     24  C   LIG    1       25.296 -27.684   6.589  0.00  0.00    +0.015 C 
ATOM     25  C   LIG    1       24.027 -26.859   6.441  0.00  0.00    +0.003 C 
ATOM     26  C   LIG    1       24.229 -25.772   5.394  0.00  0.00    +0.021 C 
ENDBRANCH  19  20
BRANCH  19  27
ATOM     27  O   LIG    1       23.910 -23.619   7.140  0.00  0.00    -0.386 OA
ATOM     28  H   LIG    1       23.432 -24.315   6.659  0.00  0.00    +0.210 HD
ENDBRANCH  19  27
ENDBRANCH   1  19
TORSDOF 5
ENDMDL
MODEL 6
REMARK VINA RESULT:      -6.8      3.484      6.678
REMARK  Name = *****
REMARK                            x       y       z     vdW  Elec       q    Type
REMARK                         _______ _______ _______ _____ _____    ______ ____
ROOT
ATOM      1  C   LIG    1       27.456 -20.294   5.957  0.00  0.00    -0.006 A 
ATOM      2  C   LIG    1       26.485 -19.706   5.096  0.00  0.00    +0.007 A 
ATOM      3  C   LIG    1       26.739 -18.590   4.266  0.00  0.00    +0.010 A 
ATOM      4  C   LIG    1       25.745 -18.030   3.468  0.00  0.00    +0.001 A 
ATOM      5  C   LIG    1       24.476 -18.583   3.476  0.00  0.00    +0.014 A 
ATOM      6  C   LIG    1       24.189 -19.704   4.279  0.00  0.00    +0.081 A 
ATOM      7  C   LIG    1       25.176 -20.268   5.087  0.00  0.00    +0.084 A 
ATOM      8  N   LIG    1       24.862 -21.322   5.849  0.00  0.00    -0.242 NA
ATOM      9  C   LIG    1       25.783 -21.889   6.671  0.00  0.00    +0.145 A 
ATOM     10  C   LIG    1       27.081 -21.405   6.730  0.00  0.00    +0.039 A 
ENDROOT
BRANCH   6  11
ATOM     11  C   LIG    1       22.781 -20.249   4.222  0.00  0.00    +0.419 C 
ATOM     12  F   LIG    1       22.713 -21.368   3.438  0.00  0.00    -0.166 F 
ATOM     13  F   LIG    1       21.924 -19.359   3.635  0.00  0.00    -0.166 F 
ATOM     14  F   LIG    1       22.189 -20.596   5.394  0.00  0.00    -0.166 F 
ENDBRANCH   6  11
BRANCH   9  15
ATOM     15  C   LIG    1       25.357 -23.050   7.560  0.00  0.00    +0.434 C 
ATOM     16  F   LIG    1       26.009 -24.213   7.270  0.00  0.00    -0.164 F 
ATOM     17  F   LIG    1       24.025 -23.329   7.468  0.00  0.00    -0.164 F 
ATOM     18  F   LIG    1       25.588 -22.829   8.889  0.00  0.00    -0.164 F 
ENDBRANCH   9  15
BRANCH   1  19
ATOM     19  C   LIG    1       28.871 -19.739   6.132  0.00  0.00    +0.162 C 
BRANCH  19  20
ATOM     20  C   LIG    1       29.219 -19.236   7.578  0.00  0.00    +0.087 C 
ATOM     21  N   LIG    1       29.384 -20.345   8.560  0.00  0.00    -0.311 NA
ATOM     22  H   LIG    1       29.250 -19.948   9.493  0.00  0.00    +0.122 HD
ATOM     23  C   LIG    1       30.708 -20.983   8.554  0.00  0.00    +0.081 C 
ATOM     24  C   LIG    1       31.869 -20.000   8.654  0.00  0.00    +0.015 C 
ATOM     25  C   LIG    1       31.762 -18.898   7.612  0.00  0.00    +0.003 C 
ATOM     26  C   LIG    1       30.390 -18.241   7.685  0.00  0.00    +0.021 C 
ENDBRANCH  19  20
BRANCH  19  27
ATOM     27  O   LIG    1       29.070 -18.716   5.151  0.00  0.00    -0.386 OA
ATOM     28  H   LIG    1       29.551 -19.148   4.426  0.00  0.00    +0.210 HD
ENDBRANCH  19  27
ENDBRANCH   1  19
TORSDOF 5
ENDMDL
MODEL 7
REMARK VINA RESULT:      -6.8      2.096      4.862
REMARK  Name = *****
REMARK                            x       y       z     vdW  Elec       q    Type
REMARK                         _______ _______ _______ _____ _____    ______ ____
ROOT
ATOM      1  C   LIG    1       24.911 -22.896   6.543  0.00  0.00    -0.006 A 
ATOM      2  C   LIG    1       23.817 -22.200   5.952  0.00  0.00    +0.007 A 
ATOM      3  C   LIG    1       22.528 -22.756   5.780  0.00  0.00    +0.010 A 
ATOM      4  C   LIG    1       21.502 -22.047   5.163  0.00  0.00    +0.001 A 
ATOM      5  C   LIG    1       21.740 -20.759   4.713  0.00  0.00    +0.014 A 
ATOM      6  C   LIG    1       23.007 -20.167   4.880  0.00  0.00    +0.081 A 
ATOM      7  C   LIG    1       24.045 -20.872   5.490  0.00  0.00    +0.084 A 
ATOM      8  N   LIG    1       25.239 -20.283   5.615  0.00  0.00    -0.242 NA
ATOM      9  C   LIG    1       26.286 -20.940   6.180  0.00  0.00    +0.145 A 
ATOM     10  C   LIG    1       26.142 -22.232   6.661  0.00  0.00    +0.039 A 
ENDROOT
BRANCH   6  11
ATOM     11  C   LIG    1       23.179 -18.756   4.368  0.00  0.00    +0.419 C 
ATOM     12  F   LIG    1       22.489 -17.860   5.136  0.00  0.00    -0.166 F 
ATOM     13  F   LIG    1       22.658 -18.614   3.111  0.00  0.00    -0.166 F 
ATOM     14  F   LIG    1       24.442 -18.261   4.289  0.00  0.00    -0.166 F 
ENDBRANCH   6  11
BRANCH   9  15
ATOM     15  C   LIG    1       27.639 -20.243   6.245  0.00  0.00    +0.434 C 
ATOM     16  F   LIG    1       28.689 -21.101   6.095  0.00  0.00    -0.164 F 
ATOM     17  F   LIG    1       27.847 -19.593   7.426  0.00  0.00    -0.164 F 
ATOM     18  F   LIG    1       27.808 -19.294   5.276  0.00  0.00    -0.164 F 
ENDBRANCH   9  15
BRANCH   1  19
ATOM     19  C   LIG    1       24.832 -24.354   7.000  0.00  0.00    +0.162 C 
BRANCH  19  20
ATOM     20  C   LIG    1       25.835 -25.333   6.292  0.00  0.00    +0.087 C 
ATOM     21  N   LIG    1       26.237 -26.482   7.150  0.00  0.00    -0.311 NA
ATOM     22  H   LIG    1       27.118 -26.846   6.780  0.00  0.00    +0.122 HD
ATOM     23  C   LIG    1       25.286 -27.603   7.167  0.00  0.00    +0.081 C 
ATOM     24  C   LIG    1       24.876 -28.087   5.781  0.00  0.00    +0.015 C 
ATOM     25  C   LIG    1       24.392 -26.939   4.908  0.00  0.00    +0.003 C 
ATOM     26  C   LIG    1       25.427 -25.823   4.889  0.00  0.00    +0.021 C 
ENDBRANCH  19  20
BRANCH  19  27
ATOM     27  O   LIG    1       23.475 -24.789   6.859  0.00  0.00    -0.386 OA
ATOM     28  H   LIG    1       23.039 -24.534   7.689  0.00  0.00    +0.210 HD
ENDBRANCH  19  27
ENDBRANCH   1  19
TORSDOF 5
ENDMDL
MODEL 8
REMARK VINA RESULT:      -6.3     10.456     11.887
REMARK  Name = *****
REMARK                            x       y       z     vdW  Elec       q    Type
REMARK                         _______ _______ _______ _____ _____    ______ ____
ROOT
ATOM      1  C   LIG    1       23.638 -30.099  11.281  0.00  0.00    -0.006 A 
ATOM      2  C   LIG    1       23.447 -28.947  12.099  0.00  0.00    +0.007 A 
ATOM      3  C   LIG    1       24.504 -28.147  12.593  0.00  0.00    +0.010 A 
ATOM      4  C   LIG    1       24.268 -27.052  13.419  0.00  0.00    +0.001 A 
ATOM      5  C   LIG    1       22.965 -26.725  13.759  0.00  0.00    +0.014 A 
ATOM      6  C   LIG    1       21.887 -27.489  13.273  0.00  0.00    +0.081 A 
ATOM      7  C   LIG    1       22.113 -28.594  12.451  0.00  0.00    +0.084 A 
ATOM      8  N   LIG    1       21.065 -29.307  12.023  0.00  0.00    -0.242 NA
ATOM      9  C   LIG    1       21.239 -30.404  11.242  0.00  0.00    +0.145 A 
ATOM     10  C   LIG    1       22.506 -30.808  10.849  0.00  0.00    +0.039 A 
ENDROOT
BRANCH   6  11
ATOM     11  C   LIG    1       20.498 -27.060  13.686  0.00  0.00    +0.419 C 
ATOM     12  F   LIG    1       19.900 -26.309  12.712  0.00  0.00    -0.166 F 
ATOM     13  F   LIG    1       20.534 -26.245  14.783  0.00  0.00    -0.166 F 
ATOM     14  F   LIG    1       19.600 -28.032  13.991  0.00  0.00    -0.166 F 
ENDBRANCH   6  11
BRANCH   9  15
ATOM     15  C   LIG    1       20.015 -31.213  10.831  0.00  0.00    +0.434 C 
ATOM     16  F   LIG    1       19.172 -31.473  11.872  0.00  0.00    -0.164 F 
ATOM     17  F   LIG    1       20.334 -32.423  10.290  0.00  0.00    -0.164 F 
ATOM     18  F   LIG    1       19.244 -30.589   9.890  0.00  0.00    -0.164 F 
ENDBRANCH   9  15
BRANCH   1  19
ATOM     19  C   LIG    1       25.017 -30.641  10.901  0.00  0.00    +0.162 C 
BRANCH  19  20
ATOM     20  C   LIG    1       25.693 -29.946   9.665  0.00  0.00    +0.087 C 
ATOM     21  N   LIG    1       26.947 -30.620   9.227  0.00  0.00    -0.311 NA
ATOM     22  H   LIG    1       27.488 -29.938   8.691  0.00  0.00    +0.122 HD
ATOM     23  C   LIG    1       26.750 -31.788   8.357  0.00  0.00    +0.081 C 
ATOM     24  C   LIG    1       25.839 -31.523   7.164  0.00  0.00    +0.015 C 
ATOM     25  C   LIG    1       24.519 -30.901   7.594  0.00  0.00    +0.003 C 
ATOM     26  C   LIG    1       24.775 -29.674   8.457  0.00  0.00    +0.021 C 
ENDBRANCH  19  20
BRANCH  19  27
ATOM     27  O   LIG    1       24.901 -32.056  10.718  0.00  0.00    -0.386 OA
ATOM     28  H   LIG    1       24.452 -32.380  11.517  0.00  0.00    +0.210 HD
ENDBRANCH  19  27
ENDBRANCH   1  19
TORSDOF 5
ENDMDL
MODEL 9
REMARK VINA RESULT:      -6.3      9.568     10.596
REMARK  Name = *****
REMARK                            x       y       z     vdW  Elec       q    Type
REMARK                         _______ _______ _______ _____ _____    ______ ____
ROOT
ATOM      1  C   LIG    1       23.442 -29.082  12.172  0.00  0.00    -0.006 A 
ATOM      2  C   LIG    1       24.562 -28.270  12.514  0.00  0.00    +0.007 A 
ATOM      3  C   LIG    1       25.905 -28.623  12.244  0.00  0.00    +0.010 A 
ATOM      4  C   LIG    1       26.967 -27.812  12.631  0.00  0.00    +0.001 A 
ATOM      5  C   LIG    1       26.708 -26.621  13.289  0.00  0.00    +0.014 A 
ATOM      6  C   LIG    1       25.384 -26.229  13.562  0.00  0.00    +0.081 A 
ATOM      7  C   LIG    1       24.312 -27.038  13.185  0.00  0.00    +0.084 A 
ATOM      8  N   LIG    1       23.068 -26.641  13.477  0.00  0.00    -0.242 NA
ATOM      9  C   LIG    1       21.995 -27.409  13.152  0.00  0.00    +0.145 A 
ATOM     10  C   LIG    1       22.156 -28.617  12.491  0.00  0.00    +0.039 A 
ENDROOT
BRANCH   6  11
ATOM     11  C   LIG    1       25.190 -24.912  14.276  0.00  0.00    +0.419 C 
ATOM     12  F   LIG    1       24.752 -23.941  13.418  0.00  0.00    -0.166 F 
ATOM     13  F   LIG    1       26.372 -24.434  14.771  0.00  0.00    -0.166 F 
ATOM     14  F   LIG    1       24.325 -24.880  15.323  0.00  0.00    -0.166 F 
ENDBRANCH   6  11
BRANCH   9  15
ATOM     15  C   LIG    1       20.606 -26.937  13.560  0.00  0.00    +0.434 C 
ATOM     16  F   LIG    1       20.599 -26.253  14.741  0.00  0.00    -0.164 F 
ATOM     17  F   LIG    1       19.718 -27.961  13.710  0.00  0.00    -0.164 F 
ATOM     18  F   LIG    1       20.032 -26.092  12.651  0.00  0.00    -0.164 F 
ENDBRANCH   9  15
BRANCH   1  19
ATOM     19  C   LIG    1       23.570 -30.465  11.531  0.00  0.00    +0.162 C 
BRANCH  19  20
ATOM     20  C   LIG    1       22.671 -30.702  10.265  0.00  0.00    +0.087 C 
ATOM     21  N   LIG    1       23.286 -30.196   9.006  0.00  0.00    -0.311 NA
ATOM     22  H   LIG    1       22.531 -30.061   8.331  0.00  0.00    +0.122 HD
ATOM     23  C   LIG    1       24.257 -31.108   8.383  0.00  0.00    +0.081 C 
ATOM     24  C   LIG    1       23.738 -32.529   8.194  0.00  0.00    +0.015 C 
ATOM     25  C   LIG    1       23.170 -33.094   9.486  0.00  0.00    +0.003 C 
ATOM     26  C   LIG    1       22.141 -32.136  10.070  0.00  0.00    +0.021 C 
ENDBRANCH  19  20
BRANCH  19  27
ATOM     27  O   LIG    1       23.331 -31.447  12.544  0.00  0.00    -0.386 OA
ATOM     28  H   LIG    1       24.205 -31.820  12.748  0.00  0.00    +0.210 HD
ENDBRANCH  19  27
ENDBRANCH   1  19
TORSDOF 5
ENDMDL
