MODEL 1
REMARK VINA RESULT:      -6.3      0.000      0.000
REMARK  Name = *****
REMARK                            x       y       z     vdW  Elec       q    Type
REMARK                         _______ _______ _______ _____ _____    ______ ____
ROOT
ATOM      1  C   LIG    1       30.478 -19.477   7.543  0.00  0.00    +0.068 A 
ATOM      2  C   LIG    1       29.655 -20.587   7.749  0.00  0.00    +0.031 A 
ATOM      3  C   LIG    1       28.582 -20.839   6.891  0.00  0.00    +0.047 A 
ATOM      4  C   LIG    1       28.325 -19.968   5.838  0.00  0.00    +0.117 A 
ATOM      5  C   LIG    1       29.120 -18.845   5.631  0.00  0.00    +0.047 A 
ATOM      6  C   LIG    1       30.194 -18.599   6.491  0.00  0.00    +0.031 A 
ENDROOT
BRANCH   1   9
ATOM      7  C   LIG    1       30.144 -17.569   9.685  0.00  0.00    +0.109 C 
ATOM      8  C   LIG    1       31.382 -18.357   9.363  0.00  0.00    +0.184 C 
ATOM      9  N   LIG    1       31.546 -19.210   8.407  0.00  0.00    -0.218 NA
BRANCH   8  10
ATOM     10  O   LIG    1       32.434 -18.099  10.163  0.00  0.00    -0.496 OA
ATOM     11  H   LIG    1       32.361 -18.507  11.039  0.00  0.00    +0.293 HD
ENDBRANCH   8  10
ENDBRANCH   1   9
BRANCH   4  12
ATOM     12  O   LIG    1       27.268 -20.249   5.026  0.00  0.00    -0.507 OA
ATOM     13  H   LIG    1       26.855 -19.413   4.756  0.00  0.00    +0.292 HD
ENDBRANCH   4  12
TORSDOF 3
ENDMDL
MODEL 2
REMARK VINA RESULT:      -6.2      4.289      5.410
REMARK  Name = *****
REMARK                            x       y       z     vdW  Elec       q    Type
REMARK                         _______ _______ _______ _____ _____    ______ ____
ROOT
ATOM      1  C   LIG    1       25.721 -21.762   7.992  0.00  0.00    +0.068 A 
ATOM      2  C   LIG    1       25.876 -23.075   7.538  0.00  0.00    +0.031 A 
ATOM      3  C   LIG    1       24.795 -23.761   6.982  0.00  0.00    +0.047 A 
ATOM      4  C   LIG    1       23.555 -23.137   6.897  0.00  0.00    +0.117 A 
ATOM      5  C   LIG    1       23.376 -21.840   7.365  0.00  0.00    +0.047 A 
ATOM      6  C   LIG    1       24.462 -21.157   7.919  0.00  0.00    +0.031 A 
ENDROOT
BRANCH   1   9
ATOM      7  C   LIG    1       27.518 -20.256   6.307  0.00  0.00    +0.109 C 
ATOM      8  C   LIG    1       27.590 -20.400   7.800  0.00  0.00    +0.184 C 
ATOM      9  N   LIG    1       26.796 -21.074   8.565  0.00  0.00    -0.218 NA
BRANCH   8  10
ATOM     10  O   LIG    1       28.631 -19.768   8.375  0.00  0.00    -0.496 OA
ATOM     11  H   LIG    1       28.832 -20.089   9.266  0.00  0.00    +0.293 HD
ENDBRANCH   8  10
ENDBRANCH   1   9
BRANCH   4  12
ATOM     12  O   LIG    1       22.527 -23.843   6.349  0.00  0.00    -0.507 OA
ATOM     13  H   LIG    1       22.513 -23.678   5.392  0.00  0.00    +0.292 HD
ENDBRANCH   4  12
TORSDOF 3
ENDMDL
MODEL 3
REMARK VINA RESULT:      -6.2      4.282      5.505
REMARK  Name = *****
REMARK                            x       y       z     vdW  Elec       q    Type
REMARK                         _______ _______ _______ _____ _____    ______ ____
ROOT
ATOM      1  C   LIG    1       25.747 -21.857   8.014  0.00  0.00    +0.068 A 
ATOM      2  C   LIG    1       24.485 -21.266   7.910  0.00  0.00    +0.031 A 
ATOM      3  C   LIG    1       23.421 -21.969   7.341  0.00  0.00    +0.047 A 
ATOM      4  C   LIG    1       23.628 -23.258   6.862  0.00  0.00    +0.117 A 
ATOM      5  C   LIG    1       24.883 -23.854   6.936  0.00  0.00    +0.047 A 
ATOM      6  C   LIG    1       25.943 -23.146   7.508  0.00  0.00    +0.031 A 
ENDROOT
BRANCH   1   9
ATOM      7  C   LIG    1       27.454 -20.270   6.309  0.00  0.00    +0.109 C 
ATOM      8  C   LIG    1       27.575 -20.445   7.796  0.00  0.00    +0.184 C 
ATOM      9  N   LIG    1       26.821 -21.154   8.569  0.00  0.00    -0.218 NA
BRANCH   8  10
ATOM     10  O   LIG    1       28.618 -19.799   8.353  0.00  0.00    -0.496 OA
ATOM     11  H   LIG    1       28.683 -18.870   8.086  0.00  0.00    +0.293 HD
ENDBRANCH   8  10
ENDBRANCH   1   9
BRANCH   4  12
ATOM     12  O   LIG    1       22.564 -23.908   6.313  0.00  0.00    -0.507 OA
ATOM     13  H   LIG    1       22.505 -23.668   5.374  0.00  0.00    +0.292 HD
ENDBRANCH   4  12
TORSDOF 3
ENDMDL
MODEL 4
REMARK VINA RESULT:      -6.0      4.778      7.054
REMARK  Name = *****
REMARK                            x       y       z     vdW  Elec       q    Type
REMARK                         _______ _______ _______ _____ _____    ______ ____
ROOT
ATOM      1  C   LIG    1       24.577 -21.341   6.482  0.00  0.00    +0.068 A 
ATOM      2  C   LIG    1       24.662 -21.269   7.875  0.00  0.00    +0.031 A 
ATOM      3  C   LIG    1       25.816 -20.774   8.487  0.00  0.00    +0.047 A 
ATOM      4  C   LIG    1       26.889 -20.367   7.703  0.00  0.00    +0.117 A 
ATOM      5  C   LIG    1       26.831 -20.452   6.316  0.00  0.00    +0.047 A 
ATOM      6  C   LIG    1       25.674 -20.947   5.709  0.00  0.00    +0.031 A 
ENDROOT
BRANCH   1   9
ATOM      7  C   LIG    1       22.635 -19.527   5.352  0.00  0.00    +0.109 C 
ATOM      8  C   LIG    1       22.573 -21.028   5.357  0.00  0.00    +0.184 C 
ATOM      9  N   LIG    1       23.432 -21.850   5.862  0.00  0.00    -0.218 NA
BRANCH   8  10
ATOM     10  O   LIG    1       21.466 -21.545   4.789  0.00  0.00    -0.496 OA
ATOM     11  H   LIG    1       20.805 -20.876   4.556  0.00  0.00    +0.293 HD
ENDBRANCH   8  10
ENDBRANCH   1   9
BRANCH   4  12
ATOM     12  O   LIG    1       27.995 -19.891   8.340  0.00  0.00    -0.507 OA
ATOM     13  H   LIG    1       28.049 -18.933   8.194  0.00  0.00    +0.292 HD
ENDBRANCH   4  12
TORSDOF 3
ENDMDL
MODEL 5
REMARK VINA RESULT:      -5.9      4.620      6.971
REMARK  Name = *****
REMARK                            x       y       z     vdW  Elec       q    Type
REMARK                         _______ _______ _______ _____ _____    ______ ____
ROOT
ATOM      1  C   LIG    1       24.740 -21.454   7.019  0.00  0.00    +0.068 A 
ATOM      2  C   LIG    1       25.359 -20.950   5.872  0.00  0.00    +0.031 A 
ATOM      3  C   LIG    1       26.632 -20.380   5.949  0.00  0.00    +0.047 A 
ATOM      4  C   LIG    1       27.275 -20.301   7.179  0.00  0.00    +0.117 A 
ATOM      5  C   LIG    1       26.665 -20.776   8.335  0.00  0.00    +0.047 A 
ATOM      6  C   LIG    1       25.392 -21.347   8.252  0.00  0.00    +0.031 A 
ENDROOT
BRANCH   1   9
ATOM      7  C   LIG    1       24.436 -24.291   6.579  0.00  0.00    +0.109 C 
ATOM      8  C   LIG    1       23.337 -23.284   6.759  0.00  0.00    +0.184 C 
ATOM      9  N   LIG    1       23.459 -22.012   6.952  0.00  0.00    -0.218 NA
BRANCH   8  10
ATOM     10  O   LIG    1       22.092 -23.790   6.672  0.00  0.00    -0.496 OA
ATOM     11  H   LIG    1       21.862 -24.097   5.783  0.00  0.00    +0.293 HD
ENDBRANCH   8  10
ENDBRANCH   1   9
BRANCH   4  12
ATOM     12  O   LIG    1       28.515 -19.736   7.210  0.00  0.00    -0.507 OA
ATOM     13  H   LIG    1       28.930 -19.949   8.062  0.00  0.00    +0.292 HD
ENDBRANCH   4  12
TORSDOF 3
ENDMDL
MODEL 6
REMARK VINA RESULT:      -5.9      4.635      6.880
REMARK  Name = *****
REMARK                            x       y       z     vdW  Elec       q    Type
REMARK                         _______ _______ _______ _____ _____    ______ ____
ROOT
ATOM      1  C   LIG    1       24.691 -21.407   7.046  0.00  0.00    +0.068 A 
ATOM      2  C   LIG    1       25.369 -21.331   8.265  0.00  0.00    +0.031 A 
ATOM      3  C   LIG    1       26.645 -20.767   8.329  0.00  0.00    +0.047 A 
ATOM      4  C   LIG    1       27.246 -20.295   7.168  0.00  0.00    +0.117 A 
ATOM      5  C   LIG    1       26.596 -20.383   5.942  0.00  0.00    +0.047 A 
ATOM      6  C   LIG    1       25.318 -20.946   5.884  0.00  0.00    +0.031 A 
ENDROOT
BRANCH   1   9
ATOM      7  C   LIG    1       24.431 -24.248   6.602  0.00  0.00    +0.109 C 
ATOM      8  C   LIG    1       23.317 -23.257   6.776  0.00  0.00    +0.184 C 
ATOM      9  N   LIG    1       23.419 -21.984   6.971  0.00  0.00    -0.218 NA
BRANCH   8  10
ATOM     10  O   LIG    1       22.080 -23.782   6.682  0.00  0.00    -0.496 OA
ATOM     11  H   LIG    1       21.394 -23.226   7.080  0.00  0.00    +0.293 HD
ENDBRANCH   8  10
ENDBRANCH   1   9
BRANCH   4  12
ATOM     12  O   LIG    1       28.492 -19.753   7.275  0.00  0.00    -0.507 OA
ATOM     13  H   LIG    1       29.143 -20.420   7.002  0.00  0.00    +0.292 HD
ENDBRANCH   4  12
TORSDOF 3
ENDMDL
MODEL 7
REMARK VINA RESULT:      -5.8      1.878      4.590
REMARK  Name = *****
REMARK                            x       y       z     vdW  Elec       q    Type
REMARK                         _______ _______ _______ _____ _____    ______ ____
ROOT
ATOM      1  C   LIG    1       29.048 -20.060   6.709  0.00  0.00    +0.068 A 
ATOM      2  C   LIG    1       29.527 -21.099   7.511  0.00  0.00    +0.031 A 
ATOM      3  C   LIG    1       30.560 -20.870   8.421  0.00  0.00    +0.047 A 
ATOM      4  C   LIG    1       31.124 -19.603   8.516  0.00  0.00    +0.117 A 
ATOM      5  C   LIG    1       30.677 -18.561   7.709  0.00  0.00    +0.047 A 
ATOM      6  C   LIG    1       29.641 -18.796   6.801  0.00  0.00    +0.031 A 
ENDROOT
BRANCH   1   9
ATOM      7  C   LIG    1       26.337 -20.423   7.634  0.00  0.00    +0.109 C 
ATOM      8  C   LIG    1       26.815 -20.442   6.211  0.00  0.00    +0.184 C 
ATOM      9  N   LIG    1       28.024 -20.285   5.784  0.00  0.00    -0.218 NA
BRANCH   8  10
ATOM     10  O   LIG    1       25.852 -20.684   5.299  0.00  0.00    -0.496 OA
ATOM     11  H   LIG    1       26.199 -20.897   4.421  0.00  0.00    +0.293 HD
ENDBRANCH   8  10
ENDBRANCH   1   9
BRANCH   4  12
ATOM     12  O   LIG    1       32.131 -19.422   9.415  0.00  0.00    -0.507 OA
ATOM     13  H   LIG    1       32.364 -18.480   9.435  0.00  0.00    +0.292 HD
ENDBRANCH   4  12
TORSDOF 3
ENDMDL
MODEL 8
REMARK VINA RESULT:      -5.8      6.719      8.218
REMARK  Name = *****
REMARK                            x       y       z     vdW  Elec       q    Type
REMARK                         _______ _______ _______ _____ _____    ______ ____
ROOT
ATOM      1  C   LIG    1       25.186 -24.608   5.951  0.00  0.00    +0.068 A 
ATOM      2  C   LIG    1       25.878 -23.538   6.524  0.00  0.00    +0.031 A 
ATOM      3  C   LIG    1       25.190 -22.544   7.221  0.00  0.00    +0.047 A 
ATOM      4  C   LIG    1       23.805 -22.614   7.329  0.00  0.00    +0.117 A 
ATOM      5  C   LIG    1       23.097 -23.660   6.746  0.00  0.00    +0.047 A 
ATOM      6  C   LIG    1       23.791 -24.653   6.052  0.00  0.00    +0.031 A 
ENDROOT
BRANCH   1   9
ATOM      7  C   LIG    1       25.969 -27.048   7.284  0.00  0.00    +0.109 C 
ATOM      8  C   LIG    1       26.208 -26.689   5.845  0.00  0.00    +0.184 C 
ATOM      9  N   LIG    1       25.867 -25.601   5.238  0.00  0.00    -0.218 NA
BRANCH   8  10
ATOM     10  O   LIG    1       26.887 -27.616   5.142  0.00  0.00    -0.496 OA
ATOM     11  H   LIG    1       27.835 -27.629   5.337  0.00  0.00    +0.293 HD
ENDBRANCH   8  10
ENDBRANCH   1   9
BRANCH   4  12
ATOM     12  O   LIG    1       23.172 -21.623   8.016  0.00  0.00    -0.507 OA
ATOM     13  H   LIG    1       23.794 -20.887   8.141  0.00  0.00    +0.292 HD
ENDBRANCH   4  12
TORSDOF 3
ENDMDL
MODEL 9
REMARK VINA RESULT:      -5.7      1.486      2.258
REMARK  Name = *****
REMARK                            x       y       z     vdW  Elec       q    Type
REMARK                         _______ _______ _______ _____ _____    ______ ____
ROOT
ATOM      1  C   LIG    1       29.132 -20.591   7.464  0.00  0.00    +0.068 A 
ATOM      2  C   LIG    1       28.942 -19.961   6.231  0.00  0.00    +0.031 A 
ATOM      3  C   LIG    1       27.673 -19.915   5.650  0.00  0.00    +0.047 A 
ATOM      4  C   LIG    1       26.599 -20.514   6.298  0.00  0.00    +0.117 A 
ATOM      5  C   LIG    1       26.773 -21.166   7.514  0.00  0.00    +0.047 A 
ATOM      6  C   LIG    1       28.045 -21.208   8.092  0.00  0.00    +0.031 A 
ENDROOT
BRANCH   1   9
ATOM      7  C   LIG    1       30.150 -18.326   8.937  0.00  0.00    +0.109 C 
ATOM      8  C   LIG    1       30.845 -19.637   8.704  0.00  0.00    +0.184 C 
ATOM      9  N   LIG    1       30.403 -20.656   8.045  0.00  0.00    -0.218 NA
BRANCH   8  10
ATOM     10  O   LIG    1       32.082 -19.716   9.231  0.00  0.00    -0.496 OA
ATOM     11  H   LIG    1       32.425 -20.621   9.272  0.00  0.00    +0.293 HD
ENDBRANCH   8  10
ENDBRANCH   1   9
BRANCH   4  12
ATOM     12  O   LIG    1       25.379 -20.447   5.696  0.00  0.00    -0.507 OA
ATOM     13  H   LIG    1       25.502 -20.153   4.778  0.00  0.00    +0.292 HD
ENDBRANCH   4  12
TORSDOF 3
ENDMDL
