MODEL 1
REMARK VINA RESULT:      -8.3      0.000      0.000
REMARK  Name = *****
REMARK                            x       y       z     vdW  Elec       q    Type
REMARK                         _______ _______ _______ _____ _____    ______ ____
ROOT
ATOM      1  N   LIG    1       24.924 -22.852   6.901  0.00  0.00    +0.249 N 
ATOM      2  C   LIG    1       25.456 -22.044   5.677  0.00  0.00    +0.102 C 
ATOM      3  C   LIG    1       24.293 -21.188   5.196  0.00  0.00    +0.201 C 
ATOM      4  C   LIG    1       23.423 -20.960   6.394  0.00  0.00    +0.201 C 
ATOM      5  O   LIG    1       24.120 -19.887   5.757  0.00  0.00    -0.357 OA
ATOM      6  C   LIG    1       26.631 -21.172   6.163  0.00  0.00    +0.102 C 
ATOM      7  C   LIG    1       26.313 -20.285   7.399  0.00  0.00    +0.187 C 
ATOM      8  C   LIG    1       25.083 -20.702   8.244  0.00  0.00    +0.102 C 
ATOM      9  C   LIG    1       24.108 -21.668   7.550  0.00  0.00    +0.102 C 
ATOM     10  C   LIG    1       25.993 -23.470   7.797  0.00  0.00    +0.193 C 
ENDROOT
BRANCH   1  11
ATOM     11  C   LIG    1       23.952 -24.014   6.493  0.00  0.00    +0.133 C 
BRANCH  11  12
ATOM     12  C   LIG    1       24.645 -25.386   6.355  0.00  0.00    +0.051 C 
BRANCH  12  14
ATOM     13  C   LIG    1       26.004 -26.942   4.860  0.00  0.00    +0.004 C 
ATOM     14  C   LIG    1       25.191 -25.662   4.945  0.00  0.00    +0.002 C 
ENDBRANCH  12  14
ENDBRANCH  11  12
ENDBRANCH   1  11
BRANCH   7  15
ATOM     15  O   LIG    1       27.446 -20.332   8.301  0.00  0.00    -0.461 OA
BRANCH  15  16
ATOM     16  C   LIG    1       28.699 -20.384   7.740  0.00  0.00    +0.317 C 
ATOM     17  O   LIG    1       29.252 -21.421   7.431  0.00  0.00    -0.250 OA
BRANCH  16  18
ATOM     18  C   LIG    1       29.240 -18.986   7.416  0.00  0.00    +0.153 C 
BRANCH  18  19
ATOM     19  C   LIG    1       30.143 -18.375   8.480  0.00  0.00    -0.032 A 
ATOM     20  C   LIG    1       29.641 -18.037   9.748  0.00  0.00    +0.004 A 
ATOM     21  C   LIG    1       30.442 -17.393  10.686  0.00  0.00    +0.000 A 
ATOM     22  C   LIG    1       31.775 -17.123  10.393  0.00  0.00    +0.000 A 
ATOM     23  C   LIG    1       32.312 -17.524   9.171  0.00  0.00    +0.000 A 
ATOM     24  C   LIG    1       31.503 -18.147   8.217  0.00  0.00    +0.004 A 
ENDBRANCH  18  19
BRANCH  18  25
ATOM     25  C   LIG    1       29.894 -18.986   6.028  0.00  0.00    +0.175 C 
BRANCH  25  26
ATOM     26  O   LIG    1       29.469 -17.879   5.239  0.00  0.00    -0.394 OA
ATOM     27  H   LIG    1       30.256 -17.510   4.799  0.00  0.00    +0.209 HD
ENDBRANCH  25  26
ENDBRANCH  18  25
ENDBRANCH  16  18
ENDBRANCH  15  16
ENDBRANCH   7  15
TORSDOF 9
ENDMDL
MODEL 2
REMARK VINA RESULT:      -8.3      1.748      3.350
REMARK  Name = *****
REMARK                            x       y       z     vdW  Elec       q    Type
REMARK                         _______ _______ _______ _____ _____    ______ ____
ROOT
ATOM      1  N   LIG    1       24.944 -21.056   5.717  0.00  0.00    +0.249 N 
ATOM      2  C   LIG    1       24.905 -20.457   7.157  0.00  0.00    +0.102 C 
ATOM      3  C   LIG    1       24.154 -21.465   8.015  0.00  0.00    +0.201 C 
ATOM      4  C   LIG    1       24.358 -22.798   7.364  0.00  0.00    +0.201 C 
ATOM      5  O   LIG    1       24.891 -22.505   8.657  0.00  0.00    -0.357 OA
ATOM      6  C   LIG    1       26.360 -20.286   7.635  0.00  0.00    +0.102 C 
ATOM      7  C   LIG    1       27.235 -21.565   7.521  0.00  0.00    +0.187 C 
ATOM      8  C   LIG    1       26.720 -22.665   6.558  0.00  0.00    +0.102 C 
ATOM      9  C   LIG    1       25.241 -22.542   6.155  0.00  0.00    +0.102 C 
ATOM     10  C   LIG    1       25.974 -20.440   4.775  0.00  0.00    +0.193 C 
ENDROOT
BRANCH   1  11
ATOM     11  C   LIG    1       23.559 -20.979   4.983  0.00  0.00    +0.133 C 
BRANCH  11  12
ATOM     12  C   LIG    1       22.689 -19.783   5.420  0.00  0.00    +0.051 C 
BRANCH  12  14
ATOM     13  C   LIG    1       22.265 -17.397   4.625  0.00  0.00    +0.004 C 
ATOM     14  C   LIG    1       22.265 -18.870   4.258  0.00  0.00    +0.002 C 
ENDBRANCH  12  14
ENDBRANCH  11  12
ENDBRANCH   1  11
BRANCH   7  15
ATOM     15  O   LIG    1       28.542 -21.185   7.024  0.00  0.00    -0.461 OA
BRANCH  15  16
ATOM     16  C   LIG    1       29.407 -20.592   7.910  0.00  0.00    +0.317 C 
ATOM     17  O   LIG    1       29.981 -21.199   8.793  0.00  0.00    -0.250 OA
BRANCH  16  18
ATOM     18  C   LIG    1       29.675 -19.124   7.557  0.00  0.00    +0.153 C 
BRANCH  18  19
ATOM     19  C   LIG    1       30.423 -18.325   8.617  0.00  0.00    -0.032 A 
ATOM     20  C   LIG    1       29.787 -17.927   9.805  0.00  0.00    +0.004 A 
ATOM     21  C   LIG    1       30.442 -17.119  10.730  0.00  0.00    +0.000 A 
ATOM     22  C   LIG    1       31.761 -16.738  10.508  0.00  0.00    +0.000 A 
ATOM     23  C   LIG    1       32.434 -17.190   9.374  0.00  0.00    +0.000 A 
ATOM     24  C   LIG    1       31.771 -17.980   8.431  0.00  0.00    +0.004 A 
ENDBRANCH  18  19
BRANCH  18  25
ATOM     25  C   LIG    1       30.341 -19.029   6.179  0.00  0.00    +0.175 C 
BRANCH  25  26
ATOM     26  O   LIG    1       29.723 -18.046   5.354  0.00  0.00    -0.394 OA
ATOM     27  H   LIG    1       28.979 -17.667   5.854  0.00  0.00    +0.209 HD
ENDBRANCH  25  26
ENDBRANCH  18  25
ENDBRANCH  16  18
ENDBRANCH  15  16
ENDBRANCH   7  15
TORSDOF 9
ENDMDL
MODEL 3
REMARK VINA RESULT:      -7.9      3.299      7.835
REMARK  Name = *****
REMARK                            x       y       z     vdW  Elec       q    Type
REMARK                         _______ _______ _______ _____ _____    ______ ____
ROOT
ATOM      1  N   LIG    1       25.319 -21.643   7.175  0.00  0.00    +0.249 N 
ATOM      2  C   LIG    1       23.785 -21.371   7.257  0.00  0.00    +0.102 C 
ATOM      3  C   LIG    1       23.428 -20.583   6.004  0.00  0.00    +0.201 C 
ATOM      4  C   LIG    1       24.442 -20.965   4.971  0.00  0.00    +0.201 C 
ATOM      5  O   LIG    1       23.061 -21.298   4.825  0.00  0.00    -0.357 OA
ATOM      6  C   LIG    1       23.066 -22.733   7.287  0.00  0.00    +0.102 C 
ATOM      7  C   LIG    1       23.462 -23.702   6.138  0.00  0.00    +0.187 C 
ATOM      8  C   LIG    1       24.799 -23.398   5.415  0.00  0.00    +0.102 C 
ATOM      9  C   LIG    1       25.355 -21.981   5.635  0.00  0.00    +0.102 C 
ATOM     10  C   LIG    1       25.842 -22.745   8.092  0.00  0.00    +0.193 C 
ENDROOT
BRANCH   1  11
ATOM     11  C   LIG    1       26.185 -20.367   7.466  0.00  0.00    +0.133 C 
BRANCH  11  12
ATOM     12  C   LIG    1       27.617 -20.682   7.945  0.00  0.00    +0.051 C 
BRANCH  12  14
ATOM     13  C   LIG    1       28.255 -19.692   5.682  0.00  0.00    +0.004 C 
ATOM     14  C   LIG    1       28.674 -20.592   6.832  0.00  0.00    +0.002 C 
ENDBRANCH  12  14
ENDBRANCH  11  12
ENDBRANCH   1  11
BRANCH   7  15
ATOM     15  O   LIG    1       23.606 -25.034   6.690  0.00  0.00    -0.461 OA
BRANCH  15  16
ATOM     16  C   LIG    1       24.348 -25.939   5.972  0.00  0.00    +0.317 C 
ATOM     17  O   LIG    1       24.116 -26.227   4.814  0.00  0.00    -0.250 OA
BRANCH  16  18
ATOM     18  C   LIG    1       25.581 -26.417   6.750  0.00  0.00    +0.153 C 
BRANCH  18  19
ATOM     19  C   LIG    1       25.446 -27.787   7.404  0.00  0.00    -0.032 A 
ATOM     20  C   LIG    1       24.507 -28.722   6.937  0.00  0.00    +0.004 A 
ATOM     21  C   LIG    1       24.319 -29.935   7.593  0.00  0.00    +0.000 A 
ATOM     22  C   LIG    1       25.104 -30.258   8.695  0.00  0.00    +0.000 A 
ATOM     23  C   LIG    1       26.096 -29.377   9.123  0.00  0.00    +0.000 A 
ATOM     24  C   LIG    1       26.269 -28.147   8.482  0.00  0.00    +0.004 A 
ENDBRANCH  18  19
BRANCH  18  25
ATOM     25  C   LIG    1       26.831 -26.314   5.867  0.00  0.00    +0.175 C 
BRANCH  25  26
ATOM     26  O   LIG    1       26.872 -27.340   4.880  0.00  0.00    -0.394 OA
ATOM     27  H   LIG    1       26.840 -26.911   4.006  0.00  0.00    +0.209 HD
ENDBRANCH  25  26
ENDBRANCH  18  25
ENDBRANCH  16  18
ENDBRANCH  15  16
ENDBRANCH   7  15
TORSDOF 9
ENDMDL
MODEL 4
REMARK VINA RESULT:      -7.8      4.098      8.208
REMARK  Name = *****
REMARK                            x       y       z     vdW  Elec       q    Type
REMARK                         _______ _______ _______ _____ _____    ______ ____
ROOT
ATOM      1  N   LIG    1       24.552 -21.367   5.387  0.00  0.00    +0.249 N 
ATOM      2  C   LIG    1       25.730 -21.851   6.289  0.00  0.00    +0.102 C 
ATOM      3  C   LIG    1       25.575 -21.120   7.615  0.00  0.00    +0.201 C 
ATOM      4  C   LIG    1       24.116 -20.813   7.752  0.00  0.00    +0.201 C 
ATOM      5  O   LIG    1       24.779 -21.717   8.639  0.00  0.00    -0.357 OA
ATOM      6  C   LIG    1       25.591 -23.375   6.468  0.00  0.00    +0.102 C 
ATOM      7  C   LIG    1       24.197 -23.846   6.967  0.00  0.00    +0.187 C 
ATOM      8  C   LIG    1       23.028 -22.844   6.783  0.00  0.00    +0.102 C 
ATOM      9  C   LIG    1       23.449 -21.389   6.515  0.00  0.00    +0.102 C 
ATOM     10  C   LIG    1       24.253 -22.239   4.172  0.00  0.00    +0.193 C 
ENDROOT
BRANCH   1  11
ATOM     11  C   LIG    1       24.748 -19.904   4.855  0.00  0.00    +0.133 C 
BRANCH  11  12
ATOM     12  C   LIG    1       23.662 -19.455   3.856  0.00  0.00    +0.051 C 
BRANCH  12  14
ATOM     13  C   LIG    1       22.236 -17.456   4.549  0.00  0.00    +0.004 C 
ATOM     14  C   LIG    1       22.368 -18.969   4.529  0.00  0.00    +0.002 C 
ENDBRANCH  12  14
ENDBRANCH  11  12
ENDBRANCH   1  11
BRANCH   7  15
ATOM     15  O   LIG    1       23.820 -25.033   6.226  0.00  0.00    -0.461 OA
BRANCH  15  16
ATOM     16  C   LIG    1       24.813 -25.695   5.546  0.00  0.00    +0.317 C 
ATOM     17  O   LIG    1       25.044 -25.526   4.365  0.00  0.00    -0.250 OA
BRANCH  16  18
ATOM     18  C   LIG    1       25.680 -26.545   6.483  0.00  0.00    +0.153 C 
BRANCH  18  19
ATOM     19  C   LIG    1       25.139 -27.936   6.786  0.00  0.00    -0.032 A 
ATOM     20  C   LIG    1       25.434 -28.578   8.001  0.00  0.00    +0.004 A 
ATOM     21  C   LIG    1       25.018 -29.885   8.238  0.00  0.00    +0.000 A 
ATOM     22  C   LIG    1       24.254 -30.554   7.288  0.00  0.00    +0.000 A 
ATOM     23  C   LIG    1       23.883 -29.905   6.112  0.00  0.00    +0.000 A 
ATOM     24  C   LIG    1       24.321 -28.602   5.859  0.00  0.00    +0.004 A 
ENDBRANCH  18  19
BRANCH  18  25
ATOM     25  C   LIG    1       27.125 -26.582   5.969  0.00  0.00    +0.175 C 
BRANCH  25  26
ATOM     26  O   LIG    1       27.236 -27.296   4.741  0.00  0.00    -0.394 OA
ATOM     27  H   LIG    1       26.445 -27.094   4.210  0.00  0.00    +0.209 HD
ENDBRANCH  25  26
ENDBRANCH  18  25
ENDBRANCH  16  18
ENDBRANCH  15  16
ENDBRANCH   7  15
TORSDOF 9
ENDMDL
MODEL 5
REMARK VINA RESULT:      -7.8      3.769      7.986
REMARK  Name = *****
REMARK                            x       y       z     vdW  Elec       q    Type
REMARK                         _______ _______ _______ _____ _____    ______ ____
ROOT
ATOM      1  N   LIG    1       23.761 -22.076   6.581  0.00  0.00    +0.249 N 
ATOM      2  C   LIG    1       24.746 -22.186   5.375  0.00  0.00    +0.102 C 
ATOM      3  C   LIG    1       25.853 -21.175   5.640  0.00  0.00    +0.201 C 
ATOM      4  C   LIG    1       25.921 -21.014   7.127  0.00  0.00    +0.201 C 
ATOM      5  O   LIG    1       26.997 -21.591   6.386  0.00  0.00    -0.357 OA
ATOM      6  C   LIG    1       25.295 -23.626   5.344  0.00  0.00    +0.102 C 
ATOM      7  C   LIG    1       25.904 -24.116   6.687  0.00  0.00    +0.187 C 
ATOM      8  C   LIG    1       25.487 -23.331   7.958  0.00  0.00    +0.102 C 
ATOM      9  C   LIG    1       24.867 -21.948   7.698  0.00  0.00    +0.102 C 
ATOM     10  C   LIG    1       22.799 -23.247   6.753  0.00  0.00    +0.193 C 
ENDROOT
BRANCH   1  11
ATOM     11  C   LIG    1       22.884 -20.776   6.540  0.00  0.00    +0.133 C 
BRANCH  11  12
ATOM     12  C   LIG    1       22.274 -20.479   5.155  0.00  0.00    +0.051 C 
BRANCH  12  14
ATOM     13  C   LIG    1       23.667 -18.930   3.683  0.00  0.00    +0.004 C 
ATOM     14  C   LIG    1       22.517 -19.041   4.669  0.00  0.00    +0.002 C 
ENDBRANCH  12  14
ENDBRANCH  11  12
ENDBRANCH   1  11
BRANCH   7  15
ATOM     15  O   LIG    1       25.479 -25.484   6.911  0.00  0.00    -0.461 OA
BRANCH  15  16
ATOM     16  C   LIG    1       26.190 -26.477   6.284  0.00  0.00    +0.317 C 
ATOM     17  O   LIG    1       27.305 -26.317   5.828  0.00  0.00    -0.250 OA
BRANCH  16  18
ATOM     18  C   LIG    1       25.477 -27.833   6.367  0.00  0.00    +0.153 C 
BRANCH  18  19
ATOM     19  C   LIG    1       25.496 -28.495   7.739  0.00  0.00    -0.032 A 
ATOM     20  C   LIG    1       24.552 -29.478   8.081  0.00  0.00    +0.004 A 
ATOM     21  C   LIG    1       24.510 -30.014   9.364  0.00  0.00    +0.000 A 
ATOM     22  C   LIG    1       25.446 -29.616  10.314  0.00  0.00    +0.000 A 
ATOM     23  C   LIG    1       26.440 -28.701   9.969  0.00  0.00    +0.000 A 
ATOM     24  C   LIG    1       26.467 -28.142   8.689  0.00  0.00    +0.004 A 
ENDBRANCH  18  19
BRANCH  18  25
ATOM     25  C   LIG    1       24.058 -27.715   5.797  0.00  0.00    +0.175 C 
BRANCH  25  26
ATOM     26  O   LIG    1       23.727 -28.819   4.960  0.00  0.00    -0.394 OA
ATOM     27  H   LIG    1       22.826 -29.106   5.193  0.00  0.00    +0.209 HD
ENDBRANCH  25  26
ENDBRANCH  18  25
ENDBRANCH  16  18
ENDBRANCH  15  16
ENDBRANCH   7  15
TORSDOF 9
ENDMDL
MODEL 6
REMARK VINA RESULT:      -7.7      3.569      7.883
REMARK  Name = *****
REMARK                            x       y       z     vdW  Elec       q    Type
REMARK                         _______ _______ _______ _____ _____    ______ ____
ROOT
ATOM      1  N   LIG    1       23.813 -21.369   6.572  0.00  0.00    +0.249 N 
ATOM      2  C   LIG    1       24.740 -21.730   5.369  0.00  0.00    +0.102 C 
ATOM      3  C   LIG    1       25.870 -20.711   5.385  0.00  0.00    +0.201 C 
ATOM      4  C   LIG    1       26.008 -20.267   6.809  0.00  0.00    +0.201 C 
ATOM      5  O   LIG    1       27.042 -20.998   6.147  0.00  0.00    -0.357 OA
ATOM      6  C   LIG    1       25.269 -23.160   5.594  0.00  0.00    +0.102 C 
ATOM      7  C   LIG    1       25.933 -23.395   6.979  0.00  0.00    +0.187 C 
ATOM      8  C   LIG    1       25.586 -22.370   8.090  0.00  0.00    +0.102 C 
ATOM      9  C   LIG    1       24.971 -21.051   7.594  0.00  0.00    +0.102 C 
ATOM     10  C   LIG    1       22.845 -22.464   7.009  0.00  0.00    +0.193 C 
ENDROOT
BRANCH   1  11
ATOM     11  C   LIG    1       22.951 -20.082   6.318  0.00  0.00    +0.133 C 
BRANCH  11  12
ATOM     12  C   LIG    1       22.348 -20.007   4.900  0.00  0.00    +0.051 C 
BRANCH  12  14
ATOM     13  C   LIG    1       22.201 -17.479   4.590  0.00  0.00    +0.004 C 
ATOM     14  C   LIG    1       22.810 -18.781   4.097  0.00  0.00    +0.002 C 
ENDBRANCH  12  14
ENDBRANCH  11  12
ENDBRANCH   1  11
BRANCH   7  15
ATOM     15  O   LIG    1       25.502 -24.684   7.482  0.00  0.00    -0.461 OA
BRANCH  15  16
ATOM     16  C   LIG    1       25.085 -25.613   6.562  0.00  0.00    +0.317 C 
ATOM     17  O   LIG    1       24.134 -25.445   5.824  0.00  0.00    -0.250 OA
BRANCH  16  18
ATOM     18  C   LIG    1       26.043 -26.807   6.477  0.00  0.00    +0.153 C 
BRANCH  18  19
ATOM     19  C   LIG    1       25.683 -27.996   7.359  0.00  0.00    -0.032 A 
ATOM     20  C   LIG    1       24.674 -28.898   6.982  0.00  0.00    +0.004 A 
ATOM     21  C   LIG    1       24.281 -29.928   7.831  0.00  0.00    +0.000 A 
ATOM     22  C   LIG    1       24.926 -30.107   9.051  0.00  0.00    +0.000 A 
ATOM     23  C   LIG    1       25.984 -29.271   9.407  0.00  0.00    +0.000 A 
ATOM     24  C   LIG    1       26.363 -28.220   8.567  0.00  0.00    +0.004 A 
ENDBRANCH  18  19
BRANCH  18  25
ATOM     25  C   LIG    1       26.247 -27.212   5.011  0.00  0.00    +0.175 C 
BRANCH  25  26
ATOM     26  O   LIG    1       27.625 -27.383   4.693  0.00  0.00    -0.394 OA
ATOM     27  H   LIG    1       28.144 -26.896   5.357  0.00  0.00    +0.209 HD
ENDBRANCH  25  26
ENDBRANCH  18  25
ENDBRANCH  16  18
ENDBRANCH  15  16
ENDBRANCH   7  15
TORSDOF 9
ENDMDL
MODEL 7
REMARK VINA RESULT:      -7.2      2.054      8.050
REMARK  Name = *****
REMARK                            x       y       z     vdW  Elec       q    Type
REMARK                         _______ _______ _______ _____ _____    ______ ____
ROOT
ATOM      1  N   LIG    1       30.370 -18.480   9.103  0.00  0.00    +0.249 N 
ATOM      2  C   LIG    1       29.614 -18.259   7.755  0.00  0.00    +0.102 C 
ATOM      3  C   LIG    1       30.654 -18.416   6.656  0.00  0.00    +0.201 C 
ATOM      4  C   LIG    1       31.710 -19.323   7.209  0.00  0.00    +0.201 C 
ATOM      5  O   LIG    1       30.885 -19.715   6.110  0.00  0.00    -0.357 OA
ATOM      6  C   LIG    1       28.516 -19.336   7.649  0.00  0.00    +0.102 C 
ATOM      7  C   LIG    1       29.017 -20.794   7.846  0.00  0.00    +0.187 C 
ATOM      8  C   LIG    1       30.386 -20.960   8.555  0.00  0.00    +0.102 C 
ATOM      9  C   LIG    1       31.252 -19.691   8.610  0.00  0.00    +0.102 C 
ATOM     10  C   LIG    1       29.488 -18.771  10.313  0.00  0.00    +0.193 C 
ENDROOT
BRANCH   1  11
ATOM     11  C   LIG    1       31.289 -17.270   9.496  0.00  0.00    +0.133 C 
BRANCH  11  12
ATOM     12  C   LIG    1       30.993 -16.693  10.896  0.00  0.00    +0.051 C 
BRANCH  12  14
ATOM     13  C   LIG    1       32.049 -15.894  13.076  0.00  0.00    +0.004 C 
ATOM     14  C   LIG    1       32.173 -16.815  11.875  0.00  0.00    +0.002 C 
ENDBRANCH  12  14
ENDBRANCH  11  12
ENDBRANCH   1  11
BRANCH   7  15
ATOM     15  O   LIG    1       28.057 -21.502   8.669  0.00  0.00    -0.461 OA
BRANCH  15  16
ATOM     16  C   LIG    1       26.727 -21.345   8.366  0.00  0.00    +0.317 C 
ATOM     17  O   LIG    1       25.930 -20.806   9.109  0.00  0.00    -0.250 OA
BRANCH  16  18
ATOM     18  C   LIG    1       26.409 -21.786   6.932  0.00  0.00    +0.153 C 
BRANCH  18  19
ATOM     19  C   LIG    1       25.523 -23.020   6.813  0.00  0.00    -0.032 A 
ATOM     20  C   LIG    1       26.082 -24.302   6.683  0.00  0.00    +0.004 A 
ATOM     21  C   LIG    1       25.275 -25.417   6.480  0.00  0.00    +0.000 A 
ATOM     22  C   LIG    1       23.891 -25.278   6.456  0.00  0.00    +0.000 A 
ATOM     23  C   LIG    1       23.316 -24.025   6.663  0.00  0.00    +0.000 A 
ATOM     24  C   LIG    1       24.125 -22.900   6.842  0.00  0.00    +0.004 A 
ENDBRANCH  18  19
BRANCH  18  25
ATOM     25  C   LIG    1       25.865 -20.599   6.126  0.00  0.00    +0.175 C 
BRANCH  25  26
ATOM     26  O   LIG    1       26.581 -20.408   4.910  0.00  0.00    -0.394 OA
ATOM     27  H   LIG    1       27.035 -21.244   4.700  0.00  0.00    +0.209 HD
ENDBRANCH  25  26
ENDBRANCH  18  25
ENDBRANCH  16  18
ENDBRANCH  15  16
ENDBRANCH   7  15
TORSDOF 9
ENDMDL
MODEL 8
REMARK VINA RESULT:      -7.2      2.155      7.477
REMARK  Name = *****
REMARK                            x       y       z     vdW  Elec       q    Type
REMARK                         _______ _______ _______ _____ _____    ______ ____
ROOT
ATOM      1  N   LIG    1       30.437 -19.944   8.375  0.00  0.00    +0.249 N 
ATOM      2  C   LIG    1       29.270 -18.911   8.287  0.00  0.00    +0.102 C 
ATOM      3  C   LIG    1       29.470 -18.157   6.981  0.00  0.00    +0.201 C 
ATOM      4  C   LIG    1       30.208 -19.090   6.071  0.00  0.00    +0.201 C 
ATOM      5  O   LIG    1       28.871 -18.671   5.792  0.00  0.00    -0.357 OA
ATOM      6  C   LIG    1       27.945 -19.698   8.284  0.00  0.00    +0.102 C 
ATOM      7  C   LIG    1       27.859 -20.821   7.214  0.00  0.00    +0.187 C 
ATOM      8  C   LIG    1       29.207 -21.312   6.624  0.00  0.00    +0.102 C 
ATOM      9  C   LIG    1       30.403 -20.375   6.858  0.00  0.00    +0.102 C 
ATOM     10  C   LIG    1       30.239 -21.079   9.375  0.00  0.00    +0.193 C 
ENDROOT
BRANCH   1  11
ATOM     11  C   LIG    1       31.818 -19.281   8.715  0.00  0.00    +0.133 C 
BRANCH  11  12
ATOM     12  C   LIG    1       31.720 -18.121   9.727  0.00  0.00    +0.051 C 
BRANCH  12  14
ATOM     13  C   LIG    1       32.996 -15.959  10.179  0.00  0.00    +0.004 C 
ATOM     14  C   LIG    1       32.205 -16.773   9.169  0.00  0.00    +0.002 C 
ENDBRANCH  12  14
ENDBRANCH  11  12
ENDBRANCH   1  11
BRANCH   7  15
ATOM     15  O   LIG    1       27.245 -21.986   7.818  0.00  0.00    -0.461 OA
BRANCH  15  16
ATOM     16  C   LIG    1       25.933 -21.879   8.206  0.00  0.00    +0.317 C 
ATOM     17  O   LIG    1       25.580 -21.336   9.235  0.00  0.00    -0.250 OA
BRANCH  16  18
ATOM     18  C   LIG    1       24.971 -22.385   7.124  0.00  0.00    +0.153 C 
BRANCH  18  19
ATOM     19  C   LIG    1       24.422 -21.314   6.189  0.00  0.00    -0.032 A 
ATOM     20  C   LIG    1       23.198 -20.679   6.456  0.00  0.00    +0.004 A 
ATOM     21  C   LIG    1       22.652 -19.770   5.555  0.00  0.00    +0.000 A 
ATOM     22  C   LIG    1       23.346 -19.439   4.396  0.00  0.00    +0.000 A 
ATOM     23  C   LIG    1       24.600 -19.998   4.154  0.00  0.00    +0.000 A 
ATOM     24  C   LIG    1       25.138 -20.931   5.044  0.00  0.00    +0.004 A 
ENDBRANCH  18  19
BRANCH  18  25
ATOM     25  C   LIG    1       25.608 -23.553   6.361  0.00  0.00    +0.175 C 
BRANCH  25  26
ATOM     26  O   LIG    1       25.876 -24.663   7.212  0.00  0.00    -0.394 OA
ATOM     27  H   LIG    1       26.536 -25.224   6.767  0.00  0.00    +0.209 HD
ENDBRANCH  25  26
ENDBRANCH  18  25
ENDBRANCH  16  18
ENDBRANCH  15  16
ENDBRANCH   7  15
TORSDOF 9
ENDMDL
MODEL 9
REMARK VINA RESULT:      -6.8      2.131      2.948
REMARK  Name = *****
REMARK                            x       y       z     vdW  Elec       q    Type
REMARK                         _______ _______ _______ _____ _____    ______ ____
ROOT
ATOM      1  N   LIG    1       26.111 -20.718   6.416  0.00  0.00    +0.249 N 
ATOM      2  C   LIG    1       26.039 -20.261   7.907  0.00  0.00    +0.102 C 
ATOM      3  C   LIG    1       25.242 -21.332   8.639  0.00  0.00    +0.201 C 
ATOM      4  C   LIG    1       25.441 -22.599   7.866  0.00  0.00    +0.201 C 
ATOM      5  O   LIG    1       25.939 -22.445   9.197  0.00  0.00    -0.357 OA
ATOM      6  C   LIG    1       27.482 -20.171   8.441  0.00  0.00    +0.102 C 
ATOM      7  C   LIG    1       28.335 -21.452   8.227  0.00  0.00    +0.187 C 
ATOM      8  C   LIG    1       27.829 -22.441   7.145  0.00  0.00    +0.102 C 
ATOM      9  C   LIG    1       26.366 -22.246   6.714  0.00  0.00    +0.102 C 
ATOM     10  C   LIG    1       27.181 -20.036   5.569  0.00  0.00    +0.193 C 
ENDROOT
BRANCH   1  11
ATOM     11  C   LIG    1       24.751 -20.538   5.653  0.00  0.00    +0.133 C 
BRANCH  11  12
ATOM     12  C   LIG    1       24.051 -21.868   5.308  0.00  0.00    +0.051 C 
BRANCH  12  14
ATOM     13  C   LIG    1       22.442 -23.360   6.609  0.00  0.00    +0.004 C 
ATOM     14  C   LIG    1       22.656 -22.014   5.939  0.00  0.00    +0.002 C 
ENDBRANCH  12  14
ENDBRANCH  11  12
ENDBRANCH   1  11
BRANCH   7  15
ATOM     15  O   LIG    1       29.664 -21.054   7.807  0.00  0.00    -0.461 OA
BRANCH  15  16
ATOM     16  C   LIG    1       30.403 -20.297   8.682  0.00  0.00    +0.317 C 
ATOM     17  O   LIG    1       31.110 -20.774   9.548  0.00  0.00    -0.250 OA
BRANCH  16  18
ATOM     18  C   LIG    1       30.346 -18.803   8.339  0.00  0.00    +0.153 C 
BRANCH  18  19
ATOM     19  C   LIG    1       31.015 -17.878   9.348  0.00  0.00    -0.032 A 
ATOM     20  C   LIG    1       30.435 -17.638  10.605  0.00  0.00    +0.004 A 
ATOM     21  C   LIG    1       30.996 -16.721  11.488  0.00  0.00    +0.000 A 
ATOM     22  C   LIG    1       32.177 -16.068  11.153  0.00  0.00    +0.000 A 
ATOM     23  C   LIG    1       32.811 -16.353   9.945  0.00  0.00    +0.000 A 
ATOM     24  C   LIG    1       32.235 -17.254   9.045  0.00  0.00    +0.004 A 
ENDBRANCH  18  19
BRANCH  18  25
ATOM     25  C   LIG    1       30.858 -18.574   6.911  0.00  0.00    +0.175 C 
BRANCH  25  26
ATOM     26  O   LIG    1       31.725 -19.619   6.482  0.00  0.00    -0.394 OA
ATOM     27  H   LIG    1       32.531 -19.576   7.026  0.00  0.00    +0.209 HD
ENDBRANCH  25  26
ENDBRANCH  18  25
ENDBRANCH  16  18
ENDBRANCH  15  16
ENDBRANCH   7  15
TORSDOF 9
ENDMDL
