MODEL 1
REMARK VINA RESULT:      -2.8      0.000      0.000
REMARK  Name = *****
REMARK                            x       y       z     vdW  Elec       q    Type
REMARK                         _______ _______ _______ _____ _____    ______ ____
ROOT
ATOM      1  C   LIG    1       24.247 -18.692   3.811  0.00  0.00    +0.234 C 
ATOM      2  N   LIG    1       24.973 -17.599   4.302  0.00  0.00    -0.284 N 
ATOM      3  H   LIG    1       25.892 -17.836   4.645  0.00  0.00    +0.155 HD
ATOM      4  O   LIG    1       23.343 -18.619   2.998  0.00  0.00    -0.274 OA
ENDROOT
BRANCH   2   5
ATOM      5  C   LIG    1       24.673 -16.251   3.991  0.00  0.00    +0.039 A 
ATOM      6  C   LIG    1       25.704 -15.401   3.524  0.00  0.00    -0.029 A 
ATOM      7  C   LIG    1       27.129 -15.824   3.291  0.00  0.00    +0.045 C 
ATOM      8  C   LIG    1       25.405 -14.055   3.238  0.00  0.00    +0.005 A 
ATOM      9  C   LIG    1       24.123 -13.549   3.413  0.00  0.00    +0.001 A 
ATOM     10  C   LIG    1       23.122 -14.376   3.906  0.00  0.00    +0.005 A 
ATOM     11  C   LIG    1       23.382 -15.721   4.223  0.00  0.00    -0.029 A 
ATOM     12  C   LIG    1       22.282 -16.487   4.913  0.00  0.00    +0.045 C 
ENDBRANCH   2   5
BRANCH   1  14
ATOM     13  N   LIG    1       25.099 -20.084   5.716  0.00  0.00    -0.291 NA
ATOM     14  C   LIG    1       24.828 -20.065   4.254  0.00  0.00    +0.143 C 
ATOM     15  C   LIG    1       23.996 -21.266   3.766  0.00  0.00    +0.028 C 
ATOM     16  C   LIG    1       22.718 -21.499   4.565  0.00  0.00    +0.003 C 
ATOM     17  C   LIG    1       22.958 -21.418   6.067  0.00  0.00    +0.015 C 
ATOM     18  C   LIG    1       23.823 -20.216   6.461  0.00  0.00    +0.085 C 
BRANCH  13  19
ATOM     19  C   LIG    1       26.089 -21.098   6.140  0.00  0.00    +0.085 C 
BRANCH  19  20
ATOM     20  C   LIG    1       27.233 -20.560   7.031  0.00  0.00    +0.015 C 
BRANCH  20  22
ATOM     21  C   LIG    1       28.998 -19.096   5.944  0.00  0.00    +0.004 C 
ATOM     22  C   LIG    1       28.588 -20.521   6.310  0.00  0.00    -0.002 C 
ENDBRANCH  20  22
ENDBRANCH  19  20
ENDBRANCH  13  19
ENDBRANCH   1  14
TORSDOF 5
ENDMDL
MODEL 2
REMARK VINA RESULT:      -2.8      1.795      6.560
REMARK  Name = *****
REMARK                            x       y       z     vdW  Elec       q    Type
REMARK                         _______ _______ _______ _____ _____    ______ ____
ROOT
ATOM      1  C   LIG    1       24.547 -16.630   3.806  0.00  0.00    +0.234 C 
ATOM      2  N   LIG    1       24.885 -17.983   3.682  0.00  0.00    -0.284 N 
ATOM      3  H   LIG    1       25.808 -18.143   3.307  0.00  0.00    +0.155 HD
ATOM      4  O   LIG    1       23.717 -16.187   4.582  0.00  0.00    -0.274 OA
ENDROOT
BRANCH   2   5
ATOM      5  C   LIG    1       24.225 -19.027   4.374  0.00  0.00    +0.039 A 
ATOM      6  C   LIG    1       24.993 -20.017   5.033  0.00  0.00    -0.029 A 
ATOM      7  C   LIG    1       26.496 -20.043   5.090  0.00  0.00    +0.045 C 
ATOM      8  C   LIG    1       24.331 -21.066   5.700  0.00  0.00    +0.005 A 
ATOM      9  C   LIG    1       22.944 -21.147   5.716  0.00  0.00    +0.001 A 
ATOM     10  C   LIG    1       22.194 -20.194   5.038  0.00  0.00    +0.005 A 
ATOM     11  C   LIG    1       22.816 -19.141   4.343  0.00  0.00    -0.029 A 
ATOM     12  C   LIG    1       21.929 -18.263   3.498  0.00  0.00    +0.045 C 
ENDBRANCH   2   5
BRANCH   1  14
ATOM     13  N   LIG    1       25.150 -14.258   3.255  0.00  0.00    -0.291 NA
ATOM     14  C   LIG    1       25.473 -15.685   2.988  0.00  0.00    +0.143 C 
ATOM     15  C   LIG    1       26.970 -16.016   3.139  0.00  0.00    +0.028 C 
ATOM     16  C   LIG    1       27.579 -15.545   4.455  0.00  0.00    +0.003 C 
ATOM     17  C   LIG    1       27.172 -14.118   4.797  0.00  0.00    +0.015 C 
ATOM     18  C   LIG    1       25.675 -13.865   4.585  0.00  0.00    +0.085 C 
BRANCH  13  19
ATOM     19  C   LIG    1       25.589 -13.325   2.194  0.00  0.00    +0.085 C 
BRANCH  19  20
ATOM     20  C   LIG    1       25.296 -11.833   2.476  0.00  0.00    +0.015 C 
BRANCH  20  22
ATOM     21  C   LIG    1       23.463 -11.447   4.188  0.00  0.00    +0.004 C 
ATOM     22  C   LIG    1       23.805 -11.547   2.703  0.00  0.00    -0.002 C 
ENDBRANCH  20  22
ENDBRANCH  19  20
ENDBRANCH  13  19
ENDBRANCH   1  14
TORSDOF 5
ENDMDL
MODEL 3
REMARK VINA RESULT:      -2.6      1.755      6.747
REMARK  Name = *****
REMARK                            x       y       z     vdW  Elec       q    Type
REMARK                         _______ _______ _______ _____ _____    ______ ____
ROOT
ATOM      1  C   LIG    1       24.609 -16.695   3.764  0.00  0.00    +0.234 C 
ATOM      2  N   LIG    1       24.995 -18.034   3.623  0.00  0.00    -0.284 N 
ATOM      3  H   LIG    1       25.924 -18.157   3.248  0.00  0.00    +0.155 HD
ATOM      4  O   LIG    1       23.763 -16.292   4.542  0.00  0.00    -0.274 OA
ENDROOT
BRANCH   2   5
ATOM      5  C   LIG    1       24.371 -19.109   4.299  0.00  0.00    +0.039 A 
ATOM      6  C   LIG    1       22.957 -19.176   4.341  0.00  0.00    -0.029 A 
ATOM      7  C   LIG    1       22.030 -18.191   3.682  0.00  0.00    +0.045 C 
ATOM      8  C   LIG    1       22.341 -20.235   5.034  0.00  0.00    +0.005 A 
ATOM      9  C   LIG    1       23.095 -21.206   5.682  0.00  0.00    +0.001 A 
ATOM     10  C   LIG    1       24.481 -21.118   5.670  0.00  0.00    +0.005 A 
ATOM     11  C   LIG    1       25.136 -20.066   5.005  0.00  0.00    -0.029 A 
ATOM     12  C   LIG    1       26.628 -19.959   5.196  0.00  0.00    +0.045 C 
ENDBRANCH   2   5
BRANCH   1  14
ATOM     13  N   LIG    1       25.123 -14.297   3.237  0.00  0.00    -0.291 NA
ATOM     14  C   LIG    1       25.504 -15.708   2.960  0.00  0.00    +0.143 C 
ATOM     15  C   LIG    1       27.011 -15.981   3.119  0.00  0.00    +0.028 C 
ATOM     16  C   LIG    1       27.592 -15.499   4.444  0.00  0.00    +0.003 C 
ATOM     17  C   LIG    1       27.127 -14.091   4.794  0.00  0.00    +0.015 C 
ATOM     18  C   LIG    1       25.623 -13.895   4.574  0.00  0.00    +0.085 C 
BRANCH  13  19
ATOM     19  C   LIG    1       25.532 -13.339   2.186  0.00  0.00    +0.085 C 
BRANCH  19  20
ATOM     20  C   LIG    1       25.309 -11.850   2.540  0.00  0.00    +0.015 C 
BRANCH  20  22
ATOM     21  C   LIG    1       23.509 -11.447   4.282  0.00  0.00    +0.004 C 
ATOM     22  C   LIG    1       23.834 -11.507   2.791  0.00  0.00    -0.002 C 
ENDBRANCH  20  22
ENDBRANCH  19  20
ENDBRANCH  13  19
ENDBRANCH   1  14
TORSDOF 5
ENDMDL
MODEL 4
REMARK VINA RESULT:      -2.6      2.082      6.870
REMARK  Name = *****
REMARK                            x       y       z     vdW  Elec       q    Type
REMARK                         _______ _______ _______ _____ _____    ______ ____
ROOT
ATOM      1  C   LIG    1       25.698 -16.334   3.407  0.00  0.00    +0.234 C 
ATOM      2  N   LIG    1       24.557 -16.975   3.907  0.00  0.00    -0.284 N 
ATOM      3  H   LIG    1       23.725 -16.403   3.891  0.00  0.00    +0.155 HD
ATOM      4  O   LIG    1       26.671 -16.905   2.946  0.00  0.00    -0.274 OA
ENDROOT
BRANCH   2   5
ATOM      5  C   LIG    1       24.434 -18.378   4.035  0.00  0.00    +0.039 A 
ATOM      6  C   LIG    1       23.144 -18.962   4.076  0.00  0.00    -0.029 A 
ATOM      7  C   LIG    1       21.852 -18.200   3.960  0.00  0.00    +0.045 C 
ATOM      8  C   LIG    1       23.027 -20.356   4.226  0.00  0.00    +0.005 A 
ATOM      9  C   LIG    1       24.152 -21.165   4.342  0.00  0.00    +0.001 A 
ATOM     10  C   LIG    1       25.414 -20.586   4.339  0.00  0.00    +0.005 A 
ATOM     11  C   LIG    1       25.575 -19.195   4.210  0.00  0.00    -0.029 A 
ATOM     12  C   LIG    1       26.968 -18.648   4.392  0.00  0.00    +0.045 C 
ENDBRANCH   2   5
BRANCH   1  14
ATOM     13  N   LIG    1       25.484 -14.173   4.663  0.00  0.00    -0.291 NA
ATOM     14  C   LIG    1       25.545 -14.789   3.310  0.00  0.00    +0.143 C 
ATOM     15  C   LIG    1       26.580 -14.130   2.380  0.00  0.00    +0.028 C 
ATOM     16  C   LIG    1       27.970 -13.998   2.994  0.00  0.00    +0.003 C 
ATOM     17  C   LIG    1       27.918 -13.466   4.420  0.00  0.00    +0.015 C 
ATOM     18  C   LIG    1       26.839 -14.150   5.266  0.00  0.00    +0.085 C 
BRANCH  13  19
ATOM     19  C   LIG    1       24.846 -12.839   4.696  0.00  0.00    +0.085 C 
BRANCH  19  20
ATOM     20  C   LIG    1       23.587 -12.696   3.809  0.00  0.00    +0.015 C 
BRANCH  20  22
ATOM     21  C   LIG    1       24.674 -11.561   1.817  0.00  0.00    +0.004 C 
ATOM     22  C   LIG    1       23.620 -11.448   2.916  0.00  0.00    -0.002 C 
ENDBRANCH  20  22
ENDBRANCH  19  20
ENDBRANCH  13  19
ENDBRANCH   1  14
TORSDOF 5
ENDMDL
MODEL 5
REMARK VINA RESULT:      -2.1      0.111      1.913
REMARK  Name = *****
REMARK                            x       y       z     vdW  Elec       q    Type
REMARK                         _______ _______ _______ _____ _____    ______ ____
ROOT
ATOM      1  C   LIG    1       24.302 -18.728   3.809  0.00  0.00    +0.234 C 
ATOM      2  N   LIG    1       24.982 -17.642   4.375  0.00  0.00    -0.284 N 
ATOM      3  H   LIG    1       25.885 -17.878   4.759  0.00  0.00    +0.155 HD
ATOM      4  O   LIG    1       23.441 -18.641   2.950  0.00  0.00    -0.274 OA
ENDROOT
BRANCH   2   5
ATOM      5  C   LIG    1       24.678 -16.289   4.093  0.00  0.00    +0.039 A 
ATOM      6  C   LIG    1       23.354 -15.822   4.275  0.00  0.00    -0.029 A 
ATOM      7  C   LIG    1       22.211 -16.656   4.788  0.00  0.00    +0.045 C 
ATOM      8  C   LIG    1       23.052 -14.481   3.971  0.00  0.00    +0.005 A 
ATOM      9  C   LIG    1       24.027 -13.615   3.491  0.00  0.00    +0.001 A 
ATOM     10  C   LIG    1       25.317 -14.085   3.279  0.00  0.00    +0.005 A 
ATOM     11  C   LIG    1       25.656 -15.423   3.551  0.00  0.00    -0.029 A 
ATOM     12  C   LIG    1       27.028 -15.881   3.126  0.00  0.00    +0.045 C 
ENDBRANCH   2   5
BRANCH   1  14
ATOM     13  N   LIG    1       25.164 -20.138   5.696  0.00  0.00    -0.291 NA
ATOM     14  C   LIG    1       24.879 -20.108   4.236  0.00  0.00    +0.143 C 
ATOM     15  C   LIG    1       24.036 -21.301   3.749  0.00  0.00    +0.028 C 
ATOM     16  C   LIG    1       22.765 -21.533   4.559  0.00  0.00    +0.003 C 
ATOM     17  C   LIG    1       23.020 -21.463   6.059  0.00  0.00    +0.015 C 
ATOM     18  C   LIG    1       23.895 -20.268   6.453  0.00  0.00    +0.085 C 
BRANCH  13  19
ATOM     19  C   LIG    1       26.153 -21.160   6.103  0.00  0.00    +0.085 C 
BRANCH  19  20
ATOM     20  C   LIG    1       27.269 -20.649   7.044  0.00  0.00    +0.015 C 
BRANCH  20  22
ATOM     21  C   LIG    1       29.007 -19.166   5.939  0.00  0.00    +0.004 C 
ATOM     22  C   LIG    1       28.645 -20.587   6.366  0.00  0.00    -0.002 C 
ENDBRANCH  20  22
ENDBRANCH  19  20
ENDBRANCH  13  19
ENDBRANCH   1  14
TORSDOF 5
ENDMDL
MODEL 6
REMARK VINA RESULT:      -1.9      2.465      6.580
REMARK  Name = *****
REMARK                            x       y       z     vdW  Elec       q    Type
REMARK                         _______ _______ _______ _____ _____    ______ ____
ROOT
ATOM      1  C   LIG    1       24.149 -15.247   3.922  0.00  0.00    +0.234 C 
ATOM      2  N   LIG    1       24.709 -16.529   3.988  0.00  0.00    -0.284 N 
ATOM      3  H   LIG    1       25.673 -16.542   4.285  0.00  0.00    +0.155 HD
ATOM      4  O   LIG    1       22.958 -15.001   4.003  0.00  0.00    -0.274 OA
ENDROOT
BRANCH   2   5
ATOM      5  C   LIG    1       23.945 -17.719   4.053  0.00  0.00    +0.039 A 
ATOM      6  C   LIG    1       22.644 -17.680   4.609  0.00  0.00    -0.029 A 
ATOM      7  C   LIG    1       21.966 -16.439   5.125  0.00  0.00    +0.045 C 
ATOM      8  C   LIG    1       21.898 -18.871   4.692  0.00  0.00    +0.005 A 
ATOM      9  C   LIG    1       22.419 -20.079   4.246  0.00  0.00    +0.001 A 
ATOM     10  C   LIG    1       23.709 -20.122   3.735  0.00  0.00    +0.005 A 
ATOM     11  C   LIG    1       24.496 -18.958   3.652  0.00  0.00    -0.029 A 
ATOM     12  C   LIG    1       25.938 -19.135   3.248  0.00  0.00    +0.045 C 
ENDBRANCH   2   5
BRANCH   1  14
ATOM     13  N   LIG    1       25.687 -13.818   2.548  0.00  0.00    -0.291 NA
ATOM     14  C   LIG    1       25.211 -14.110   3.927  0.00  0.00    +0.143 C 
ATOM     15  C   LIG    1       24.762 -12.857   4.701  0.00  0.00    +0.028 C 
ATOM     16  C   LIG    1       23.767 -11.984   3.943  0.00  0.00    +0.003 C 
ATOM     17  C   LIG    1       24.187 -11.762   2.496  0.00  0.00    +0.015 C 
ATOM     18  C   LIG    1       24.653 -13.051   1.812  0.00  0.00    +0.085 C 
BRANCH  13  19
ATOM     19  C   LIG    1       27.009 -13.157   2.487  0.00  0.00    +0.085 C 
BRANCH  19  20
ATOM     20  C   LIG    1       28.104 -13.806   3.364  0.00  0.00    +0.015 C 
BRANCH  20  22
ATOM     21  C   LIG    1       28.533 -12.273   5.340  0.00  0.00    +0.004 C 
ATOM     22  C   LIG    1       29.054 -12.779   3.997  0.00  0.00    -0.002 C 
ENDBRANCH  20  22
ENDBRANCH  19  20
ENDBRANCH  13  19
ENDBRANCH   1  14
TORSDOF 5
ENDMDL
MODEL 7
REMARK VINA RESULT:      -1.5      2.447      6.305
REMARK  Name = *****
REMARK                            x       y       z     vdW  Elec       q    Type
REMARK                         _______ _______ _______ _____ _____    ______ ____
ROOT
ATOM      1  C   LIG    1       24.201 -15.394   4.088  0.00  0.00    +0.234 C 
ATOM      2  N   LIG    1       24.721 -16.689   3.962  0.00  0.00    -0.284 N 
ATOM      3  H   LIG    1       25.723 -16.741   4.072  0.00  0.00    +0.155 HD
ATOM      4  O   LIG    1       23.055 -15.131   4.407  0.00  0.00    -0.274 OA
ENDROOT
BRANCH   2   5
ATOM      5  C   LIG    1       23.945 -17.865   4.089  0.00  0.00    +0.039 A 
ATOM      6  C   LIG    1       24.497 -19.107   3.694  0.00  0.00    -0.029 A 
ATOM      7  C   LIG    1       25.892 -19.298   3.163  0.00  0.00    +0.045 C 
ATOM      8  C   LIG    1       23.712 -20.271   3.801  0.00  0.00    +0.005 A 
ATOM      9  C   LIG    1       22.409 -20.219   4.279  0.00  0.00    +0.001 A 
ATOM     10  C   LIG    1       21.857 -18.994   4.632  0.00  0.00    +0.005 A 
ATOM     11  C   LIG    1       22.600 -17.805   4.522  0.00  0.00    -0.029 A 
ATOM     12  C   LIG    1       21.861 -16.512   4.761  0.00  0.00    +0.045 C 
ENDBRANCH   2   5
BRANCH   1  14
ATOM     13  N   LIG    1       25.703 -14.094   2.556  0.00  0.00    -0.291 NA
ATOM     14  C   LIG    1       25.282 -14.282   3.970  0.00  0.00    +0.143 C 
ATOM     15  C   LIG    1       24.888 -12.970   4.675  0.00  0.00    +0.028 C 
ATOM     16  C   LIG    1       23.877 -12.131   3.901  0.00  0.00    +0.003 C 
ATOM     17  C   LIG    1       24.238 -12.015   2.425  0.00  0.00    +0.015 C 
ATOM     18  C   LIG    1       24.651 -13.358   1.813  0.00  0.00    +0.085 C 
BRANCH  13  19
ATOM     19  C   LIG    1       27.032 -13.465   2.394  0.00  0.00    +0.085 C 
BRANCH  19  20
ATOM     20  C   LIG    1       28.078 -13.869   3.459  0.00  0.00    +0.015 C 
BRANCH  20  22
ATOM     21  C   LIG    1       28.584 -12.287   5.377  0.00  0.00    +0.004 C 
ATOM     22  C   LIG    1       28.928 -12.686   3.944  0.00  0.00    -0.002 C 
ENDBRANCH  20  22
ENDBRANCH  19  20
ENDBRANCH  13  19
ENDBRANCH   1  14
TORSDOF 5
ENDMDL
MODEL 8
REMARK VINA RESULT:      -0.8      2.018      3.311
REMARK  Name = *****
REMARK                            x       y       z     vdW  Elec       q    Type
REMARK                         _______ _______ _______ _____ _____    ______ ____
ROOT
ATOM      1  C   LIG    1       25.179 -17.396   3.636  0.00  0.00    +0.234 C 
ATOM      2  N   LIG    1       24.999 -16.100   4.136  0.00  0.00    -0.284 N 
ATOM      3  H   LIG    1       24.606 -16.069   5.065  0.00  0.00    +0.155 HD
ATOM      4  O   LIG    1       25.981 -17.705   2.773  0.00  0.00    -0.274 OA
ENDROOT
BRANCH   2   5
ATOM      5  C   LIG    1       25.660 -14.959   3.623  0.00  0.00    +0.039 A 
ATOM      6  C   LIG    1       27.070 -14.872   3.717  0.00  0.00    -0.029 A 
ATOM      7  C   LIG    1       27.959 -15.934   4.306  0.00  0.00    +0.045 C 
ATOM      8  C   LIG    1       27.720 -13.725   3.225  0.00  0.00    +0.005 A 
ATOM      9  C   LIG    1       27.003 -12.678   2.658  0.00  0.00    +0.001 A 
ATOM     10  C   LIG    1       25.617 -12.750   2.600  0.00  0.00    +0.005 A 
ATOM     11  C   LIG    1       24.927 -13.870   3.097  0.00  0.00    -0.029 A 
ATOM     12  C   LIG    1       23.423 -13.779   3.148  0.00  0.00    +0.045 C 
ENDBRANCH   2   5
BRANCH   1  14
ATOM     13  N   LIG    1       23.209 -18.950   3.645  0.00  0.00    -0.291 NA
ATOM     14  C   LIG    1       24.384 -18.477   4.424  0.00  0.00    +0.143 C 
ATOM     15  C   LIG    1       25.269 -19.619   4.958  0.00  0.00    +0.028 C 
ATOM     16  C   LIG    1       25.679 -20.633   3.895  0.00  0.00    +0.003 C 
ATOM     17  C   LIG    1       24.505 -21.050   3.018  0.00  0.00    +0.015 C 
ATOM     18  C   LIG    1       23.658 -19.857   2.561  0.00  0.00    +0.085 C 
BRANCH  13  19
ATOM     19  C   LIG    1       22.139 -19.560   4.464  0.00  0.00    +0.085 C 
BRANCH  19  20
ATOM     20  C   LIG    1       22.528 -19.848   5.933  0.00  0.00    +0.015 C 
BRANCH  20  22
ATOM     21  C   LIG    1       24.009 -21.572   7.062  0.00  0.00    +0.004 C 
ATOM     22  C   LIG    1       22.763 -21.339   6.211  0.00  0.00    -0.002 C 
ENDBRANCH  20  22
ENDBRANCH  19  20
ENDBRANCH  13  19
ENDBRANCH   1  14
TORSDOF 5
ENDMDL
MODEL 9
REMARK VINA RESULT:      -0.2      1.454      2.329
REMARK  Name = *****
REMARK                            x       y       z     vdW  Elec       q    Type
REMARK                         _______ _______ _______ _____ _____    ______ ____
ROOT
ATOM      1  C   LIG    1       25.160 -18.158   3.329  0.00  0.00    +0.234 C 
ATOM      2  N   LIG    1       24.856 -16.965   3.997  0.00  0.00    -0.284 N 
ATOM      3  H   LIG    1       24.348 -17.094   4.859  0.00  0.00    +0.155 HD
ATOM      4  O   LIG    1       26.079 -18.301   2.542  0.00  0.00    -0.274 OA
ENDROOT
BRANCH   2   5
ATOM      5  C   LIG    1       25.520 -15.738   3.760  0.00  0.00    +0.039 A 
ATOM      6  C   LIG    1       26.934 -15.690   3.824  0.00  0.00    -0.029 A 
ATOM      7  C   LIG    1       27.823 -16.872   4.100  0.00  0.00    +0.045 C 
ATOM      8  C   LIG    1       27.588 -14.462   3.609  0.00  0.00    +0.005 A 
ATOM      9  C   LIG    1       26.872 -13.301   3.345  0.00  0.00    +0.001 A 
ATOM     10  C   LIG    1       25.484 -13.344   3.319  0.00  0.00    +0.005 A 
ATOM     11  C   LIG    1       24.790 -14.546   3.546  0.00  0.00    -0.029 A 
ATOM     12  C   LIG    1       23.290 -14.457   3.671  0.00  0.00    +0.045 C 
ENDBRANCH   2   5
BRANCH   1  14
ATOM     13  N   LIG    1       23.774 -19.120   5.185  0.00  0.00    -0.291 NA
ATOM     14  C   LIG    1       24.326 -19.373   3.827  0.00  0.00    +0.143 C 
ATOM     15  C   LIG    1       23.270 -19.846   2.812  0.00  0.00    +0.028 C 
ATOM     16  C   LIG    1       22.028 -18.963   2.751  0.00  0.00    +0.003 C 
ATOM     17  C   LIG    1       21.510 -18.607   4.139  0.00  0.00    +0.015 C 
ATOM     18  C   LIG    1       22.629 -18.182   5.095  0.00  0.00    +0.085 C 
BRANCH  13  19
ATOM     19  C   LIG    1       23.422 -20.345   5.937  0.00  0.00    +0.085 C 
BRANCH  19  20
ATOM     20  C   LIG    1       24.610 -21.288   6.238  0.00  0.00    +0.015 C 
BRANCH  20  22
ATOM     21  C   LIG    1       27.003 -20.444   6.255  0.00  0.00    +0.004 C 
ATOM     22  C   LIG    1       25.717 -20.615   7.061  0.00  0.00    -0.002 C 
ENDBRANCH  20  22
ENDBRANCH  19  20
ENDBRANCH  13  19
ENDBRANCH   1  14
TORSDOF 5
ENDMDL
