MODEL 1
REMARK VINA RESULT:      -5.2      0.000      0.000
REMARK  Name = *****
REMARK                            x       y       z     vdW  Elec       q    Type
REMARK                         _______ _______ _______ _____ _____    ______ ____
ROOT
ATOM      1  C   LIG    1       25.109 -20.114   4.615  0.00  0.00    +0.117 A 
ATOM      2  C   LIG    1       24.454 -19.250   3.744  0.00  0.00    +0.045 A 
ATOM      3  C   LIG    1       23.120 -18.919   3.974  0.00  0.00    +0.004 A 
ATOM      4  C   LIG    1       22.449 -19.452   5.074  0.00  0.00    +0.000 A 
ATOM      5  C   LIG    1       23.113 -20.316   5.947  0.00  0.00    +0.004 A 
ATOM      6  C   LIG    1       24.449 -20.650   5.718  0.00  0.00    +0.045 A 
ENDROOT
BRANCH   1   7
ATOM      7  O   LIG    1       26.411 -20.419   4.349  0.00  0.00    -0.507 OA
ATOM      8  H   LIG    1       26.504 -21.386   4.339  0.00  0.00    +0.292 HD
ENDBRANCH   1   7
TORSDOF 1
ENDMDL
MODEL 2
REMARK VINA RESULT:      -5.2      0.042      1.829
REMARK  Name = *****
REMARK                            x       y       z     vdW  Elec       q    Type
REMARK                         _______ _______ _______ _____ _____    ______ ____
ROOT
ATOM      1  C   LIG    1       25.108 -20.089   4.572  0.00  0.00    +0.117 A 
ATOM      2  C   LIG    1       24.484 -20.646   5.683  0.00  0.00    +0.045 A 
ATOM      3  C   LIG    1       23.152 -20.335   5.954  0.00  0.00    +0.004 A 
ATOM      4  C   LIG    1       22.453 -19.469   5.113  0.00  0.00    +0.000 A 
ATOM      5  C   LIG    1       23.086 -18.916   3.997  0.00  0.00    +0.004 A 
ATOM      6  C   LIG    1       24.420 -19.225   3.725  0.00  0.00    +0.045 A 
ENDROOT
BRANCH   1   7
ATOM      7  O   LIG    1       26.414 -20.413   4.348  0.00  0.00    -0.507 OA
ATOM      8  H   LIG    1       26.465 -20.930   3.528  0.00  0.00    +0.292 HD
ENDBRANCH   1   7
TORSDOF 1
ENDMDL
MODEL 3
REMARK VINA RESULT:      -4.9      1.120      2.314
REMARK  Name = *****
REMARK                            x       y       z     vdW  Elec       q    Type
REMARK                         _______ _______ _______ _____ _____    ______ ____
ROOT
ATOM      1  C   LIG    1       25.279 -20.388   5.095  0.00  0.00    +0.117 A 
ATOM      2  C   LIG    1       25.699 -20.734   6.375  0.00  0.00    +0.045 A 
ATOM      3  C   LIG    1       24.757 -20.913   7.386  0.00  0.00    +0.004 A 
ATOM      4  C   LIG    1       23.399 -20.744   7.112  0.00  0.00    +0.000 A 
ATOM      5  C   LIG    1       22.984 -20.401   5.824  0.00  0.00    +0.004 A 
ATOM      6  C   LIG    1       23.926 -20.220   4.809  0.00  0.00    +0.045 A 
ENDROOT
BRANCH   1   7
ATOM      7  O   LIG    1       26.234 -20.215   4.137  0.00  0.00    -0.507 OA
ATOM      8  H   LIG    1       26.154 -19.315   3.783  0.00  0.00    +0.292 HD
ENDBRANCH   1   7
TORSDOF 1
ENDMDL
MODEL 4
REMARK VINA RESULT:      -4.9      4.280      5.311
REMARK  Name = *****
REMARK                            x       y       z     vdW  Elec       q    Type
REMARK                         _______ _______ _______ _____ _____    ______ ____
ROOT
ATOM      1  C   LIG    1       23.267 -23.707   6.720  0.00  0.00    +0.117 A 
ATOM      2  C   LIG    1       23.944 -24.875   6.388  0.00  0.00    +0.045 A 
ATOM      3  C   LIG    1       25.329 -24.936   6.535  0.00  0.00    +0.004 A 
ATOM      4  C   LIG    1       26.028 -23.829   7.015  0.00  0.00    +0.000 A 
ATOM      5  C   LIG    1       25.342 -22.660   7.351  0.00  0.00    +0.004 A 
ATOM      6  C   LIG    1       23.955 -22.596   7.203  0.00  0.00    +0.045 A 
ENDROOT
BRANCH   1   7
ATOM      7  O   LIG    1       21.914 -23.687   6.553  0.00  0.00    -0.507 OA
ATOM      8  H   LIG    1       21.562 -24.559   6.797  0.00  0.00    +0.292 HD
ENDBRANCH   1   7
TORSDOF 1
ENDMDL
MODEL 5
REMARK VINA RESULT:      -4.9      0.965      1.257
REMARK  Name = *****
REMARK                            x       y       z     vdW  Elec       q    Type
REMARK                         _______ _______ _______ _____ _____    ______ ____
ROOT
ATOM      1  C   LIG    1       24.492 -20.935   4.933  0.00  0.00    +0.117 A 
ATOM      2  C   LIG    1       24.844 -20.088   3.888  0.00  0.00    +0.045 A 
ATOM      3  C   LIG    1       24.015 -19.016   3.560  0.00  0.00    +0.004 A 
ATOM      4  C   LIG    1       22.841 -18.797   4.281  0.00  0.00    +0.000 A 
ATOM      5  C   LIG    1       22.496 -19.649   5.332  0.00  0.00    +0.004 A 
ATOM      6  C   LIG    1       23.324 -20.724   5.661  0.00  0.00    +0.045 A 
ENDROOT
BRANCH   1   7
ATOM      7  O   LIG    1       25.327 -21.976   5.215  0.00  0.00    -0.507 OA
ATOM      8  H   LIG    1       25.486 -21.991   6.174  0.00  0.00    +0.292 HD
ENDBRANCH   1   7
TORSDOF 1
ENDMDL
MODEL 6
REMARK VINA RESULT:      -4.9      0.903      1.972
REMARK  Name = *****
REMARK                            x       y       z     vdW  Elec       q    Type
REMARK                         _______ _______ _______ _____ _____    ______ ____
ROOT
ATOM      1  C   LIG    1       24.676 -20.781   5.012  0.00  0.00    +0.117 A 
ATOM      2  C   LIG    1       23.507 -20.686   5.759  0.00  0.00    +0.045 A 
ATOM      3  C   LIG    1       22.549 -19.730   5.425  0.00  0.00    +0.004 A 
ATOM      4  C   LIG    1       22.767 -18.874   4.344  0.00  0.00    +0.000 A 
ATOM      5  C   LIG    1       23.941 -18.977   3.596  0.00  0.00    +0.004 A 
ATOM      6  C   LIG    1       24.902 -19.934   3.930  0.00  0.00    +0.045 A 
ENDROOT
BRANCH   1   7
ATOM      7  O   LIG    1       25.589 -21.725   5.378  0.00  0.00    -0.507 OA
ATOM      8  H   LIG    1       26.479 -21.361   5.240  0.00  0.00    +0.292 HD
ENDBRANCH   1   7
TORSDOF 1
ENDMDL
MODEL 7
REMARK VINA RESULT:      -4.9      4.100      4.906
REMARK  Name = *****
REMARK                            x       y       z     vdW  Elec       q    Type
REMARK                         _______ _______ _______ _____ _____    ______ ____
ROOT
ATOM      1  C   LIG    1       23.351 -23.465   6.808  0.00  0.00    +0.117 A 
ATOM      2  C   LIG    1       23.677 -22.219   7.334  0.00  0.00    +0.045 A 
ATOM      3  C   LIG    1       25.008 -21.919   7.622  0.00  0.00    +0.004 A 
ATOM      4  C   LIG    1       26.003 -22.866   7.382  0.00  0.00    +0.000 A 
ATOM      5  C   LIG    1       25.669 -24.113   6.850  0.00  0.00    +0.004 A 
ATOM      6  C   LIG    1       24.337 -24.416   6.562  0.00  0.00    +0.045 A 
ENDROOT
BRANCH   1   7
ATOM      7  O   LIG    1       22.036 -23.720   6.549  0.00  0.00    -0.507 OA
ATOM      8  H   LIG    1       21.847 -23.455   5.634  0.00  0.00    +0.292 HD
ENDBRANCH   1   7
TORSDOF 1
ENDMDL
MODEL 8
REMARK VINA RESULT:      -4.8      3.780      4.624
REMARK  Name = *****
REMARK                            x       y       z     vdW  Elec       q    Type
REMARK                         _______ _______ _______ _____ _____    ______ ____
ROOT
ATOM      1  C   LIG    1       23.351 -23.135   6.890  0.00  0.00    +0.117 A 
ATOM      2  C   LIG    1       24.543 -23.846   6.795  0.00  0.00    +0.045 A 
ATOM      3  C   LIG    1       25.751 -23.208   7.072  0.00  0.00    +0.004 A 
ATOM      4  C   LIG    1       25.759 -21.863   7.443  0.00  0.00    +0.000 A 
ATOM      5  C   LIG    1       24.559 -21.157   7.540  0.00  0.00    +0.004 A 
ATOM      6  C   LIG    1       23.348 -21.794   7.262  0.00  0.00    +0.045 A 
ENDROOT
BRANCH   1   7
ATOM      7  O   LIG    1       22.193 -23.796   6.602  0.00  0.00    -0.507 OA
ATOM      8  H   LIG    1       22.126 -24.567   7.190  0.00  0.00    +0.292 HD
ENDBRANCH   1   7
TORSDOF 1
ENDMDL
MODEL 9
REMARK VINA RESULT:      -4.7      2.238      3.426
REMARK  Name = *****
REMARK                            x       y       z     vdW  Elec       q    Type
REMARK                         _______ _______ _______ _____ _____    ______ ____
ROOT
ATOM      1  C   LIG    1       26.122 -20.454   5.629  0.00  0.00    +0.117 A 
ATOM      2  C   LIG    1       27.256 -20.325   6.425  0.00  0.00    +0.045 A 
ATOM      3  C   LIG    1       27.144 -20.448   7.809  0.00  0.00    +0.004 A 
ATOM      4  C   LIG    1       25.900 -20.700   8.388  0.00  0.00    +0.000 A 
ATOM      5  C   LIG    1       24.767 -20.832   7.582  0.00  0.00    +0.004 A 
ATOM      6  C   LIG    1       24.877 -20.708   6.196  0.00  0.00    +0.045 A 
ENDROOT
BRANCH   1   7
ATOM      7  O   LIG    1       26.275 -20.318   4.280  0.00  0.00    -0.507 OA
ATOM      8  H   LIG    1       27.177 -20.590   4.045  0.00  0.00    +0.292 HD
ENDBRANCH   1   7
TORSDOF 1
ENDMDL
