MODEL 1
REMARK VINA RESULT:      -5.0      0.000      0.000
REMARK  Name = *****
REMARK                            x       y       z     vdW  Elec       q    Type
REMARK                         _______ _______ _______ _____ _____    ______ ____
ROOT
ATOM      1  C   LIG    1       25.159 -13.640   3.600  0.00  0.00    +0.126 C 
ATOM      2  C   LIG    1       25.245 -12.706   4.798  0.00  0.00    +0.236 C 
ATOM      3  O   LIG    1       24.280 -12.092   5.249  0.00  0.00    -0.274 OA
ATOM      4  N   LIG    1       26.456 -12.616   5.420  0.00  0.00    -0.239 N 
ATOM      5  H   LIG    1       26.491 -12.037   6.248  0.00  0.00    +0.159 HD
ATOM      6  C   LIG    1       27.652 -12.806   4.803  0.00  0.00    +0.312 C 
ATOM      7  O   LIG    1       28.700 -12.418   5.302  0.00  0.00    -0.252 OA
ATOM      8  N   LIG    1       27.620 -13.402   3.583  0.00  0.00    -0.239 N 
ATOM      9  H   LIG    1       28.508 -13.522   3.115  0.00  0.00    +0.159 HD
ATOM     10  C   LIG    1       26.509 -13.824   2.910  0.00  0.00    +0.236 C 
ATOM     11  O   LIG    1       26.634 -14.367   1.812  0.00  0.00    -0.274 OA
ENDROOT
BRANCH   1  12
ATOM     12  C   LIG    1       24.654 -15.069   4.085  0.00  0.00    +0.010 C 
ATOM     13  C   LIG    1       25.404 -16.234   3.408  0.00  0.00    +0.009 C 
BRANCH  12  14
ATOM     14  C   LIG    1       23.120 -15.283   3.919  0.00  0.00    +0.004 C 
BRANCH  14  16
ATOM     15  C   LIG    1       22.243 -17.577   4.541  0.00  0.00    +0.004 C 
ATOM     16  C   LIG    1       22.483 -16.151   5.016  0.00  0.00    -0.003 C 
ENDBRANCH  14  16
ENDBRANCH  12  14
ENDBRANCH   1  12
BRANCH   1  17
ATOM     17  C   LIG    1       24.185 -13.041   2.536  0.00  0.00    +0.022 C 
ATOM     18  C   LIG    1       24.575 -11.667   1.988  0.00  0.00    +0.005 C 
ENDBRANCH   1  17
TORSDOF 4
ENDMDL
MODEL 2
REMARK VINA RESULT:      -4.4      1.304      1.349
REMARK  Name = *****
REMARK                            x       y       z     vdW  Elec       q    Type
REMARK                         _______ _______ _______ _____ _____    ______ ____
ROOT
ATOM      1  C   LIG    1       25.281 -13.556   4.208  0.00  0.00    +0.126 C 
ATOM      2  C   LIG    1       26.348 -13.372   5.276  0.00  0.00    +0.236 C 
ATOM      3  O   LIG    1       26.094 -13.117   6.451  0.00  0.00    -0.274 OA
ATOM      4  N   LIG    1       27.643 -13.567   4.889  0.00  0.00    -0.239 N 
ATOM      5  H   LIG    1       28.341 -13.497   5.617  0.00  0.00    +0.159 HD
ATOM      6  C   LIG    1       28.107 -13.363   3.628  0.00  0.00    +0.312 C 
ATOM      7  O   LIG    1       29.302 -13.246   3.396  0.00  0.00    -0.252 OA
ATOM      8  N   LIG    1       27.174 -13.245   2.648  0.00  0.00    -0.239 N 
ATOM      9  H   LIG    1       27.520 -13.071   1.714  0.00  0.00    +0.159 HD
ATOM     10  C   LIG    1       25.818 -13.304   2.800  0.00  0.00    +0.236 C 
ATOM     11  O   LIG    1       25.092 -13.197   1.812  0.00  0.00    -0.274 OA
ENDROOT
BRANCH   1  12
ATOM     12  C   LIG    1       24.734 -15.050   4.266  0.00  0.00    +0.010 C 
ATOM     13  C   LIG    1       25.501 -16.008   3.332  0.00  0.00    +0.009 C 
BRANCH  12  14
ATOM     14  C   LIG    1       23.207 -15.170   3.982  0.00  0.00    +0.004 C 
BRANCH  14  16
ATOM     15  C   LIG    1       22.397 -17.523   4.461  0.00  0.00    +0.004 C 
ATOM     16  C   LIG    1       22.455 -16.086   4.961  0.00  0.00    -0.003 C 
ENDBRANCH  14  16
ENDBRANCH  12  14
ENDBRANCH   1  12
BRANCH   1  17
ATOM     17  C   LIG    1       24.123 -12.533   4.439  0.00  0.00    +0.022 C 
ATOM     18  C   LIG    1       23.874 -11.552   3.293  0.00  0.00    +0.005 C 
ENDBRANCH   1  17
TORSDOF 4
ENDMDL
MODEL 3
REMARK VINA RESULT:      -3.6      1.621      2.282
REMARK  Name = *****
REMARK                            x       y       z     vdW  Elec       q    Type
REMARK                         _______ _______ _______ _____ _____    ______ ____
ROOT
ATOM      1  C   LIG    1       25.313 -13.552   4.034  0.00  0.00    +0.126 C 
ATOM      2  C   LIG    1       26.361 -13.641   5.133  0.00  0.00    +0.236 C 
ATOM      3  O   LIG    1       26.085 -13.705   6.329  0.00  0.00    -0.274 OA
ATOM      4  N   LIG    1       27.664 -13.714   4.734  0.00  0.00    -0.239 N 
ATOM      5  H   LIG    1       28.350 -13.829   5.468  0.00  0.00    +0.159 HD
ATOM      6  C   LIG    1       28.144 -13.183   3.580  0.00  0.00    +0.312 C 
ATOM      7  O   LIG    1       29.341 -12.996   3.408  0.00  0.00    -0.252 OA
ATOM      8  N   LIG    1       27.225 -12.824   2.646  0.00  0.00    -0.239 N 
ATOM      9  H   LIG    1       27.582 -12.407   1.797  0.00  0.00    +0.159 HD
ATOM     10  C   LIG    1       25.868 -12.935   2.751  0.00  0.00    +0.236 C 
ATOM     11  O   LIG    1       25.155 -12.582   1.812  0.00  0.00    -0.274 OA
ENDROOT
BRANCH   1  12
ATOM     12  C   LIG    1       24.789 -15.015   3.690  0.00  0.00    +0.010 C 
ATOM     13  C   LIG    1       23.497 -15.385   4.446  0.00  0.00    +0.009 C 
BRANCH  12  14
ATOM     14  C   LIG    1       25.852 -16.131   3.915  0.00  0.00    +0.004 C 
BRANCH  14  16
ATOM     15  C   LIG    1       25.297 -18.594   3.687  0.00  0.00    +0.004 C 
ATOM     16  C   LIG    1       25.722 -17.327   2.957  0.00  0.00    -0.003 C 
ENDBRANCH  14  16
ENDBRANCH  12  14
ENDBRANCH   1  12
BRANCH   1  17
ATOM     17  C   LIG    1       24.136 -12.638   4.503  0.00  0.00    +0.022 C 
ATOM     18  C   LIG    1       24.535 -11.447   5.375  0.00  0.00    +0.005 C 
ENDBRANCH   1  17
TORSDOF 4
ENDMDL
MODEL 4
REMARK VINA RESULT:      -3.1      2.196      4.047
REMARK  Name = *****
REMARK                            x       y       z     vdW  Elec       q    Type
REMARK                         _______ _______ _______ _____ _____    ______ ____
ROOT
ATOM      1  C   LIG    1       25.820 -14.234   3.852  0.00  0.00    +0.126 C 
ATOM      2  C   LIG    1       24.641 -15.171   4.064  0.00  0.00    +0.236 C 
ATOM      3  O   LIG    1       23.590 -14.827   4.602  0.00  0.00    -0.274 OA
ATOM      4  N   LIG    1       24.764 -16.434   3.563  0.00  0.00    -0.239 N 
ATOM      5  H   LIG    1       23.954 -17.033   3.660  0.00  0.00    +0.159 HD
ATOM      6  C   LIG    1       25.945 -17.088   3.410  0.00  0.00    +0.312 C 
ATOM      7  O   LIG    1       25.992 -18.301   3.259  0.00  0.00    -0.252 OA
ATOM      8  N   LIG    1       27.072 -16.333   3.482  0.00  0.00    -0.239 N 
ATOM      9  H   LIG    1       27.951 -16.824   3.391  0.00  0.00    +0.159 HD
ATOM     10  C   LIG    1       27.140 -14.987   3.701  0.00  0.00    +0.236 C 
ATOM     11  O   LIG    1       28.238 -14.431   3.724  0.00  0.00    -0.274 OA
ENDROOT
BRANCH   1  12
ATOM     12  C   LIG    1       25.583 -13.385   2.527  0.00  0.00    +0.010 C 
ATOM     13  C   LIG    1       26.525 -12.169   2.414  0.00  0.00    +0.009 C 
BRANCH  12  14
ATOM     14  C   LIG    1       24.111 -12.911   2.340  0.00  0.00    +0.004 C 
BRANCH  14  16
ATOM     15  C   LIG    1       23.455 -11.448   4.302  0.00  0.00    +0.004 C 
ATOM     16  C   LIG    1       23.843 -11.479   2.831  0.00  0.00    -0.003 C 
ENDBRANCH  14  16
ENDBRANCH  12  14
ENDBRANCH   1  12
BRANCH   1  17
ATOM     17  C   LIG    1       25.975 -13.294   5.090  0.00  0.00    +0.022 C 
ATOM     18  C   LIG    1       27.119 -13.647   6.043  0.00  0.00    +0.005 C 
ENDBRANCH   1  17
TORSDOF 4
ENDMDL
MODEL 5
REMARK VINA RESULT:      -3.1      2.167      4.563
REMARK  Name = *****
REMARK                            x       y       z     vdW  Elec       q    Type
REMARK                         _______ _______ _______ _____ _____    ______ ____
ROOT
ATOM      1  C   LIG    1       24.886 -14.350   3.723  0.00  0.00    +0.126 C 
ATOM      2  C   LIG    1       26.003 -14.910   2.855  0.00  0.00    +0.236 C 
ATOM      3  O   LIG    1       26.650 -14.230   2.061  0.00  0.00    -0.274 OA
ATOM      4  N   LIG    1       26.319 -16.226   3.035  0.00  0.00    -0.239 N 
ATOM      5  H   LIG    1       27.098 -16.575   2.494  0.00  0.00    +0.159 HD
ATOM      6  C   LIG    1       25.443 -17.175   3.457  0.00  0.00    +0.312 C 
ATOM      7  O   LIG    1       25.670 -18.368   3.309  0.00  0.00    -0.252 OA
ATOM      8  N   LIG    1       24.283 -16.731   4.007  0.00  0.00    -0.239 N 
ATOM      9  H   LIG    1       23.622 -17.438   4.300  0.00  0.00    +0.159 HD
ATOM     10  C   LIG    1       23.903 -15.430   4.172  0.00  0.00    +0.236 C 
ATOM     11  O   LIG    1       22.823 -15.176   4.705  0.00  0.00    -0.274 OA
ENDROOT
BRANCH   1  12
ATOM     12  C   LIG    1       25.517 -13.687   5.025  0.00  0.00    +0.010 C 
ATOM     13  C   LIG    1       25.198 -12.183   5.150  0.00  0.00    +0.009 C 
BRANCH  12  14
ATOM     14  C   LIG    1       27.056 -13.896   5.153  0.00  0.00    +0.004 C 
BRANCH  14  16
ATOM     15  C   LIG    1       28.944 -12.762   3.900  0.00  0.00    +0.004 C 
ATOM     16  C   LIG    1       27.883 -12.612   4.981  0.00  0.00    -0.003 C 
ENDBRANCH  14  16
ENDBRANCH  12  14
ENDBRANCH   1  12
BRANCH   1  17
ATOM     17  C   LIG    1       24.064 -13.300   2.910  0.00  0.00    +0.022 C 
ATOM     18  C   LIG    1       24.883 -12.401   1.981  0.00  0.00    +0.005 C 
ENDBRANCH   1  17
TORSDOF 4
ENDMDL
MODEL 6
REMARK VINA RESULT:      -3.0      4.778      7.002
REMARK  Name = *****
REMARK                            x       y       z     vdW  Elec       q    Type
REMARK                         _______ _______ _______ _____ _____    ______ ____
ROOT
ATOM      1  C   LIG    1       23.684 -20.110   4.663  0.00  0.00    +0.126 C 
ATOM      2  C   LIG    1       24.860 -20.035   3.700  0.00  0.00    +0.236 C 
ATOM      3  O   LIG    1       24.749 -20.163   2.483  0.00  0.00    -0.274 OA
ATOM      4  N   LIG    1       26.078 -19.746   4.243  0.00  0.00    -0.239 N 
ATOM      5  H   LIG    1       26.844 -19.642   3.590  0.00  0.00    +0.159 HD
ATOM      6  C   LIG    1       26.447 -20.056   5.513  0.00  0.00    +0.312 C 
ATOM      7  O   LIG    1       27.621 -20.065   5.857  0.00  0.00    -0.252 OA
ATOM      8  N   LIG    1       25.450 -20.403   6.368  0.00  0.00    -0.239 N 
ATOM      9  H   LIG    1       25.727 -20.656   7.307  0.00  0.00    +0.159 HD
ATOM     10  C   LIG    1       24.117 -20.479   6.080  0.00  0.00    +0.236 C 
ATOM     11  O   LIG    1       23.322 -20.793   6.966  0.00  0.00    -0.274 OA
ENDROOT
BRANCH   1  12
ATOM     12  C   LIG    1       22.962 -18.693   4.721  0.00  0.00    +0.010 C 
ATOM     13  C   LIG    1       21.574 -18.697   4.049  0.00  0.00    +0.009 C 
BRANCH  12  14
ATOM     14  C   LIG    1       23.814 -17.530   4.130  0.00  0.00    +0.004 C 
BRANCH  14  16
ATOM     15  C   LIG    1       24.210 -15.030   4.018  0.00  0.00    +0.004 C 
ATOM     16  C   LIG    1       23.219 -16.132   4.364  0.00  0.00    -0.003 C 
ENDBRANCH  14  16
ENDBRANCH  12  14
ENDBRANCH   1  12
BRANCH   1  17
ATOM     17  C   LIG    1       22.690 -21.219   4.191  0.00  0.00    +0.022 C 
ATOM     18  C   LIG    1       21.580 -21.572   5.183  0.00  0.00    +0.005 C 
ENDBRANCH   1  17
TORSDOF 4
ENDMDL
MODEL 7
REMARK VINA RESULT:      -2.7      1.402      3.076
REMARK  Name = *****
REMARK                            x       y       z     vdW  Elec       q    Type
REMARK                         _______ _______ _______ _____ _____    ______ ____
ROOT
ATOM      1  C   LIG    1       26.221 -14.113   4.010  0.00  0.00    +0.126 C 
ATOM      2  C   LIG    1       27.213 -13.732   2.922  0.00  0.00    +0.236 C 
ATOM      3  O   LIG    1       27.238 -14.260   1.812  0.00  0.00    -0.274 OA
ATOM      4  N   LIG    1       28.067 -12.705   3.203  0.00  0.00    -0.239 N 
ATOM      5  H   LIG    1       28.685 -12.421   2.455  0.00  0.00    +0.159 HD
ATOM      6  C   LIG    1       28.492 -12.379   4.452  0.00  0.00    +0.312 C 
ATOM      7  O   LIG    1       29.475 -11.673   4.632  0.00  0.00    -0.252 OA
ATOM      8  N   LIG    1       27.799 -12.916   5.490  0.00  0.00    -0.239 N 
ATOM      9  H   LIG    1       28.130 -12.691   6.419  0.00  0.00    +0.159 HD
ATOM     10  C   LIG    1       26.725 -13.755   5.407  0.00  0.00    +0.236 C 
ATOM     11  O   LIG    1       26.184 -14.152   6.439  0.00  0.00    -0.274 OA
ENDROOT
BRANCH   1  12
ATOM     12  C   LIG    1       24.853 -13.337   3.767  0.00  0.00    +0.010 C 
ATOM     13  C   LIG    1       24.618 -12.199   4.781  0.00  0.00    +0.009 C 
BRANCH  12  14
ATOM     14  C   LIG    1       23.602 -14.264   3.739  0.00  0.00    +0.004 C 
BRANCH  14  16
ATOM     15  C   LIG    1       22.311 -16.001   5.058  0.00  0.00    +0.004 C 
ATOM     16  C   LIG    1       23.119 -14.713   5.128  0.00  0.00    -0.003 C 
ENDBRANCH  14  16
ENDBRANCH  12  14
ENDBRANCH   1  12
BRANCH   1  17
ATOM     17  C   LIG    1       25.991 -15.658   3.994  0.00  0.00    +0.022 C 
ATOM     18  C   LIG    1       27.232 -16.504   3.708  0.00  0.00    +0.005 C 
ENDBRANCH   1  17
TORSDOF 4
ENDMDL
MODEL 8
REMARK VINA RESULT:      -2.6      5.288      7.303
REMARK  Name = *****
REMARK                            x       y       z     vdW  Elec       q    Type
REMARK                         _______ _______ _______ _____ _____    ______ ____
ROOT
ATOM      1  C   LIG    1       24.060 -20.482   4.457  0.00  0.00    +0.126 C 
ATOM      2  C   LIG    1       22.600 -20.375   4.872  0.00  0.00    +0.236 C 
ATOM      3  O   LIG    1       21.852 -21.345   4.976  0.00  0.00    -0.274 OA
ATOM      4  N   LIG    1       22.145 -19.130   5.198  0.00  0.00    -0.239 N 
ATOM      5  H   LIG    1       21.190 -19.076   5.526  0.00  0.00    +0.159 HD
ATOM      6  C   LIG    1       22.643 -17.973   4.689  0.00  0.00    +0.312 C 
ATOM      7  O   LIG    1       22.021 -16.921   4.760  0.00  0.00    -0.252 OA
ATOM      8  N   LIG    1       23.842 -18.053   4.055  0.00  0.00    -0.239 N 
ATOM      9  H   LIG    1       24.200 -17.195   3.657  0.00  0.00    +0.159 HD
ATOM     10  C   LIG    1       24.594 -19.177   3.870  0.00  0.00    +0.236 C 
ATOM     11  O   LIG    1       25.675 -19.094   3.287  0.00  0.00    -0.274 OA
ENDROOT
BRANCH   1  12
ATOM     12  C   LIG    1       24.941 -20.847   5.730  0.00  0.00    +0.010 C 
ATOM     13  C   LIG    1       24.193 -20.632   7.062  0.00  0.00    +0.009 C 
BRANCH  12  14
ATOM     14  C   LIG    1       26.307 -20.099   5.784  0.00  0.00    +0.004 C 
BRANCH  14  16
ATOM     15  C   LIG    1       28.743 -20.279   6.459  0.00  0.00    +0.004 C 
ATOM     16  C   LIG    1       27.314 -20.697   6.779  0.00  0.00    -0.003 C 
ENDBRANCH  14  16
ENDBRANCH  12  14
ENDBRANCH   1  12
BRANCH   1  17
ATOM     17  C   LIG    1       24.212 -21.572   3.348  0.00  0.00    +0.022 C 
ATOM     18  C   LIG    1       23.508 -21.266   2.024  0.00  0.00    +0.005 C 
ENDBRANCH   1  17
TORSDOF 4
ENDMDL
MODEL 9
REMARK VINA RESULT:      -2.3      5.515      7.258
REMARK  Name = *****
REMARK                            x       y       z     vdW  Elec       q    Type
REMARK                         _______ _______ _______ _____ _____    ______ ____
ROOT
ATOM      1  C   LIG    1       23.420 -20.446   4.725  0.00  0.00    +0.126 C 
ATOM      2  C   LIG    1       24.617 -21.005   3.971  0.00  0.00    +0.236 C 
ATOM      3  O   LIG    1       24.529 -21.571   2.884  0.00  0.00    -0.274 OA
ATOM      4  N   LIG    1       25.845 -20.796   4.529  0.00  0.00    -0.239 N 
ATOM      5  H   LIG    1       26.639 -21.122   3.994  0.00  0.00    +0.159 HD
ATOM      6  C   LIG    1       26.070 -20.657   5.862  0.00  0.00    +0.312 C 
ATOM      7  O   LIG    1       27.188 -20.784   6.340  0.00  0.00    -0.252 OA
ATOM      8  N   LIG    1       24.982 -20.421   6.641  0.00  0.00    -0.239 N 
ATOM      9  H   LIG    1       25.148 -20.341   7.635  0.00  0.00    +0.159 HD
ATOM     10  C   LIG    1       23.686 -20.316   6.224  0.00  0.00    +0.236 C 
ATOM     11  O   LIG    1       22.801 -20.081   7.046  0.00  0.00    -0.274 OA
ENDROOT
BRANCH   1  12
ATOM     12  C   LIG    1       23.073 -18.999   4.159  0.00  0.00    +0.010 C 
ATOM     13  C   LIG    1       24.316 -18.231   3.667  0.00  0.00    +0.009 C 
BRANCH  12  14
ATOM     14  C   LIG    1       22.283 -18.106   5.162  0.00  0.00    +0.004 C 
BRANCH  14  16
ATOM     15  C   LIG    1       22.402 -15.611   5.587  0.00  0.00    +0.004 C 
ATOM     16  C   LIG    1       21.950 -16.703   4.628  0.00  0.00    -0.003 C 
ENDBRANCH  14  16
ENDBRANCH  12  14
ENDBRANCH   1  12
BRANCH   1  17
ATOM     17  C   LIG    1       22.200 -21.410   4.565  0.00  0.00    +0.022 C 
ATOM     18  C   LIG    1       20.854 -20.730   4.311  0.00  0.00    +0.005 C 
ENDBRANCH   1  17
TORSDOF 4
ENDMDL
