MODEL 1
REMARK VINA RESULT:      -6.0      0.000      0.000
REMARK  Name = *****
REMARK                            x       y       z     vdW  Elec       q    Type
REMARK                         _______ _______ _______ _____ _____    ______ ____
ROOT
ATOM      1  C   LIG    1       24.927 -20.797   7.633  0.00  0.00    -0.000 C 
ENDROOT
BRANCH   1   2
ATOM      2  C   LIG    1       26.298 -20.895   8.305  0.00  0.00    +0.000 C 
BRANCH   2   3
ATOM      3  C   LIG    1       27.272 -21.726   7.466  0.00  0.00    +0.005 C 
BRANCH   3   4
ATOM      4  C   LIG    1       28.416 -20.863   6.923  0.00  0.00    +0.051 C 
BRANCH   4   5
ATOM      5  C   LIG    1       28.819 -19.792   7.940  0.00  0.00    +0.132 C 
BRANCH   5   7
ATOM      6  C   LIG    1       30.848 -21.031   8.652  0.00  0.00    +0.192 C 
ATOM      7  N   LIG    1       30.339 -19.675   8.145  0.00  0.00    +0.237 N 
ATOM      8  C   LIG    1       31.061 -19.357   6.842  0.00  0.00    +0.192 C 
ATOM      9  C   LIG    1       30.685 -18.623   9.193  0.00  0.00    +0.192 C 
ENDBRANCH   5   7
ENDBRANCH   4   5
ENDBRANCH   3   4
ENDBRANCH   2   3
ENDBRANCH   1   2
BRANCH   1  10
ATOM     10  C   LIG    1       24.646 -22.032   6.776  0.00  0.00    -0.000 C 
BRANCH  10  11
ATOM     11  C   LIG    1       23.192 -22.489   6.905  0.00  0.00    +0.000 C 
BRANCH  11  12
ATOM     12  C   LIG    1       23.085 -24.012   6.793  0.00  0.00    +0.005 C 
BRANCH  12  13
ATOM     13  C   LIG    1       24.443 -24.635   6.464  0.00  0.00    +0.051 C 
BRANCH  13  14
ATOM     14  C   LIG    1       24.304 -25.780   5.455  0.00  0.00    +0.132 C 
BRANCH  14  15
ATOM     15  N   LIG    1       25.191 -26.997   5.784  0.00  0.00    +0.237 N 
ATOM     16  C   LIG    1       24.377 -28.287   5.824  0.00  0.00    +0.192 C 
ATOM     17  C   LIG    1       25.934 -26.812   7.104  0.00  0.00    +0.192 C 
ATOM     18  C   LIG    1       26.242 -27.139   4.674  0.00  0.00    +0.192 C 
ENDBRANCH  14  15
ENDBRANCH  13  14
ENDBRANCH  12  13
ENDBRANCH  11  12
ENDBRANCH  10  11
ENDBRANCH   1  10
TORSDOF 11
ENDMDL
MODEL 2
REMARK VINA RESULT:      -5.9      1.065      1.606
REMARK  Name = *****
REMARK                            x       y       z     vdW  Elec       q    Type
REMARK                         _______ _______ _______ _____ _____    ______ ____
ROOT
ATOM      1  C   LIG    1       24.325 -20.896   5.267  0.00  0.00    -0.000 C 
ENDROOT
BRANCH   1   2
ATOM      2  C   LIG    1       25.732 -20.297   5.230  0.00  0.00    +0.000 C 
BRANCH   2   3
ATOM      3  C   LIG    1       26.419 -20.400   6.593  0.00  0.00    +0.005 C 
BRANCH   3   4
ATOM      4  C   LIG    1       27.939 -20.259   6.462  0.00  0.00    +0.051 C 
BRANCH   4   5
ATOM      5  C   LIG    1       28.612 -20.346   7.834  0.00  0.00    +0.132 C 
BRANCH   5   7
ATOM      6  C   LIG    1       30.990 -20.641   8.482  0.00  0.00    +0.192 C 
ATOM      7  N   LIG    1       29.980 -19.645   7.896  0.00  0.00    +0.237 N 
ATOM      8  C   LIG    1       30.468 -19.237   6.512  0.00  0.00    +0.192 C 
ATOM      9  C   LIG    1       29.944 -18.424   8.809  0.00  0.00    +0.192 C 
ENDBRANCH   5   7
ENDBRANCH   4   5
ENDBRANCH   3   4
ENDBRANCH   2   3
ENDBRANCH   1   2
BRANCH   1  10
ATOM     10  C   LIG    1       23.904 -21.219   6.701  0.00  0.00    -0.000 C 
BRANCH  10  11
ATOM     11  C   LIG    1       23.512 -22.689   6.857  0.00  0.00    +0.000 C 
BRANCH  11  12
ATOM     12  C   LIG    1       24.753 -23.578   6.967  0.00  0.00    +0.005 C 
BRANCH  12  13
ATOM     13  C   LIG    1       24.848 -24.539   5.780  0.00  0.00    +0.051 C 
BRANCH  13  14
ATOM     14  C   LIG    1       24.150 -25.870   6.079  0.00  0.00    +0.132 C 
BRANCH  14  15
ATOM     15  N   LIG    1       25.072 -27.095   5.916  0.00  0.00    +0.237 N 
ATOM     16  C   LIG    1       25.986 -26.948   4.703  0.00  0.00    +0.192 C 
ATOM     17  C   LIG    1       24.274 -28.391   5.810  0.00  0.00    +0.192 C 
ATOM     18  C   LIG    1       25.960 -27.196   7.164  0.00  0.00    +0.192 C 
ENDBRANCH  14  15
ENDBRANCH  13  14
ENDBRANCH  12  13
ENDBRANCH  11  12
ENDBRANCH  10  11
ENDBRANCH   1  10
TORSDOF 11
ENDMDL
MODEL 3
REMARK VINA RESULT:      -5.9      0.671      7.673
REMARK  Name = *****
REMARK                            x       y       z     vdW  Elec       q    Type
REMARK                         _______ _______ _______ _____ _____    ______ ____
ROOT
ATOM      1  C   LIG    1       23.692 -21.544   7.537  0.00  0.00    -0.000 C 
ENDROOT
BRANCH   1   2
ATOM      2  C   LIG    1       23.513 -22.826   6.720  0.00  0.00    +0.000 C 
BRANCH   2   3
ATOM      3  C   LIG    1       24.724 -23.751   6.863  0.00  0.00    +0.005 C 
BRANCH   3   4
ATOM      4  C   LIG    1       24.852 -24.689   5.658  0.00  0.00    +0.051 C 
BRANCH   4   5
ATOM      5  C   LIG    1       24.166 -26.028   5.938  0.00  0.00    +0.132 C 
BRANCH   5   7
ATOM      6  C   LIG    1       25.863 -27.325   7.203  0.00  0.00    +0.192 C 
ATOM      7  N   LIG    1       25.116 -27.236   5.866  0.00  0.00    +0.237 N 
ATOM      8  C   LIG    1       24.354 -28.540   5.663  0.00  0.00    +0.192 C 
ATOM      9  C   LIG    1       26.153 -27.071   4.760  0.00  0.00    +0.192 C 
ENDBRANCH   5   7
ENDBRANCH   4   5
ENDBRANCH   3   4
ENDBRANCH   2   3
ENDBRANCH   1   2
BRANCH   1  10
ATOM     10  C   LIG    1       24.927 -20.769   7.079  0.00  0.00    -0.000 C 
BRANCH  10  11
ATOM     11  C   LIG    1       25.939 -20.598   8.212  0.00  0.00    +0.000 C 
BRANCH  11  12
ATOM     12  C   LIG    1       27.246 -21.328   7.893  0.00  0.00    +0.005 C 
BRANCH  12  13
ATOM     13  C   LIG    1       28.243 -20.394   7.204  0.00  0.00    +0.051 C 
BRANCH  13  14
ATOM     14  C   LIG    1       28.846 -19.390   8.193  0.00  0.00    +0.132 C 
BRANCH  14  15
ATOM     15  N   LIG    1       30.378 -19.265   8.079  0.00  0.00    +0.237 N 
ATOM     16  C   LIG    1       31.085 -20.439   8.750  0.00  0.00    +0.192 C 
ATOM     17  C   LIG    1       30.882 -17.951   8.669  0.00  0.00    +0.192 C 
ATOM     18  C   LIG    1       30.752 -19.280   6.590  0.00  0.00    +0.192 C 
ENDBRANCH  14  15
ENDBRANCH  13  14
ENDBRANCH  12  13
ENDBRANCH  11  12
ENDBRANCH  10  11
ENDBRANCH   1  10
TORSDOF 11
ENDMDL
MODEL 4
REMARK VINA RESULT:      -5.8      2.789      4.238
REMARK  Name = *****
REMARK                            x       y       z     vdW  Elec       q    Type
REMARK                         _______ _______ _______ _____ _____    ______ ____
ROOT
ATOM      1  C   LIG    1       25.773 -22.161   8.468  0.00  0.00    -0.000 C 
ENDROOT
BRANCH   1   2
ATOM      2  C   LIG    1       26.787 -21.034   8.261  0.00  0.00    +0.000 C 
BRANCH   2   3
ATOM      3  C   LIG    1       27.740 -21.346   7.105  0.00  0.00    +0.005 C 
BRANCH   3   4
ATOM      4  C   LIG    1       28.657 -20.157   6.804  0.00  0.00    +0.051 C 
BRANCH   4   5
ATOM      5  C   LIG    1       29.116 -19.482   8.098  0.00  0.00    +0.132 C 
BRANCH   5   7
ATOM      6  C   LIG    1       31.359 -19.310   7.050  0.00  0.00    +0.192 C 
ATOM      7  N   LIG    1       30.626 -19.613   8.363  0.00  0.00    +0.237 N 
ATOM      8  C   LIG    1       31.103 -18.615   9.411  0.00  0.00    +0.192 C 
ATOM      9  C   LIG    1       31.000 -21.027   8.793  0.00  0.00    +0.192 C 
ENDBRANCH   5   7
ENDBRANCH   4   5
ENDBRANCH   3   4
ENDBRANCH   2   3
ENDBRANCH   1   2
BRANCH   1  10
ATOM     10  C   LIG    1       25.582 -22.970   7.185  0.00  0.00    -0.000 C 
BRANCH  10  11
ATOM     11  C   LIG    1       24.113 -23.018   6.762  0.00  0.00    +0.000 C 
BRANCH  11  12
ATOM     12  C   LIG    1       23.298 -21.945   7.489  0.00  0.00    +0.005 C 
BRANCH  12  13
ATOM     13  C   LIG    1       23.260 -20.644   6.684  0.00  0.00    +0.051 C 
BRANCH  13  14
ATOM     14  C   LIG    1       22.948 -20.909   5.207  0.00  0.00    +0.132 C 
BRANCH  14  15
ATOM     15  N   LIG    1       23.887 -20.163   4.239  0.00  0.00    +0.237 N 
ATOM     16  C   LIG    1       25.281 -19.990   4.836  0.00  0.00    +0.192 C 
ATOM     17  C   LIG    1       23.321 -18.804   3.839  0.00  0.00    +0.192 C 
ATOM     18  C   LIG    1       24.025 -21.004   2.962  0.00  0.00    +0.192 C 
ENDBRANCH  14  15
ENDBRANCH  13  14
ENDBRANCH  12  13
ENDBRANCH  11  12
ENDBRANCH  10  11
ENDBRANCH   1  10
TORSDOF 11
ENDMDL
MODEL 5
REMARK VINA RESULT:      -5.7      2.724      6.839
REMARK  Name = *****
REMARK                            x       y       z     vdW  Elec       q    Type
REMARK                         _______ _______ _______ _____ _____    ______ ____
ROOT
ATOM      1  C   LIG    1       24.630 -23.652   6.566  0.00  0.00    -0.000 C 
ENDROOT
BRANCH   1   2
ATOM      2  C   LIG    1       23.517 -22.789   7.165  0.00  0.00    +0.000 C 
BRANCH   2   3
ATOM      3  C   LIG    1       22.838 -21.932   6.095  0.00  0.00    +0.005 C 
BRANCH   3   4
ATOM      4  C   LIG    1       23.267 -20.466   6.200  0.00  0.00    +0.051 C 
BRANCH   4   5
ATOM      5  C   LIG    1       24.526 -20.207   5.370  0.00  0.00    +0.132 C 
BRANCH   5   7
ATOM      6  C   LIG    1       24.141 -20.682   2.965  0.00  0.00    +0.192 C 
ATOM      7  N   LIG    1       24.244 -19.558   4.004  0.00  0.00    +0.237 N 
ATOM      8  C   LIG    1       22.926 -18.794   4.004  0.00  0.00    +0.192 C 
ATOM      9  C   LIG    1       25.376 -18.629   3.579  0.00  0.00    +0.192 C 
ENDBRANCH   5   7
ENDBRANCH   4   5
ENDBRANCH   3   4
ENDBRANCH   2   3
ENDBRANCH   1   2
BRANCH   1  10
ATOM     10  C   LIG    1       25.995 -23.254   7.128  0.00  0.00    -0.000 C 
BRANCH  10  11
ATOM     11  C   LIG    1       25.859 -22.394   8.385  0.00  0.00    +0.000 C 
BRANCH  11  12
ATOM     12  C   LIG    1       26.525 -21.029   8.189  0.00  0.00    +0.005 C 
BRANCH  12  13
ATOM     13  C   LIG    1       28.003 -21.186   7.827  0.00  0.00    +0.051 C 
BRANCH  13  14
ATOM     14  C   LIG    1       28.618 -19.851   7.392  0.00  0.00    +0.132 C 
BRANCH  14  15
ATOM     15  N   LIG    1       30.060 -19.648   7.897  0.00  0.00    +0.237 N 
ATOM     16  C   LIG    1       30.620 -20.926   8.515  0.00  0.00    +0.192 C 
ATOM     17  C   LIG    1       30.149 -18.504   8.903  0.00  0.00    +0.192 C 
ATOM     18  C   LIG    1       30.942 -19.280   6.696  0.00  0.00    +0.192 C 
ENDBRANCH  14  15
ENDBRANCH  13  14
ENDBRANCH  12  13
ENDBRANCH  11  12
ENDBRANCH  10  11
ENDBRANCH   1  10
TORSDOF 11
ENDMDL
MODEL 6
REMARK VINA RESULT:      -5.7      4.872      5.788
REMARK  Name = *****
REMARK                            x       y       z     vdW  Elec       q    Type
REMARK                         _______ _______ _______ _____ _____    ______ ____
ROOT
ATOM      1  C   LIG    1       23.241 -18.541   3.734  0.00  0.00    -0.000 C 
ENDROOT
BRANCH   1   2
ATOM      2  C   LIG    1       24.556 -19.316   3.626  0.00  0.00    +0.000 C 
BRANCH   2   3
ATOM      3  C   LIG    1       25.752 -18.371   3.497  0.00  0.00    +0.005 C 
BRANCH   3   4
ATOM      4  C   LIG    1       25.298 -16.914   3.359  0.00  0.00    +0.051 C 
BRANCH   4   5
ATOM      5  C   LIG    1       26.494 -15.963   3.438  0.00  0.00    +0.132 C 
BRANCH   5   7
ATOM      6  C   LIG    1       24.627 -14.457   4.076  0.00  0.00    +0.192 C 
ATOM      7  N   LIG    1       26.100 -14.491   3.649  0.00  0.00    +0.237 N 
ATOM      8  C   LIG    1       26.926 -13.839   4.751  0.00  0.00    +0.192 C 
ATOM      9  C   LIG    1       26.233 -13.684   2.362  0.00  0.00    +0.192 C 
ENDBRANCH   5   7
ENDBRANCH   4   5
ENDBRANCH   3   4
ENDBRANCH   2   3
ENDBRANCH   1   2
BRANCH   1  10
ATOM     10  C   LIG    1       22.441 -18.986   4.959  0.00  0.00    -0.000 C 
BRANCH  10  11
ATOM     11  C   LIG    1       22.763 -20.430   5.349  0.00  0.00    +0.000 C 
BRANCH  11  12
ATOM     12  C   LIG    1       23.233 -20.512   6.804  0.00  0.00    +0.005 C 
BRANCH  12  13
ATOM     13  C   LIG    1       24.695 -20.958   6.883  0.00  0.00    +0.051 C 
BRANCH  13  14
ATOM     14  C   LIG    1       24.828 -22.321   7.571  0.00  0.00    +0.132 C 
BRANCH  14  15
ATOM     15  N   LIG    1       24.702 -23.511   6.600  0.00  0.00    +0.237 N 
ATOM     16  C   LIG    1       24.965 -23.086   5.158  0.00  0.00    +0.192 C 
ATOM     17  C   LIG    1       23.334 -24.180   6.702  0.00  0.00    +0.192 C 
ATOM     18  C   LIG    1       25.760 -24.556   6.982  0.00  0.00    +0.192 C 
ENDBRANCH  14  15
ENDBRANCH  13  14
ENDBRANCH  12  13
ENDBRANCH  11  12
ENDBRANCH  10  11
ENDBRANCH   1  10
TORSDOF 11
ENDMDL
MODEL 7
REMARK VINA RESULT:      -5.7      2.724      7.253
REMARK  Name = *****
REMARK                            x       y       z     vdW  Elec       q    Type
REMARK                         _______ _______ _______ _____ _____    ______ ____
ROOT
ATOM      1  C   LIG    1       26.113 -23.055   7.360  0.00  0.00    -0.000 C 
ENDROOT
BRANCH   1   2
ATOM      2  C   LIG    1       24.840 -23.239   6.531  0.00  0.00    +0.000 C 
BRANCH   2   3
ATOM      3  C   LIG    1       23.661 -22.479   7.142  0.00  0.00    +0.005 C 
BRANCH   3   4
ATOM      4  C   LIG    1       22.867 -21.728   6.068  0.00  0.00    +0.051 C 
BRANCH   4   5
ATOM      5  C   LIG    1       23.458 -20.336   5.831  0.00  0.00    +0.132 C 
BRANCH   5   7
ATOM      6  C   LIG    1       23.556 -18.932   3.787  0.00  0.00    +0.192 C 
ATOM      7  N   LIG    1       24.141 -20.179   4.462  0.00  0.00    +0.237 N 
ATOM      8  C   LIG    1       25.645 -19.977   4.603  0.00  0.00    +0.192 C 
ATOM      9  C   LIG    1       23.867 -21.375   3.557  0.00  0.00    +0.192 C 
ENDBRANCH   5   7
ENDBRANCH   4   5
ENDBRANCH   3   4
ENDBRANCH   2   3
ENDBRANCH   1   2
BRANCH   1  10
ATOM     10  C   LIG    1       25.911 -21.998   8.447  0.00  0.00    -0.000 C 
BRANCH  10  11
ATOM     11  C   LIG    1       26.645 -20.698   8.113  0.00  0.00    +0.000 C 
BRANCH  11  12
ATOM     12  C   LIG    1       27.910 -20.978   7.296  0.00  0.00    +0.005 C 
BRANCH  12  13
ATOM     13  C   LIG    1       28.580 -19.674   6.859  0.00  0.00    +0.051 C 
BRANCH  13  14
ATOM     14  C   LIG    1       30.108 -19.799   6.869  0.00  0.00    +0.132 C 
BRANCH  14  15
ATOM     15  N   LIG    1       30.750 -19.350   8.195  0.00  0.00    +0.237 N 
ATOM     16  C   LIG    1       31.961 -18.452   7.954  0.00  0.00    +0.192 C 
ATOM     17  C   LIG    1       31.152 -20.541   9.059  0.00  0.00    +0.192 C 
ATOM     18  C   LIG    1       29.711 -18.536   8.980  0.00  0.00    +0.192 C 
ENDBRANCH  14  15
ENDBRANCH  13  14
ENDBRANCH  12  13
ENDBRANCH  11  12
ENDBRANCH  10  11
ENDBRANCH   1  10
TORSDOF 11
ENDMDL
MODEL 8
REMARK VINA RESULT:      -5.7      2.462      7.341
REMARK  Name = *****
REMARK                            x       y       z     vdW  Elec       q    Type
REMARK                         _______ _______ _______ _____ _____    ______ ____
ROOT
ATOM      1  C   LIG    1       24.737 -19.677   3.541  0.00  0.00    -0.000 C 
ENDROOT
BRANCH   1   2
ATOM      2  C   LIG    1       23.620 -18.736   3.996  0.00  0.00    +0.000 C 
BRANCH   2   3
ATOM      3  C   LIG    1       22.493 -19.501   4.692  0.00  0.00    +0.005 C 
BRANCH   3   4
ATOM      4  C   LIG    1       23.012 -20.266   5.914  0.00  0.00    +0.051 C 
BRANCH   4   5
ATOM      5  C   LIG    1       22.669 -21.754   5.810  0.00  0.00    +0.132 C 
BRANCH   5   7
ATOM      6  C   LIG    1       23.098 -23.987   6.804  0.00  0.00    +0.192 C 
ATOM      7  N   LIG    1       23.767 -22.681   6.358  0.00  0.00    +0.237 N 
ATOM      8  C   LIG    1       24.802 -23.021   5.292  0.00  0.00    +0.192 C 
ATOM      9  C   LIG    1       24.462 -22.073   7.572  0.00  0.00    +0.192 C 
ENDBRANCH   5   7
ENDBRANCH   4   5
ENDBRANCH   3   4
ENDBRANCH   2   3
ENDBRANCH   1   2
BRANCH   1  10
ATOM     10  C   LIG    1       26.097 -19.207   4.059  0.00  0.00    -0.000 C 
BRANCH  10  11
ATOM     11  C   LIG    1       26.587 -20.073   5.221  0.00  0.00    +0.000 C 
BRANCH  11  12
ATOM     12  C   LIG    1       28.034 -19.729   5.587  0.00  0.00    +0.005 C 
BRANCH  12  13
ATOM     13  C   LIG    1       28.494 -20.522   6.812  0.00  0.00    +0.051 C 
BRANCH  13  14
ATOM     14  C   LIG    1       28.931 -19.592   7.950  0.00  0.00    +0.132 C 
BRANCH  14  15
ATOM     15  N   LIG    1       30.446 -19.641   8.231  0.00  0.00    +0.237 N 
ATOM     16  C   LIG    1       30.830 -18.714   9.381  0.00  0.00    +0.192 C 
ATOM     17  C   LIG    1       31.261 -19.292   6.990  0.00  0.00    +0.192 C 
ATOM     18  C   LIG    1       30.812 -21.074   8.641  0.00  0.00    +0.192 C 
ENDBRANCH  14  15
ENDBRANCH  13  14
ENDBRANCH  12  13
ENDBRANCH  11  12
ENDBRANCH  10  11
ENDBRANCH   1  10
TORSDOF 11
ENDMDL
MODEL 9
REMARK VINA RESULT:      -5.6      2.361      4.558
REMARK  Name = *****
REMARK                            x       y       z     vdW  Elec       q    Type
REMARK                         _______ _______ _______ _____ _____    ______ ____
ROOT
ATOM      1  C   LIG    1       28.826 -19.651   7.204  0.00  0.00    -0.000 C 
ENDROOT
BRANCH   1   2
ATOM      2  C   LIG    1       30.099 -19.213   6.476  0.00  0.00    +0.000 C 
BRANCH   2   3
ATOM      3  C   LIG    1       31.278 -19.083   7.442  0.00  0.00    +0.005 C 
BRANCH   3   4
ATOM      4  C   LIG    1       30.891 -18.280   8.688  0.00  0.00    +0.051 C 
BRANCH   4   5
ATOM      5  C   LIG    1       32.093 -18.109   9.619  0.00  0.00    +0.132 C 
BRANCH   5   7
ATOM      6  C   LIG    1       30.650 -16.516  10.859  0.00  0.00    +0.192 C 
ATOM      7  N   LIG    1       32.089 -16.783  10.399  0.00  0.00    +0.237 N 
ATOM      8  C   LIG    1       32.975 -16.854  11.636  0.00  0.00    +0.192 C 
ATOM      9  C   LIG    1       32.525 -15.614   9.521  0.00  0.00    +0.192 C 
ENDBRANCH   5   7
ENDBRANCH   4   5
ENDBRANCH   3   4
ENDBRANCH   2   3
ENDBRANCH   1   2
BRANCH   1  10
ATOM     10  C   LIG    1       28.838 -21.155   7.475  0.00  0.00    -0.000 C 
BRANCH  10  11
ATOM     11  C   LIG    1       27.448 -21.673   7.845  0.00  0.00    +0.000 C 
BRANCH  11  12
ATOM     12  C   LIG    1       26.502 -20.515   8.174  0.00  0.00    +0.005 C 
BRANCH  12  13
ATOM     13  C   LIG    1       25.110 -20.758   7.585  0.00  0.00    +0.051 C 
BRANCH  13  14
ATOM     14  C   LIG    1       24.700 -22.230   7.707  0.00  0.00    +0.132 C 
BRANCH  14  15
ATOM     15  N   LIG    1       24.063 -22.795   6.423  0.00  0.00    +0.237 N 
ATOM     16  C   LIG    1       22.750 -23.514   6.721  0.00  0.00    +0.192 C 
ATOM     17  C   LIG    1       25.013 -23.736   5.688  0.00  0.00    +0.192 C 
ATOM     18  C   LIG    1       23.753 -21.621   5.483  0.00  0.00    +0.192 C 
ENDBRANCH  14  15
ENDBRANCH  13  14
ENDBRANCH  12  13
ENDBRANCH  11  12
ENDBRANCH  10  11
ENDBRANCH   1  10
TORSDOF 11
ENDMDL
