MODEL 1
REMARK VINA RESULT:      12.9      0.000      0.000
REMARK  Name = *****
REMARK                            x       y       z     vdW  Elec       q    Type
REMARK                         _______ _______ _______ _____ _____    ______ ____
ROOT
ATOM      1  C   LIG    1       24.372 -17.096   4.748  0.00  0.00    +0.250 C 
ATOM      2  C   LIG    1       24.003 -18.431   5.449  0.00  0.00    +0.092 C 
ATOM      3  C   LIG    1       23.144 -19.188   4.357  0.00  0.00    +0.054 C 
ATOM      4  N   LIG    1       22.928 -20.637   4.596  0.00  0.00    -0.292 NA
ATOM      5  C   LIG    1       22.492 -20.849   5.996  0.00  0.00    +0.090 C 
ATOM      6  C   LIG    1       23.627 -20.980   7.023  0.00  0.00    +0.051 C 
ATOM      7  C   LIG    1       25.001 -20.479   6.639  0.00  0.00    -0.039 A 
ATOM      8  C   LIG    1       26.094 -21.275   7.043  0.00  0.00    +0.053 A 
ATOM      9  C   LIG    1       27.363 -20.891   6.687  0.00  0.00    +0.167 A 
ATOM     10  O   LIG    1       28.508 -21.571   6.958  0.00  0.00    -0.453 OA
ATOM     11  C   LIG    1       29.473 -20.743   6.278  0.00  0.00    +0.466 C 
ATOM     12  O   LIG    1       28.902 -19.550   5.702  0.00  0.00    -0.453 OA
ATOM     13  C   LIG    1       27.584 -19.746   5.975  0.00  0.00    +0.167 A 
ATOM     14  C   LIG    1       26.549 -18.922   5.584  0.00  0.00    +0.054 A 
ATOM     15  C   LIG    1       21.860 -21.046   3.668  0.00  0.00    +0.085 C 
ATOM     16  C   LIG    1       20.933 -19.854   3.526  0.00  0.00    +0.017 C 
ATOM     17  C   LIG    1       21.701 -18.675   4.121  0.00  0.00    +0.029 C 
ATOM     18  C   LIG    1       23.936 -18.797   3.133  0.00  0.00    +0.041 C 
ATOM     19  C   LIG    1       25.217 -19.274   5.913  0.00  0.00    -0.031 A 
ATOM     20  C   LIG    1       24.531 -17.601   3.321  0.00  0.00    +0.136 C 
ENDROOT
BRANCH  20  21
ATOM     21  O   LIG    1       25.381 -16.927   2.486  0.00  0.00    -0.496 OA
ATOM     22  C   LIG    1       26.501 -16.320   3.129  0.00  0.00    +0.277 C 
ENDBRANCH  20  21
BRANCH   1  23
ATOM     23  O   LIG    1       23.249 -16.206   4.871  0.00  0.00    -0.451 OA
BRANCH  23  24
ATOM     24  C   LIG    1       23.155 -15.162   3.968  0.00  0.00    +0.340 C 
ATOM     25  O   LIG    1       22.677 -15.272   2.865  0.00  0.00    -0.248 OA
BRANCH  24  26
ATOM     26  C   LIG    1       23.708 -13.867   4.682  0.00  0.00    +0.172 C 
BRANCH  26  27
ATOM     27  O   LIG    1       22.870 -13.618   5.843  0.00  0.00    -0.377 OA
ATOM     28  H   LIG    1       22.734 -14.499   6.246  0.00  0.00    +0.211 HD
ENDBRANCH  26  27
BRANCH  26  29
ATOM     29  C   LIG    1       23.509 -12.650   3.769  0.00  0.00    +0.166 C 
BRANCH  29  30
ATOM     30  C   LIG    1       24.076 -12.854   2.387  0.00  0.00    +0.310 C 
ATOM     31  O   LIG    1       24.201 -13.928   1.822  0.00  0.00    -0.251 OA
BRANCH  30  33
ATOM     32  C   LIG    1       25.837 -11.454   1.882  0.00  0.00    +0.280 C 
ATOM     33  O   LIG    1       24.425 -11.668   1.814  0.00  0.00    -0.468 OA
ENDBRANCH  30  33
ENDBRANCH  29  30
ENDBRANCH  26  29
BRANCH  26  34
ATOM     34  C   LIG    1       25.154 -14.043   5.241  0.00  0.00    +0.047 C 
BRANCH  34  35
ATOM     35  C   LIG    1       25.909 -12.752   5.673  0.00  0.00    +0.006 C 
BRANCH  35  36
ATOM     36  C   LIG    1       26.860 -12.254   4.548  0.00  0.00    +0.034 C 
BRANCH  36  37
ATOM     37  C   LIG    1       28.297 -12.840   4.565  0.00  0.00    +0.060 C 
ATOM     38  C   LIG    1       29.204 -12.143   5.595  0.00  0.00    +0.041 C 
ATOM     39  C   LIG    1       28.969 -12.711   3.199  0.00  0.00    +0.041 C 
BRANCH  37  40
ATOM     40  O   LIG    1       28.236 -14.227   4.901  0.00  0.00    -0.389 OA
ATOM     41  H   LIG    1       27.753 -14.314   5.741  0.00  0.00    +0.210 HD
ENDBRANCH  37  40
ENDBRANCH  36  37
ENDBRANCH  35  36
ENDBRANCH  34  35
ENDBRANCH  26  34
ENDBRANCH  24  26
ENDBRANCH  23  24
ENDBRANCH   1  23
TORSDOF 13
ENDMDL
