MODEL 1
REMARK VINA RESULT:      -9.9      0.000      0.000
REMARK  Name = *****
REMARK                            x       y       z     vdW  Elec       q    Type
REMARK                         _______ _______ _______ _____ _____    ______ ____
ROOT
ATOM      1  O   LIG    1       28.074 -20.263   8.059  0.00  0.00    -0.367 OA
ENDROOT
BRANCH   1   7
ATOM      2  C   LIG    1       31.948 -17.643   9.262  0.00  0.00    +0.388 A 
ATOM      3  N   LIG    1       31.809 -18.837   9.945  0.00  0.00    -0.128 NA
ATOM      4  C   LIG    1       31.139 -19.609   9.125  0.00  0.00    +0.304 A 
ATOM      5  O   LIG    1       30.725 -20.835   9.426  0.00  0.00    -0.461 OA
ATOM      6  C   LIG    1       30.165 -21.587   8.344  0.00  0.00    +0.265 C 
ATOM      7  C   LIG    1       29.264 -20.755   7.408  0.00  0.00    +0.176 C 
ATOM      8  C   LIG    1       30.088 -19.574   6.882  0.00  0.00    +0.161 C 
ATOM      9  N   LIG    1       30.857 -18.972   7.948  0.00  0.00    -0.292 N 
ATOM     10  C   LIG    1       31.385 -17.716   7.999  0.00  0.00    +0.197 A 
BRANCH   2  12
ATOM     11  O   LIG    1       33.025 -16.638  11.010  0.00  0.00    +0.043 OA
ATOM     12  N   LIG    1       32.586 -16.494   9.864  0.00  0.00    +0.102 N 
ATOM     13  O   LIG    1       32.650 -15.450   9.192  0.00  0.00    -0.575 OA
ENDBRANCH   2  12
ENDBRANCH   1   7
BRANCH   1  14
ATOM     14  C   LIG    1       27.062 -21.268   8.199  0.00  0.00    +0.195 C 
BRANCH  14  15
ATOM     15  C   LIG    1       25.882 -21.004   7.295  0.00  0.00    -0.022 A 
ATOM     16  C   LIG    1       26.084 -20.682   5.948  0.00  0.00    +0.009 A 
ATOM     17  C   LIG    1       25.003 -20.385   5.107  0.00  0.00    +0.046 A 
ATOM     18  C   LIG    1       23.703 -20.381   5.605  0.00  0.00    +0.130 A 
ATOM     19  C   LIG    1       23.496 -20.703   6.950  0.00  0.00    +0.046 A 
ATOM     20  C   LIG    1       24.573 -21.001   7.792  0.00  0.00    +0.009 A 
BRANCH  18  21
ATOM     21  O   LIG    1       22.564 -20.133   4.902  0.00  0.00    -0.406 OA
BRANCH  21  22
ATOM     22  C   LIG    1       22.272 -18.824   4.433  0.00  0.00    +0.575 C 
ATOM     23  F   LIG    1       21.054 -18.851   3.844  0.00  0.00    -0.133 F 
ATOM     24  F   LIG    1       23.179 -18.465   3.499  0.00  0.00    -0.133 F 
ATOM     25  F   LIG    1       22.237 -17.880   5.395  0.00  0.00    -0.133 F 
ENDBRANCH  21  22
ENDBRANCH  18  21
ENDBRANCH  14  15
ENDBRANCH   1  14
TORSDOF 6
ENDMDL
MODEL 2
REMARK VINA RESULT:      -9.4      2.050      2.811
REMARK  Name = *****
REMARK                            x       y       z     vdW  Elec       q    Type
REMARK                         _______ _______ _______ _____ _____    ______ ____
ROOT
ATOM      1  O   LIG    1       29.567 -20.085   8.635  0.00  0.00    -0.367 OA
ENDROOT
BRANCH   1   7
ATOM      2  C   LIG    1       31.715 -16.883  11.542  0.00  0.00    +0.388 A 
ATOM      3  N   LIG    1       32.573 -17.686  10.814  0.00  0.00    -0.128 NA
ATOM      4  C   LIG    1       31.894 -18.006   9.740  0.00  0.00    +0.304 A 
ATOM      5  O   LIG    1       32.331 -18.838   8.801  0.00  0.00    -0.461 OA
ATOM      6  C   LIG    1       31.526 -18.925   7.621  0.00  0.00    +0.265 C 
ATOM      7  C   LIG    1       30.008 -18.923   7.902  0.00  0.00    +0.176 C 
ATOM      8  C   LIG    1       29.673 -17.657   8.698  0.00  0.00    +0.161 C 
ATOM      9  N   LIG    1       30.651 -17.434   9.740  0.00  0.00    -0.292 N 
ATOM     10  C   LIG    1       30.518 -16.689  10.874  0.00  0.00    +0.197 A 
BRANCH   2  12
ATOM     11  O   LIG    1       31.471 -15.366  13.235  0.00  0.00    +0.043 OA
ATOM     12  N   LIG    1       32.077 -16.370  12.843  0.00  0.00    +0.102 N 
ATOM     13  O   LIG    1       32.964 -16.970  13.475  0.00  0.00    -0.575 OA
ENDBRANCH   2  12
ENDBRANCH   1   7
BRANCH   1  14
ATOM     14  C   LIG    1       29.335 -21.220   7.790  0.00  0.00    +0.195 C 
BRANCH  14  15
ATOM     15  C   LIG    1       27.955 -21.187   7.177  0.00  0.00    -0.022 A 
ATOM     16  C   LIG    1       27.014 -22.169   7.506  0.00  0.00    +0.009 A 
ATOM     17  C   LIG    1       25.746 -22.183   6.909  0.00  0.00    +0.046 A 
ATOM     18  C   LIG    1       25.407 -21.229   5.954  0.00  0.00    +0.130 A 
ATOM     19  C   LIG    1       26.343 -20.244   5.623  0.00  0.00    +0.046 A 
ATOM     20  C   LIG    1       27.610 -20.227   6.218  0.00  0.00    +0.009 A 
BRANCH  18  21
ATOM     21  O   LIG    1       24.212 -21.110   5.312  0.00  0.00    -0.406 OA
BRANCH  21  22
ATOM     22  C   LIG    1       23.008 -20.944   6.047  0.00  0.00    +0.575 C 
ATOM     23  F   LIG    1       22.168 -20.181   5.310  0.00  0.00    -0.133 F 
ATOM     24  F   LIG    1       23.268 -20.287   7.198  0.00  0.00    -0.133 F 
ATOM     25  F   LIG    1       22.365 -22.094   6.335  0.00  0.00    -0.133 F 
ENDBRANCH  21  22
ENDBRANCH  18  21
ENDBRANCH  14  15
ENDBRANCH   1  14
TORSDOF 6
ENDMDL
MODEL 3
REMARK VINA RESULT:      -9.3      1.224      1.790
REMARK  Name = *****
REMARK                            x       y       z     vdW  Elec       q    Type
REMARK                         _______ _______ _______ _____ _____    ______ ____
ROOT
ATOM      1  O   LIG    1       28.964 -19.410   7.445  0.00  0.00    -0.367 OA
ENDROOT
BRANCH   1   7
ATOM      2  C   LIG    1       32.142 -16.988  10.158  0.00  0.00    +0.388 A 
ATOM      3  N   LIG    1       31.709 -18.189  10.689  0.00  0.00    -0.128 NA
ATOM      4  C   LIG    1       31.388 -18.914   9.645  0.00  0.00    +0.304 A 
ATOM      5  O   LIG    1       30.850 -20.126   9.716  0.00  0.00    -0.461 OA
ATOM      6  C   LIG    1       30.734 -20.831   8.475  0.00  0.00    +0.265 C 
ATOM      7  C   LIG    1       30.298 -19.940   7.293  0.00  0.00    +0.176 C 
ATOM      8  C   LIG    1       31.299 -18.785   7.172  0.00  0.00    +0.161 C 
ATOM      9  N   LIG    1       31.609 -18.240   8.475  0.00  0.00    -0.292 N 
ATOM     10  C   LIG    1       32.114 -17.010   8.774  0.00  0.00    +0.197 A 
BRANCH   2  12
ATOM     11  O   LIG    1       32.347 -16.018  12.217  0.00  0.00    +0.043 OA
ATOM     12  N   LIG    1       32.529 -15.882  11.003  0.00  0.00    +0.102 N 
ATOM     13  O   LIG    1       33.018 -14.878  10.454  0.00  0.00    -0.575 OA
ENDBRANCH   2  12
ENDBRANCH   1   7
BRANCH   1  14
ATOM     14  C   LIG    1       28.117 -20.256   8.234  0.00  0.00    +0.195 C 
BRANCH  14  15
ATOM     15  C   LIG    1       26.809 -20.542   7.538  0.00  0.00    -0.022 A 
ATOM     16  C   LIG    1       25.746 -21.119   8.245  0.00  0.00    +0.009 A 
ATOM     17  C   LIG    1       24.541 -21.437   7.603  0.00  0.00    +0.046 A 
ATOM     18  C   LIG    1       24.387 -21.207   6.238  0.00  0.00    +0.130 A 
ATOM     19  C   LIG    1       25.445 -20.629   5.529  0.00  0.00    +0.046 A 
ATOM     20  C   LIG    1       26.649 -20.309   6.167  0.00  0.00    +0.009 A 
BRANCH  18  21
ATOM     21  O   LIG    1       23.273 -21.446   5.495  0.00  0.00    -0.406 OA
BRANCH  21  22
ATOM     22  C   LIG    1       22.554 -20.374   4.900  0.00  0.00    +0.575 C 
ATOM     23  F   LIG    1       22.564 -19.331   5.763  0.00  0.00    -0.133 F 
ATOM     24  F   LIG    1       21.269 -20.743   4.708  0.00  0.00    -0.133 F 
ATOM     25  F   LIG    1       23.064 -19.939   3.731  0.00  0.00    -0.133 F 
ENDBRANCH  21  22
ENDBRANCH  18  21
ENDBRANCH  14  15
ENDBRANCH   1  14
TORSDOF 6
ENDMDL
MODEL 4
REMARK VINA RESULT:      -9.3      3.658      4.065
REMARK  Name = *****
REMARK                            x       y       z     vdW  Elec       q    Type
REMARK                         _______ _______ _______ _____ _____    ______ ____
ROOT
ATOM      1  O   LIG    1       27.560 -20.484   8.547  0.00  0.00    -0.367 OA
ENDROOT
BRANCH   1   7
ATOM      2  C   LIG    1       31.647 -17.963   9.053  0.00  0.00    +0.388 A 
ATOM      3  N   LIG    1       31.691 -19.258   9.533  0.00  0.00    -0.128 NA
ATOM      4  C   LIG    1       30.808 -19.907   8.813  0.00  0.00    +0.304 A 
ATOM      5  O   LIG    1       30.480 -21.180   9.004  0.00  0.00    -0.461 OA
ATOM      6  C   LIG    1       29.630 -21.761   8.009  0.00  0.00    +0.265 C 
ATOM      7  C   LIG    1       28.513 -20.817   7.517  0.00  0.00    +0.176 C 
ATOM      8  C   LIG    1       29.170 -19.535   6.991  0.00  0.00    +0.161 C 
ATOM      9  N   LIG    1       30.215 -19.092   7.888  0.00  0.00    -0.292 N 
ATOM     10  C   LIG    1       30.751 -17.844   8.004  0.00  0.00    +0.197 A 
BRANCH   2  12
ATOM     11  O   LIG    1       32.993 -17.161  10.717  0.00  0.00    +0.043 OA
ATOM     12  N   LIG    1       32.442 -16.909   9.641  0.00  0.00    +0.102 N 
ATOM     13  O   LIG    1       32.518 -15.831   9.026  0.00  0.00    -0.575 OA
ENDBRANCH   2  12
ENDBRANCH   1   7
BRANCH   1  14
ATOM     14  C   LIG    1       26.218 -20.390   8.052  0.00  0.00    +0.195 C 
BRANCH  14  15
ATOM     15  C   LIG    1       25.810 -21.634   7.301  0.00  0.00    -0.022 A 
ATOM     16  C   LIG    1       26.035 -22.899   7.857  0.00  0.00    +0.009 A 
ATOM     17  C   LIG    1       25.708 -24.066   7.152  0.00  0.00    +0.046 A 
ATOM     18  C   LIG    1       25.173 -23.987   5.869  0.00  0.00    +0.130 A 
ATOM     19  C   LIG    1       24.944 -22.726   5.311  0.00  0.00    +0.046 A 
ATOM     20  C   LIG    1       25.268 -21.559   6.012  0.00  0.00    +0.009 A 
BRANCH  18  21
ATOM     21  O   LIG    1       24.792 -25.031   5.083  0.00  0.00    -0.406 OA
BRANCH  21  22
ATOM     22  C   LIG    1       25.493 -26.266   5.127  0.00  0.00    +0.575 C 
ATOM     23  F   LIG    1       25.748 -26.649   3.854  0.00  0.00    -0.133 F 
ATOM     24  F   LIG    1       24.714 -27.209   5.698  0.00  0.00    -0.133 F 
ATOM     25  F   LIG    1       26.672 -26.217   5.780  0.00  0.00    -0.133 F 
ENDBRANCH  21  22
ENDBRANCH  18  21
ENDBRANCH  14  15
ENDBRANCH   1  14
TORSDOF 6
ENDMDL
MODEL 5
REMARK VINA RESULT:      -8.9      5.661      8.979
REMARK  Name = *****
REMARK                            x       y       z     vdW  Elec       q    Type
REMARK                         _______ _______ _______ _____ _____    ______ ____
ROOT
ATOM      1  O   LIG    1       25.693 -21.299   7.354  0.00  0.00    -0.367 OA
ENDROOT
BRANCH   1   7
ATOM      2  C   LIG    1       24.466 -25.669   5.705  0.00  0.00    +0.388 A 
ATOM      3  N   LIG    1       23.603 -25.128   6.639  0.00  0.00    -0.128 NA
ATOM      4  C   LIG    1       23.739 -23.832   6.502  0.00  0.00    +0.304 A 
ATOM      5  O   LIG    1       23.135 -22.933   7.271  0.00  0.00    -0.461 OA
ATOM      6  C   LIG    1       23.266 -21.568   6.858  0.00  0.00    +0.265 C 
ATOM      7  C   LIG    1       24.674 -21.209   6.337  0.00  0.00    +0.176 C 
ATOM      8  C   LIG    1       25.013 -22.163   5.185  0.00  0.00    +0.161 C 
ATOM      9  N   LIG    1       24.635 -23.519   5.517  0.00  0.00    -0.292 N 
ATOM     10  C   LIG    1       25.101 -24.679   4.973  0.00  0.00    +0.197 A 
BRANCH   2  12
ATOM     11  O   LIG    1       25.506 -27.478   4.773  0.00  0.00    +0.043 OA
ATOM     12  N   LIG    1       24.656 -27.096   5.584  0.00  0.00    +0.102 N 
ATOM     13  O   LIG    1       23.959 -27.835   6.302  0.00  0.00    -0.575 OA
ENDBRANCH   2  12
ENDBRANCH   1   7
BRANCH   1  14
ATOM     14  C   LIG    1       26.913 -21.874   6.869  0.00  0.00    +0.195 C 
BRANCH  14  15
ATOM     15  C   LIG    1       28.088 -20.949   7.077  0.00  0.00    -0.022 A 
ATOM     16  C   LIG    1       28.214 -19.785   6.310  0.00  0.00    +0.009 A 
ATOM     17  C   LIG    1       29.324 -18.942   6.454  0.00  0.00    +0.046 A 
ATOM     18  C   LIG    1       30.340 -19.262   7.351  0.00  0.00    +0.130 A 
ATOM     19  C   LIG    1       30.218 -20.423   8.121  0.00  0.00    +0.046 A 
ATOM     20  C   LIG    1       29.111 -21.266   7.980  0.00  0.00    +0.009 A 
BRANCH  18  21
ATOM     21  O   LIG    1       31.458 -18.529   7.608  0.00  0.00    -0.406 OA
BRANCH  21  22
ATOM     22  C   LIG    1       31.527 -17.688   8.751  0.00  0.00    +0.575 C 
ATOM     23  F   LIG    1       31.958 -18.433   9.795  0.00  0.00    -0.133 F 
ATOM     24  F   LIG    1       30.292 -17.228   9.049  0.00  0.00    -0.133 F 
ATOM     25  F   LIG    1       32.365 -16.640   8.625  0.00  0.00    -0.133 F 
ENDBRANCH  21  22
ENDBRANCH  18  21
ENDBRANCH  14  15
ENDBRANCH   1  14
TORSDOF 6
ENDMDL
MODEL 6
REMARK VINA RESULT:      -8.6      5.926      7.083
REMARK  Name = *****
REMARK                            x       y       z     vdW  Elec       q    Type
REMARK                         _______ _______ _______ _____ _____    ______ ____
ROOT
ATOM      1  O   LIG    1       24.776 -22.530   5.611  0.00  0.00    -0.367 OA
ENDROOT
BRANCH   1   7
ATOM      2  C   LIG    1       28.617 -20.024   7.124  0.00  0.00    +0.388 A 
ATOM      3  N   LIG    1       28.273 -19.831   5.799  0.00  0.00    -0.128 NA
ATOM      4  C   LIG    1       26.984 -20.068   5.756  0.00  0.00    +0.304 A 
ATOM      5  O   LIG    1       26.262 -20.066   4.641  0.00  0.00    -0.461 OA
ATOM      6  C   LIG    1       24.845 -20.170   4.815  0.00  0.00    +0.265 C 
ATOM      7  C   LIG    1       24.426 -21.165   5.917  0.00  0.00    +0.176 C 
ATOM      8  C   LIG    1       25.105 -20.741   7.225  0.00  0.00    +0.161 C 
ATOM      9  N   LIG    1       26.488 -20.387   6.990  0.00  0.00    -0.292 N 
ATOM     10  C   LIG    1       27.510 -20.344   7.891  0.00  0.00    +0.197 A 
BRANCH   2  12
ATOM     11  O   LIG    1       30.212 -20.231   8.748  0.00  0.00    +0.043 OA
ATOM     12  N   LIG    1       29.986 -19.919   7.574  0.00  0.00    +0.102 N 
ATOM     13  O   LIG    1       30.836 -19.527   6.755  0.00  0.00    -0.575 OA
ENDBRANCH   2  12
ENDBRANCH   1   7
BRANCH   1  14
ATOM     14  C   LIG    1       24.853 -23.359   6.777  0.00  0.00    +0.195 C 
BRANCH  14  15
ATOM     15  C   LIG    1       25.032 -24.815   6.419  0.00  0.00    -0.022 A 
ATOM     16  C   LIG    1       26.310 -25.388   6.414  0.00  0.00    +0.009 A 
ATOM     17  C   LIG    1       26.500 -26.724   6.036  0.00  0.00    +0.046 A 
ATOM     18  C   LIG    1       25.419 -27.502   5.632  0.00  0.00    +0.130 A 
ATOM     19  C   LIG    1       24.140 -26.935   5.637  0.00  0.00    +0.046 A 
ATOM     20  C   LIG    1       23.947 -25.602   6.015  0.00  0.00    +0.009 A 
BRANCH  18  21
ATOM     21  O   LIG    1       25.454 -28.811   5.261  0.00  0.00    -0.406 OA
BRANCH  21  22
ATOM     22  C   LIG    1       25.079 -29.834   6.173  0.00  0.00    +0.575 C 
ATOM     23  F   LIG    1       25.902 -30.891   5.982  0.00  0.00    -0.133 F 
ATOM     24  F   LIG    1       23.817 -30.235   5.907  0.00  0.00    -0.133 F 
ATOM     25  F   LIG    1       25.162 -29.484   7.472  0.00  0.00    -0.133 F 
ENDBRANCH  21  22
ENDBRANCH  18  21
ENDBRANCH  14  15
ENDBRANCH   1  14
TORSDOF 6
ENDMDL
MODEL 7
REMARK VINA RESULT:      -8.3      5.266      8.799
REMARK  Name = *****
REMARK                            x       y       z     vdW  Elec       q    Type
REMARK                         _______ _______ _______ _____ _____    ______ ____
ROOT
ATOM      1  O   LIG    1       28.150 -20.557   6.088  0.00  0.00    -0.367 OA
ENDROOT
BRANCH   1   7
ATOM      2  C   LIG    1       25.137 -24.331   6.016  0.00  0.00    +0.388 A 
ATOM      3  N   LIG    1       25.813 -24.139   7.206  0.00  0.00    -0.128 NA
ATOM      4  C   LIG    1       26.063 -22.853   7.241  0.00  0.00    +0.304 A 
ATOM      5  O   LIG    1       26.770 -22.255   8.193  0.00  0.00    -0.461 OA
ATOM      6  C   LIG    1       26.784 -20.824   8.155  0.00  0.00    +0.265 C 
ATOM      7  C   LIG    1       26.897 -20.242   6.730  0.00  0.00    +0.176 C 
ATOM      8  C   LIG    1       25.737 -20.798   5.895  0.00  0.00    +0.161 C 
ATOM      9  N   LIG    1       25.565 -22.213   6.139  0.00  0.00    -0.292 N 
ATOM     10  C   LIG    1       24.946 -23.134   5.347  0.00  0.00    +0.197 A 
BRANCH   2  12
ATOM     11  O   LIG    1       25.389 -26.146   4.650  0.00  0.00    +0.043 OA
ATOM     12  N   LIG    1       24.738 -25.647   5.574  0.00  0.00    +0.102 N 
ATOM     13  O   LIG    1       23.775 -26.183   6.151  0.00  0.00    -0.575 OA
ENDBRANCH   2  12
ENDBRANCH   1   7
BRANCH   1  14
ATOM     14  C   LIG    1       28.968 -19.401   5.869  0.00  0.00    +0.195 C 
BRANCH  14  15
ATOM     15  C   LIG    1       29.816 -19.079   7.076  0.00  0.00    -0.022 A 
ATOM     16  C   LIG    1       30.661 -20.052   7.624  0.00  0.00    +0.009 A 
ATOM     17  C   LIG    1       31.416 -19.786   8.774  0.00  0.00    +0.046 A 
ATOM     18  C   LIG    1       31.322 -18.551   9.410  0.00  0.00    +0.130 A 
ATOM     19  C   LIG    1       30.481 -17.575   8.865  0.00  0.00    +0.046 A 
ATOM     20  C   LIG    1       29.726 -17.837   7.717  0.00  0.00    +0.009 A 
BRANCH  18  21
ATOM     21  O   LIG    1       32.009 -18.151  10.515  0.00  0.00    -0.406 OA
BRANCH  21  22
ATOM     22  C   LIG    1       31.469 -17.170  11.389  0.00  0.00    +0.575 C 
ATOM     23  F   LIG    1       31.971 -17.387  12.626  0.00  0.00    -0.133 F 
ATOM     24  F   LIG    1       30.128 -17.310  11.452  0.00  0.00    -0.133 F 
ATOM     25  F   LIG    1       31.761 -15.898  11.050  0.00  0.00    -0.133 F 
ENDBRANCH  21  22
ENDBRANCH  18  21
ENDBRANCH  14  15
ENDBRANCH   1  14
TORSDOF 6
ENDMDL
MODEL 8
REMARK VINA RESULT:      -8.3      5.009      8.520
REMARK  Name = *****
REMARK                            x       y       z     vdW  Elec       q    Type
REMARK                         _______ _______ _______ _____ _____    ______ ____
ROOT
ATOM      1  O   LIG    1       26.181 -21.555   7.480  0.00  0.00    -0.367 OA
ENDROOT
BRANCH   1   7
ATOM      2  C   LIG    1       22.660 -19.494   4.896  0.00  0.00    +0.388 A 
ATOM      3  N   LIG    1       23.557 -20.255   4.169  0.00  0.00    -0.128 NA
ATOM      4  C   LIG    1       24.002 -21.144   5.022  0.00  0.00    +0.304 A 
ATOM      5  O   LIG    1       24.949 -22.034   4.746  0.00  0.00    -0.461 OA
ATOM      6  C   LIG    1       25.176 -23.034   5.745  0.00  0.00    +0.265 C 
ATOM      7  C   LIG    1       25.124 -22.493   7.189  0.00  0.00    +0.176 C 
ATOM      8  C   LIG    1       23.765 -21.816   7.396  0.00  0.00    +0.161 C 
ATOM      9  N   LIG    1       23.423 -20.998   6.253  0.00  0.00    -0.292 N 
ATOM     10  C   LIG    1       22.540 -19.961   6.194  0.00  0.00    +0.197 A 
BRANCH   2  12
ATOM     11  O   LIG    1       22.481 -17.241   4.555  0.00  0.00    +0.043 OA
ATOM     12  N   LIG    1       21.992 -18.351   4.318  0.00  0.00    +0.102 N 
ATOM     13  O   LIG    1       20.980 -18.562   3.626  0.00  0.00    -0.575 OA
ENDBRANCH   2  12
ENDBRANCH   1   7
BRANCH   1  14
ATOM     14  C   LIG    1       27.479 -22.055   7.135  0.00  0.00    +0.195 C 
BRANCH  14  15
ATOM     15  C   LIG    1       28.550 -21.009   7.322  0.00  0.00    -0.022 A 
ATOM     16  C   LIG    1       28.514 -19.821   6.582  0.00  0.00    +0.009 A 
ATOM     17  C   LIG    1       29.527 -18.861   6.707  0.00  0.00    +0.046 A 
ATOM     18  C   LIG    1       30.607 -19.083   7.557  0.00  0.00    +0.130 A 
ATOM     19  C   LIG    1       30.647 -20.267   8.301  0.00  0.00    +0.046 A 
ATOM     20  C   LIG    1       29.637 -21.227   8.178  0.00  0.00    +0.009 A 
BRANCH  18  21
ATOM     21  O   LIG    1       31.644 -18.234   7.790  0.00  0.00    -0.406 OA
BRANCH  21  22
ATOM     22  C   LIG    1       31.661 -17.410   8.948  0.00  0.00    +0.575 C 
ATOM     23  F   LIG    1       32.219 -18.117   9.959  0.00  0.00    -0.133 F 
ATOM     24  F   LIG    1       30.394 -17.105   9.303  0.00  0.00    -0.133 F 
ATOM     25  F   LIG    1       32.365 -16.269   8.813  0.00  0.00    -0.133 F 
ENDBRANCH  21  22
ENDBRANCH  18  21
ENDBRANCH  14  15
ENDBRANCH   1  14
TORSDOF 6
ENDMDL
MODEL 9
REMARK VINA RESULT:      -8.2      6.792      9.502
REMARK  Name = *****
REMARK                            x       y       z     vdW  Elec       q    Type
REMARK                         _______ _______ _______ _____ _____    ______ ____
ROOT
ATOM      1  O   LIG    1       24.015 -24.251   6.812  0.00  0.00    -0.367 OA
ENDROOT
BRANCH   1   7
ATOM      2  C   LIG    1       24.736 -29.026   6.855  0.00  0.00    +0.388 A 
ATOM      3  N   LIG    1       24.191 -28.523   5.689  0.00  0.00    -0.128 NA
ATOM      4  C   LIG    1       24.617 -27.285   5.633  0.00  0.00    +0.304 A 
ATOM      5  O   LIG    1       24.260 -26.415   4.695  0.00  0.00    -0.461 OA
ATOM      6  C   LIG    1       24.965 -25.169   4.699  0.00  0.00    +0.265 C 
ATOM      7  C   LIG    1       25.225 -24.607   6.112  0.00  0.00    +0.176 C 
ATOM      8  C   LIG    1       25.989 -25.668   6.913  0.00  0.00    +0.161 C 
ATOM      9  N   LIG    1       25.419 -26.979   6.697  0.00  0.00    -0.292 N 
ATOM     10  C   LIG    1       25.531 -28.085   7.486  0.00  0.00    +0.197 A 
BRANCH   2  12
ATOM     11  O   LIG    1       23.543 -30.972   6.723  0.00  0.00    +0.043 OA
ATOM     12  N   LIG    1       24.443 -30.365   7.313  0.00  0.00    +0.102 N 
ATOM     13  O   LIG    1       25.115 -30.812   8.260  0.00  0.00    -0.575 OA
ENDBRANCH   2  12
ENDBRANCH   1   7
BRANCH   1  14
ATOM     14  C   LIG    1       23.704 -22.856   6.711  0.00  0.00    +0.195 C 
BRANCH  14  15
ATOM     15  C   LIG    1       24.892 -21.992   7.057  0.00  0.00    -0.022 A 
ATOM     16  C   LIG    1       25.552 -21.266   6.058  0.00  0.00    +0.009 A 
ATOM     17  C   LIG    1       26.687 -20.499   6.354  0.00  0.00    +0.046 A 
ATOM     18  C   LIG    1       27.196 -20.463   7.649  0.00  0.00    +0.130 A 
ATOM     19  C   LIG    1       26.539 -21.184   8.651  0.00  0.00    +0.046 A 
ATOM     20  C   LIG    1       25.405 -21.951   8.360  0.00  0.00    +0.009 A 
BRANCH  18  21
ATOM     21  O   LIG    1       28.271 -19.748   8.080  0.00  0.00    -0.406 OA
BRANCH  21  22
ATOM     22  C   LIG    1       29.593 -20.169   7.772  0.00  0.00    +0.575 C 
ATOM     23  F   LIG    1       29.648 -21.514   7.911  0.00  0.00    -0.133 F 
ATOM     24  F   LIG    1       30.458 -19.623   8.653  0.00  0.00    -0.133 F 
ATOM     25  F   LIG    1       29.997 -19.874   6.521  0.00  0.00    -0.133 F 
ENDBRANCH  21  22
ENDBRANCH  18  21
ENDBRANCH  14  15
ENDBRANCH   1  14
TORSDOF 6
ENDMDL
