MODEL 1
REMARK VINA RESULT:      -5.7      0.000      0.000
REMARK  Name = *****
REMARK                            x       y       z     vdW  Elec       q    Type
REMARK                         _______ _______ _______ _____ _____    ______ ____
ROOT
ATOM      1  C   LIG    1       24.356 -20.283   5.246  0.00  0.00    +0.329 C 
ENDROOT
BRANCH   1   2
ATOM      2  C   LIG    1       22.959 -20.285   5.833  0.00  0.00    +0.424 C 
ATOM      3  F   LIG    1       22.345 -19.077   5.779  0.00  0.00    -0.168 F 
ATOM      4  F   LIG    1       23.011 -20.637   7.144  0.00  0.00    -0.168 F 
ATOM      5  F   LIG    1       22.150 -21.183   5.236  0.00  0.00    -0.168 F 
ENDBRANCH   1   2
BRANCH   1   6
ATOM      6  C   LIG    1       24.228 -20.183   3.746  0.00  0.00    +0.424 C 
ATOM      7  F   LIG    1       25.415 -19.836   3.192  0.00  0.00    -0.168 F 
ATOM      8  F   LIG    1       23.332 -19.246   3.374  0.00  0.00    -0.168 F 
ATOM      9  F   LIG    1       23.865 -21.356   3.170  0.00  0.00    -0.168 F 
ENDBRANCH   1   6
BRANCH   1  10
ATOM     10  O   LIG    1       25.282 -21.283   5.736  0.00  0.00    -0.329 OA
BRANCH  10  12
ATOM     11  F   LIG    1       25.986 -20.093   7.492  0.00  0.00    -0.218 F 
ATOM     12  C   LIG    1       26.416 -20.779   6.417  0.00  0.00    +0.376 C 
ENDBRANCH  10  12
ENDBRANCH   1  10
TORSDOF 4
ENDMDL
MODEL 2
REMARK VINA RESULT:      -5.7      0.063      1.079
REMARK  Name = *****
REMARK                            x       y       z     vdW  Elec       q    Type
REMARK                         _______ _______ _______ _____ _____    ______ ____
ROOT
ATOM      1  C   LIG    1       24.357 -20.283   5.253  0.00  0.00    +0.329 C 
ENDROOT
BRANCH   1   2
ATOM      2  C   LIG    1       22.955 -20.283   5.829  0.00  0.00    +0.424 C 
ATOM      3  F   LIG    1       22.347 -19.072   5.779  0.00  0.00    -0.168 F 
ATOM      4  F   LIG    1       22.994 -20.645   7.137  0.00  0.00    -0.168 F 
ATOM      5  F   LIG    1       22.146 -21.173   5.219  0.00  0.00    -0.168 F 
ENDBRANCH   1   2
BRANCH   1   6
ATOM      6  C   LIG    1       24.243 -20.111   3.759  0.00  0.00    +0.424 C 
ATOM      7  F   LIG    1       23.899 -21.284   3.172  0.00  0.00    -0.168 F 
ATOM      8  F   LIG    1       25.409 -19.723   3.201  0.00  0.00    -0.168 F 
ATOM      9  F   LIG    1       23.293 -19.212   3.403  0.00  0.00    -0.168 F 
ENDBRANCH   1   6
BRANCH   1  10
ATOM     10  O   LIG    1       25.258 -21.324   5.703  0.00  0.00    -0.329 OA
BRANCH  10  12
ATOM     11  F   LIG    1       25.946 -20.107   7.448  0.00  0.00    -0.218 F 
ATOM     12  C   LIG    1       26.384 -20.877   6.435  0.00  0.00    +0.376 C 
ENDBRANCH  10  12
ENDBRANCH   1  10
TORSDOF 4
ENDMDL
MODEL 3
REMARK VINA RESULT:      -5.5      2.578      3.519
REMARK  Name = *****
REMARK                            x       y       z     vdW  Elec       q    Type
REMARK                         _______ _______ _______ _____ _____    ______ ____
ROOT
ATOM      1  C   LIG    1       24.760 -22.004   7.295  0.00  0.00    +0.329 C 
ENDROOT
BRANCH   1   2
ATOM      2  C   LIG    1       23.327 -21.610   6.998  0.00  0.00    +0.424 C 
ATOM      3  F   LIG    1       22.919 -21.945   5.749  0.00  0.00    -0.168 F 
ATOM      4  F   LIG    1       23.188 -20.264   7.105  0.00  0.00    -0.168 F 
ATOM      5  F   LIG    1       22.452 -22.147   7.872  0.00  0.00    -0.168 F 
ENDBRANCH   1   2
BRANCH   1   6
ATOM      6  C   LIG    1       24.949 -23.433   6.850  0.00  0.00    +0.424 C 
ATOM      7  F   LIG    1       25.264 -23.481   5.533  0.00  0.00    -0.168 F 
ATOM      8  F   LIG    1       23.829 -24.169   7.012  0.00  0.00    -0.168 F 
ATOM      9  F   LIG    1       25.956 -24.060   7.507  0.00  0.00    -0.168 F 
ENDBRANCH   1   6
BRANCH   1  10
ATOM     10  O   LIG    1       25.278 -21.678   8.608  0.00  0.00    -0.329 OA
BRANCH  10  12
ATOM     11  F   LIG    1       26.271 -20.073   7.409  0.00  0.00    -0.218 F 
ATOM     12  C   LIG    1       26.160 -20.571   8.654  0.00  0.00    +0.376 C 
ENDBRANCH  10  12
ENDBRANCH   1  10
TORSDOF 4
ENDMDL
MODEL 4
REMARK VINA RESULT:      -5.5      2.207      3.604
REMARK  Name = *****
REMARK                            x       y       z     vdW  Elec       q    Type
REMARK                         _______ _______ _______ _____ _____    ______ ____
ROOT
ATOM      1  C   LIG    1       23.953 -21.964   5.768  0.00  0.00    +0.329 C 
ENDROOT
BRANCH   1   2
ATOM      2  C   LIG    1       23.583 -21.084   6.946  0.00  0.00    +0.424 C 
ATOM      3  F   LIG    1       22.864 -21.728   7.899  0.00  0.00    -0.168 F 
ATOM      4  F   LIG    1       22.823 -20.042   6.522  0.00  0.00    -0.168 F 
ATOM      5  F   LIG    1       24.662 -20.541   7.544  0.00  0.00    -0.168 F 
ENDBRANCH   1   2
BRANCH   1   6
ATOM      6  C   LIG    1       24.334 -23.321   6.305  0.00  0.00    +0.424 C 
ATOM      7  F   LIG    1       25.020 -24.024   5.371  0.00  0.00    -0.168 F 
ATOM      8  F   LIG    1       23.253 -24.059   6.634  0.00  0.00    -0.168 F 
ATOM      9  F   LIG    1       25.135 -23.250   7.396  0.00  0.00    -0.168 F 
ENDBRANCH   1   6
BRANCH   1  10
ATOM     10  O   LIG    1       24.850 -21.401   4.779  0.00  0.00    -0.329 OA
BRANCH  10  12
ATOM     11  F   LIG    1       24.246 -19.451   3.869  0.00  0.00    -0.218 F 
ATOM     12  C   LIG    1       24.220 -20.782   3.673  0.00  0.00    +0.376 C 
ENDBRANCH  10  12
ENDBRANCH   1  10
TORSDOF 4
ENDMDL
MODEL 5
REMARK VINA RESULT:      -5.4      2.018      3.432
REMARK  Name = *****
REMARK                            x       y       z     vdW  Elec       q    Type
REMARK                         _______ _______ _______ _____ _____    ______ ____
ROOT
ATOM      1  C   LIG    1       23.889 -21.842   6.497  0.00  0.00    +0.329 C 
ENDROOT
BRANCH   1   2
ATOM      2  C   LIG    1       23.079 -20.881   5.650  0.00  0.00    +0.424 C 
ATOM      3  F   LIG    1       22.776 -19.721   6.285  0.00  0.00    -0.168 F 
ATOM      4  F   LIG    1       21.898 -21.455   5.304  0.00  0.00    -0.168 F 
ATOM      5  F   LIG    1       23.696 -20.566   4.494  0.00  0.00    -0.168 F 
ENDBRANCH   1   2
BRANCH   1   6
ATOM      6  C   LIG    1       25.074 -21.088   7.048  0.00  0.00    +0.424 C 
ATOM      7  F   LIG    1       26.063 -21.948   7.393  0.00  0.00    -0.168 F 
ATOM      8  F   LIG    1       24.759 -20.388   8.158  0.00  0.00    -0.168 F 
ATOM      9  F   LIG    1       25.612 -20.225   6.151  0.00  0.00    -0.168 F 
ENDBRANCH   1   6
BRANCH   1  10
ATOM     10  O   LIG    1       24.176 -23.144   5.929  0.00  0.00    -0.329 OA
BRANCH  10  12
ATOM     11  F   LIG    1       22.331 -23.883   6.952  0.00  0.00    -0.218 F 
ATOM     12  C   LIG    1       23.578 -24.241   6.594  0.00  0.00    +0.376 C 
ENDBRANCH  10  12
ENDBRANCH   1  10
TORSDOF 4
ENDMDL
MODEL 6
REMARK VINA RESULT:      -5.4      1.749      3.248
REMARK  Name = *****
REMARK                            x       y       z     vdW  Elec       q    Type
REMARK                         _______ _______ _______ _____ _____    ______ ____
ROOT
ATOM      1  C   LIG    1       23.744 -21.999   5.591  0.00  0.00    +0.329 C 
ENDROOT
BRANCH   1   2
ATOM      2  C   LIG    1       22.823 -20.827   5.314  0.00  0.00    +0.424 C 
ATOM      3  F   LIG    1       21.557 -21.194   4.998  0.00  0.00    -0.168 F 
ATOM      4  F   LIG    1       23.295 -20.110   4.263  0.00  0.00    -0.168 F 
ATOM      5  F   LIG    1       22.755 -19.969   6.352  0.00  0.00    -0.168 F 
ENDBRANCH   1   2
BRANCH   1   6
ATOM      6  C   LIG    1       23.237 -22.705   6.824  0.00  0.00    +0.424 C 
ATOM      7  F   LIG    1       24.171 -23.568   7.292  0.00  0.00    -0.168 F 
ATOM      8  F   LIG    1       22.125 -23.428   6.575  0.00  0.00    -0.168 F 
ATOM      9  F   LIG    1       22.959 -21.853   7.841  0.00  0.00    -0.168 F 
ENDBRANCH   1   6
BRANCH   1  10
ATOM     10  O   LIG    1       25.169 -21.746   5.548  0.00  0.00    -0.329 OA
BRANCH  10  12
ATOM     11  F   LIG    1       26.458 -19.938   5.809  0.00  0.00    -0.218 F 
ATOM     12  C   LIG    1       25.642 -20.780   6.469  0.00  0.00    +0.376 C 
ENDBRANCH  10  12
ENDBRANCH   1  10
TORSDOF 4
ENDMDL
MODEL 7
REMARK VINA RESULT:      -5.4      2.477      3.729
REMARK  Name = *****
REMARK                            x       y       z     vdW  Elec       q    Type
REMARK                         _______ _______ _______ _____ _____    ______ ____
ROOT
ATOM      1  C   LIG    1       24.843 -21.947   7.315  0.00  0.00    +0.329 C 
ENDROOT
BRANCH   1   2
ATOM      2  C   LIG    1       25.042 -23.353   6.785  0.00  0.00    +0.424 C 
ATOM      3  F   LIG    1       23.991 -24.177   7.021  0.00  0.00    -0.168 F 
ATOM      4  F   LIG    1       26.122 -23.921   7.381  0.00  0.00    -0.168 F 
ATOM      5  F   LIG    1       25.291 -23.375   5.460  0.00  0.00    -0.168 F 
ENDBRANCH   1   2
BRANCH   1   6
ATOM      6  C   LIG    1       23.409 -21.556   7.061  0.00  0.00    +0.424 C 
ATOM      7  F   LIG    1       23.253 -20.216   7.193  0.00  0.00    -0.168 F 
ATOM      8  F   LIG    1       22.561 -22.136   7.936  0.00  0.00    -0.168 F 
ATOM      9  F   LIG    1       22.991 -21.868   5.809  0.00  0.00    -0.168 F 
ENDBRANCH   1   6
BRANCH   1  10
ATOM     10  O   LIG    1       25.840 -20.959   6.959  0.00  0.00    -0.329 OA
BRANCH  10  12
ATOM     11  F   LIG    1       25.813 -20.304   9.096  0.00  0.00    -0.218 F 
ATOM     12  C   LIG    1       26.622 -20.471   8.034  0.00  0.00    +0.376 C 
ENDBRANCH  10  12
ENDBRANCH   1  10
TORSDOF 4
ENDMDL
MODEL 8
REMARK VINA RESULT:      -5.4      6.735      8.306
REMARK  Name = *****
REMARK                            x       y       z     vdW  Elec       q    Type
REMARK                         _______ _______ _______ _____ _____    ______ ____
ROOT
ATOM      1  C   LIG    1       30.919 -19.405   8.786  0.00  0.00    +0.329 C 
ENDROOT
BRANCH   1   2
ATOM      2  C   LIG    1       30.499 -19.309   7.333  0.00  0.00    +0.424 C 
ATOM      3  F   LIG    1       29.822 -18.172   7.038  0.00  0.00    -0.168 F 
ATOM      4  F   LIG    1       29.677 -20.344   7.022  0.00  0.00    -0.168 F 
ATOM      5  F   LIG    1       31.545 -19.395   6.487  0.00  0.00    -0.168 F 
ENDBRANCH   1   2
BRANCH   1   6
ATOM      6  C   LIG    1       31.303 -18.022   9.250  0.00  0.00    +0.424 C 
ATOM      7  F   LIG    1       31.863 -18.075  10.483  0.00  0.00    -0.168 F 
ATOM      8  F   LIG    1       30.236 -17.201   9.339  0.00  0.00    -0.168 F 
ATOM      9  F   LIG    1       32.216 -17.430   8.440  0.00  0.00    -0.168 F 
ENDBRANCH   1   6
BRANCH   1  10
ATOM     10  O   LIG    1       31.837 -20.468   9.141  0.00  0.00    -0.329 OA
BRANCH  10  12
ATOM     11  F   LIG    1       32.034 -22.643   8.662  0.00  0.00    -0.218 F 
ATOM     12  C   LIG    1       31.253 -21.748   9.295  0.00  0.00    +0.376 C 
ENDBRANCH  10  12
ENDBRANCH   1  10
TORSDOF 4
ENDMDL
MODEL 9
REMARK VINA RESULT:      -5.3      2.254      3.815
REMARK  Name = *****
REMARK                            x       y       z     vdW  Elec       q    Type
REMARK                         _______ _______ _______ _____ _____    ______ ____
ROOT
ATOM      1  C   LIG    1       24.420 -21.955   5.896  0.00  0.00    +0.329 C 
ENDROOT
BRANCH   1   2
ATOM      2  C   LIG    1       24.665 -23.365   6.395  0.00  0.00    +0.424 C 
ATOM      3  F   LIG    1       25.298 -23.416   7.593  0.00  0.00    -0.168 F 
ATOM      4  F   LIG    1       25.449 -24.036   5.512  0.00  0.00    -0.168 F 
ATOM      5  F   LIG    1       23.527 -24.080   6.503  0.00  0.00    -0.168 F 
ENDBRANCH   1   2
BRANCH   1   6
ATOM      6  C   LIG    1       23.128 -21.468   6.502  0.00  0.00    +0.424 C 
ATOM      7  F   LIG    1       22.076 -21.826   5.727  0.00  0.00    -0.168 F 
ATOM      8  F   LIG    1       23.093 -20.123   6.613  0.00  0.00    -0.168 F 
ATOM      9  F   LIG    1       22.893 -21.991   7.731  0.00  0.00    -0.168 F 
ENDBRANCH   1   6
BRANCH   1  10
ATOM     10  O   LIG    1       24.581 -21.718   4.476  0.00  0.00    -0.329 OA
BRANCH  10  12
ATOM     11  F   LIG    1       24.115 -19.850   3.340  0.00  0.00    -0.218 F 
ATOM     12  C   LIG    1       25.043 -20.426   4.126  0.00  0.00    +0.376 C 
ENDBRANCH  10  12
ENDBRANCH   1  10
TORSDOF 4
ENDMDL
