MODEL 1
REMARK VINA RESULT:       5.8      0.000      0.000
REMARK  Name = *****
REMARK                            x       y       z     vdW  Elec       q    Type
REMARK                         _______ _______ _______ _____ _____    ______ ____
ROOT
ATOM      1  C   LIG    1       23.063 -18.256   4.627  0.00  0.00    +0.218 C 
ATOM      2  N   LIG    1       24.296 -18.797   4.278  0.00  0.00    -0.308 N 
ATOM      3  H   LIG    1       24.874 -18.229   3.668  0.00  0.00    +0.149 HD
ATOM      4  O   LIG    1       22.374 -18.646   5.571  0.00  0.00    -0.275 OA
ENDROOT
BRANCH   1   5
ATOM      5  C   LIG    1       22.654 -17.109   3.709  0.00  0.00    +0.131 C 
BRANCH   5  10
ATOM      6  C   LIG    1       23.565 -13.330   3.482  0.00  0.00    +0.135 A 
ATOM      7  C   LIG    1       23.997 -13.118   4.812  0.00  0.00    +0.100 A 
ATOM      8  C   LIG    1       23.807 -14.144   5.744  0.00  0.00    +0.019 A 
ATOM      9  C   LIG    1       23.202 -15.349   5.377  0.00  0.00    +0.005 A 
ATOM     10  C   LIG    1       22.985 -15.654   4.026  0.00  0.00    -0.035 A 
ATOM     11  C   LIG    1       23.276 -14.652   3.083  0.00  0.00    +0.050 A 
BRANCH   7  12
ATOM     12  C   LIG    1       24.798 -11.956   5.320  0.00  0.00    +0.340 C 
ATOM     13  O   LIG    1       25.730 -11.485   4.748  0.00  0.00    -0.245 OA
BRANCH  12  14
ATOM     14  O   LIG    1       24.416 -11.450   6.522  0.00  0.00    -0.477 OA
ATOM     15  H   LIG    1       25.158 -11.729   7.100  0.00  0.00    +0.295 HD
ENDBRANCH  12  14
ENDBRANCH   7  12
BRANCH   6  16
ATOM     16  O   LIG    1       23.456 -12.250   2.653  0.00  0.00    -0.491 OA
BRANCH  16  18
ATOM     17  C   LIG    1       25.891 -12.515   1.929  0.00  0.00    +0.048 C 
ATOM     18  C   LIG    1       24.573 -11.739   1.905  0.00  0.00    +0.226 C 
ENDBRANCH  16  18
ENDBRANCH   6  16
ENDBRANCH   5  10
ENDBRANCH   1   5
BRANCH   2  19
ATOM     19  C   LIG    1       25.024 -19.904   4.936  0.00  0.00    +0.105 C 
BRANCH  19  20
ATOM     20  C   LIG    1       26.446 -19.510   5.438  0.00  0.00    -0.006 A 
ATOM     21  C   LIG    1       27.478 -18.670   4.896  0.00  0.00    +0.035 A 
ATOM     22  C   LIG    1       28.788 -19.202   5.179  0.00  0.00    +0.023 A 
ATOM     23  C   LIG    1       29.097 -20.209   6.122  0.00  0.00    +0.002 A 
ATOM     24  C   LIG    1       28.094 -20.778   6.859  0.00  0.00    +0.001 A 
ATOM     25  C   LIG    1       26.797 -20.432   6.519  0.00  0.00    +0.007 A 
BRANCH  21  26
ATOM     26  N   LIG    1       27.437 -17.351   4.323  0.00  0.00    -0.330 N 
ATOM     27  C   LIG    1       26.704 -16.871   3.111  0.00  0.00    +0.105 C 
ATOM     28  C   LIG    1       26.398 -15.331   3.144  0.00  0.00    +0.019 C 
ATOM     29  C   LIG    1       27.645 -14.485   3.377  0.00  0.00    +0.003 C 
ATOM     30  C   LIG    1       28.162 -14.906   4.734  0.00  0.00    +0.019 C 
ATOM     31  C   LIG    1       28.530 -16.398   4.759  0.00  0.00    +0.105 C 
ENDBRANCH  21  26
ENDBRANCH  19  20
BRANCH  19  32
ATOM     32  C   LIG    1       24.676 -21.339   4.482  0.00  0.00    +0.030 C 
BRANCH  32  33
ATOM     33  C   LIG    1       23.711 -21.572   3.301  0.00  0.00    -0.015 C 
ATOM     34  C   LIG    1       24.195 -20.714   2.116  0.00  0.00    +0.007 C 
ATOM     35  C   LIG    1       22.261 -21.244   3.662  0.00  0.00    +0.007 C 
ENDBRANCH  32  33
ENDBRANCH  19  32
ENDBRANCH   2  19
TORSDOF 11
ENDMDL
MODEL 2
REMARK VINA RESULT:       6.3      1.167      1.993
REMARK  Name = *****
REMARK                            x       y       z     vdW  Elec       q    Type
REMARK                         _______ _______ _______ _____ _____    ______ ____
ROOT
ATOM      1  C   LIG    1       22.309 -18.302   4.855  0.00  0.00    +0.218 C 
ATOM      2  N   LIG    1       23.599 -18.583   5.291  0.00  0.00    -0.308 N 
ATOM      3  H   LIG    1       24.036 -17.874   5.871  0.00  0.00    +0.149 HD
ATOM      4  O   LIG    1       21.525 -19.143   4.410  0.00  0.00    -0.275 OA
ENDROOT
BRANCH   1   5
ATOM      5  C   LIG    1       21.960 -16.823   4.992  0.00  0.00    +0.131 C 
BRANCH   5  10
ATOM      6  C   LIG    1       24.196 -13.646   4.729  0.00  0.00    +0.135 A 
ATOM      7  C   LIG    1       24.278 -13.540   3.322  0.00  0.00    +0.100 A 
ATOM      8  C   LIG    1       23.764 -14.584   2.545  0.00  0.00    +0.019 A 
ATOM      9  C   LIG    1       23.186 -15.708   3.140  0.00  0.00    +0.005 A 
ATOM     10  C   LIG    1       22.895 -15.718   4.511  0.00  0.00    -0.035 A 
ATOM     11  C   LIG    1       23.324 -14.614   5.270  0.00  0.00    +0.050 A 
BRANCH   7  12
ATOM     12  C   LIG    1       24.719 -12.339   2.537  0.00  0.00    +0.340 C 
ATOM     13  O   LIG    1       23.997 -11.447   2.219  0.00  0.00    -0.245 OA
BRANCH  12  14
ATOM     14  O   LIG    1       26.026 -12.315   2.170  0.00  0.00    -0.477 OA
ATOM     15  H   LIG    1       26.310 -11.437   2.502  0.00  0.00    +0.295 HD
ENDBRANCH  12  14
ENDBRANCH   7  12
BRANCH   6  16
ATOM     16  O   LIG    1       24.958 -12.807   5.491  0.00  0.00    -0.491 OA
BRANCH  16  18
ATOM     17  C   LIG    1       27.458 -12.470   5.088  0.00  0.00    +0.048 C 
ATOM     18  C   LIG    1       26.311 -13.122   5.863  0.00  0.00    +0.226 C 
ENDBRANCH  16  18
ENDBRANCH   6  16
ENDBRANCH   5  10
ENDBRANCH   1   5
BRANCH   2  19
ATOM     19  C   LIG    1       24.284 -19.894   5.326  0.00  0.00    +0.105 C 
BRANCH  19  20
ATOM     20  C   LIG    1       25.791 -19.805   5.708  0.00  0.00    -0.006 A 
ATOM     21  C   LIG    1       26.935 -19.226   5.058  0.00  0.00    +0.035 A 
ATOM     22  C   LIG    1       28.117 -20.023   5.269  0.00  0.00    +0.023 A 
ATOM     23  C   LIG    1       28.276 -21.047   6.231  0.00  0.00    +0.002 A 
ATOM     24  C   LIG    1       27.235 -21.364   7.062  0.00  0.00    +0.001 A 
ATOM     25  C   LIG    1       26.020 -20.753   6.801  0.00  0.00    +0.007 A 
BRANCH  21  26
ATOM     26  N   LIG    1       27.132 -17.945   4.432  0.00  0.00    -0.330 N 
ATOM     27  C   LIG    1       26.486 -17.384   3.206  0.00  0.00    +0.105 C 
ATOM     28  C   LIG    1       26.474 -15.814   3.179  0.00  0.00    +0.019 C 
ATOM     29  C   LIG    1       27.860 -15.208   3.369  0.00  0.00    +0.003 C 
ATOM     30  C   LIG    1       28.307 -15.665   4.739  0.00  0.00    +0.019 C 
ATOM     31  C   LIG    1       28.390 -17.198   4.822  0.00  0.00    +0.105 C 
ENDBRANCH  21  26
ENDBRANCH  19  20
BRANCH  19  32
ATOM     32  C   LIG    1       23.728 -20.999   4.401  0.00  0.00    +0.030 C 
BRANCH  32  33
ATOM     33  C   LIG    1       24.244 -21.138   2.954  0.00  0.00    -0.015 C 
ATOM     34  C   LIG    1       24.904 -19.804   2.554  0.00  0.00    +0.007 C 
ATOM     35  C   LIG    1       23.133 -21.517   1.974  0.00  0.00    +0.007 C 
ENDBRANCH  32  33
ENDBRANCH  19  32
ENDBRANCH   2  19
TORSDOF 11
ENDMDL
MODEL 3
REMARK VINA RESULT:       6.5      1.911      3.785
REMARK  Name = *****
REMARK                            x       y       z     vdW  Elec       q    Type
REMARK                         _______ _______ _______ _____ _____    ______ ____
ROOT
ATOM      1  C   LIG    1       22.391 -16.204   4.903  0.00  0.00    +0.218 C 
ATOM      2  N   LIG    1       23.464 -16.982   4.484  0.00  0.00    -0.308 N 
ATOM      3  H   LIG    1       24.386 -16.580   4.624  0.00  0.00    +0.149 HD
ATOM      4  O   LIG    1       21.251 -16.634   5.090  0.00  0.00    -0.275 OA
ENDROOT
BRANCH   1   5
ATOM      5  C   LIG    1       22.780 -14.745   5.113  0.00  0.00    +0.131 C 
BRANCH   5  10
ATOM      6  C   LIG    1       26.440 -14.341   3.847  0.00  0.00    +0.135 A 
ATOM      7  C   LIG    1       26.711 -13.043   4.339  0.00  0.00    +0.100 A 
ATOM      8  C   LIG    1       25.656 -12.308   4.890  0.00  0.00    +0.019 A 
ATOM      9  C   LIG    1       24.364 -12.836   4.951  0.00  0.00    +0.005 A 
ATOM     10  C   LIG    1       24.136 -14.193   4.682  0.00  0.00    -0.035 A 
ATOM     11  C   LIG    1       25.227 -14.953   4.226  0.00  0.00    +0.050 A 
BRANCH   7  12
ATOM     12  C   LIG    1       28.060 -12.404   4.489  0.00  0.00    +0.340 C 
ATOM     13  O   LIG    1       28.476 -11.953   5.510  0.00  0.00    -0.245 OA
BRANCH  12  14
ATOM     14  O   LIG    1       28.816 -12.338   3.362  0.00  0.00    -0.477 OA
ATOM     15  H   LIG    1       28.302 -12.900   2.745  0.00  0.00    +0.295 HD
ENDBRANCH  12  14
ENDBRANCH   7  12
BRANCH   6  16
ATOM     16  O   LIG    1       27.365 -14.936   3.037  0.00  0.00    -0.491 OA
BRANCH  16  18
ATOM     17  C   LIG    1       26.276 -17.244   3.123  0.00  0.00    +0.048 C 
ATOM     18  C   LIG    1       27.516 -16.364   2.963  0.00  0.00    +0.226 C 
ENDBRANCH  16  18
ENDBRANCH   6  16
ENDBRANCH   5  10
ENDBRANCH   1   5
BRANCH   2  19
ATOM     19  C   LIG    1       23.481 -18.433   4.194  0.00  0.00    +0.105 C 
BRANCH  19  20
ATOM     20  C   LIG    1       23.830 -19.317   5.428  0.00  0.00    -0.006 A 
ATOM     21  C   LIG    1       24.980 -20.107   5.774  0.00  0.00    +0.035 A 
ATOM     22  C   LIG    1       24.600 -21.308   6.474  0.00  0.00    +0.023 A 
ATOM     23  C   LIG    1       23.341 -21.571   7.061  0.00  0.00    +0.002 A 
ATOM     24  C   LIG    1       22.344 -20.637   6.976  0.00  0.00    +0.001 A 
ATOM     25  C   LIG    1       22.589 -19.534   6.174  0.00  0.00    +0.007 A 
BRANCH  21  26
ATOM     26  N   LIG    1       26.389 -19.820   5.719  0.00  0.00    -0.330 N 
ATOM     27  C   LIG    1       27.155 -19.038   4.700  0.00  0.00    +0.105 C 
ATOM     28  C   LIG    1       28.491 -18.434   5.263  0.00  0.00    +0.019 C 
ATOM     29  C   LIG    1       29.390 -19.483   5.907  0.00  0.00    +0.003 C 
ATOM     30  C   LIG    1       28.586 -20.039   7.061  0.00  0.00    +0.019 C 
ATOM     31  C   LIG    1       27.283 -20.693   6.576  0.00  0.00    +0.105 C 
ENDBRANCH  21  26
ENDBRANCH  19  20
BRANCH  19  32
ATOM     32  C   LIG    1       23.830 -18.854   2.749  0.00  0.00    +0.030 C 
BRANCH  32  33
ATOM     33  C   LIG    1       23.773 -20.339   2.334  0.00  0.00    -0.015 C 
ATOM     34  C   LIG    1       22.532 -20.970   2.993  0.00  0.00    +0.007 C 
ATOM     35  C   LIG    1       25.045 -21.098   2.715  0.00  0.00    +0.007 C 
ENDBRANCH  32  33
ENDBRANCH  19  32
ENDBRANCH   2  19
TORSDOF 11
ENDMDL
MODEL 4
REMARK VINA RESULT:       7.6      2.023      3.311
REMARK  Name = *****
REMARK                            x       y       z     vdW  Elec       q    Type
REMARK                         _______ _______ _______ _____ _____    ______ ____
ROOT
ATOM      1  C   LIG    1       22.417 -16.228   4.532  0.00  0.00    +0.218 C 
ATOM      2  N   LIG    1       22.620 -17.391   3.797  0.00  0.00    -0.308 N 
ATOM      3  H   LIG    1       23.265 -17.317   3.017  0.00  0.00    +0.149 HD
ATOM      4  O   LIG    1       21.923 -16.194   5.660  0.00  0.00    -0.275 OA
ENDROOT
BRANCH   1   5
ATOM      5  C   LIG    1       22.883 -14.983   3.784  0.00  0.00    +0.131 C 
BRANCH   5  10
ATOM      6  C   LIG    1       26.296 -13.110   3.849  0.00  0.00    +0.135 A 
ATOM      7  C   LIG    1       26.534 -13.115   5.243  0.00  0.00    +0.100 A 
ATOM      8  C   LIG    1       25.511 -13.558   6.090  0.00  0.00    +0.019 A 
ATOM      9  C   LIG    1       24.283 -13.981   5.577  0.00  0.00    +0.005 A 
ATOM     10  C   LIG    1       24.122 -14.197   4.201  0.00  0.00    -0.035 A 
ATOM     11  C   LIG    1       25.195 -13.845   3.363  0.00  0.00    +0.050 A 
BRANCH   7  12
ATOM     12  C   LIG    1       27.839 -12.845   5.931  0.00  0.00    +0.340 C 
ATOM     13  O   LIG    1       28.265 -13.493   6.835  0.00  0.00    -0.245 OA
BRANCH  12  14
ATOM     14  O   LIG    1       28.542 -11.775   5.477  0.00  0.00    -0.477 OA
ATOM     15  H   LIG    1       27.849 -11.080   5.450  0.00  0.00    +0.295 HD
ENDBRANCH  12  14
ENDBRANCH   7  12
BRANCH   6  16
ATOM     16  O   LIG    1       27.144 -12.400   3.046  0.00  0.00    -0.491 OA
BRANCH  16  18
ATOM     17  C   LIG    1       28.897 -14.258   3.075  0.00  0.00    +0.048 C 
ATOM     18  C   LIG    1       28.507 -12.799   2.827  0.00  0.00    +0.226 C 
ENDBRANCH  16  18
ENDBRANCH   6  16
ENDBRANCH   5  10
ENDBRANCH   1   5
BRANCH   2  19
ATOM     19  C   LIG    1       22.312 -18.783   4.191  0.00  0.00    +0.105 C 
BRANCH  19  20
ATOM     20  C   LIG    1       23.338 -19.395   5.192  0.00  0.00    -0.006 A 
ATOM     21  C   LIG    1       24.748 -19.658   5.111  0.00  0.00    +0.035 A 
ATOM     22  C   LIG    1       25.095 -20.873   5.805  0.00  0.00    +0.023 A 
ATOM     23  C   LIG    1       24.282 -21.571   6.727  0.00  0.00    +0.002 A 
ATOM     24  C   LIG    1       23.030 -21.102   7.019  0.00  0.00    +0.001 A 
ATOM     25  C   LIG    1       22.572 -20.035   6.263  0.00  0.00    +0.007 A 
BRANCH  21  26
ATOM     26  N   LIG    1       25.847 -18.851   4.650  0.00  0.00    -0.330 N 
ATOM     27  C   LIG    1       25.871 -17.817   3.570  0.00  0.00    +0.105 C 
ATOM     28  C   LIG    1       27.015 -16.757   3.758  0.00  0.00    +0.019 C 
ATOM     29  C   LIG    1       28.392 -17.393   3.910  0.00  0.00    +0.003 C 
ATOM     30  C   LIG    1       28.303 -18.235   5.163  0.00  0.00    +0.019 C 
ATOM     31  C   LIG    1       27.233 -19.330   5.029  0.00  0.00    +0.105 C 
ENDBRANCH  21  26
ENDBRANCH  19  20
BRANCH  19  32
ATOM     32  C   LIG    1       21.539 -19.646   3.168  0.00  0.00    +0.030 C 
BRANCH  32  33
ATOM     33  C   LIG    1       19.999 -19.596   3.113  0.00  0.00    -0.015 C 
ATOM     34  C   LIG    1       19.573 -18.120   2.997  0.00  0.00    +0.007 C 
ATOM     35  C   LIG    1       19.351 -20.262   4.329  0.00  0.00    +0.007 C 
ENDBRANCH  32  33
ENDBRANCH  19  32
ENDBRANCH   2  19
TORSDOF 11
ENDMDL
