MODEL 1
REMARK VINA RESULT:      -6.4      0.000      0.000
REMARK  Name = *****
REMARK                            x       y       z     vdW  Elec       q    Type
REMARK                         _______ _______ _______ _____ _____    ______ ____
ROOT
ATOM      1  C   LIG    1       20.964 -28.888  13.630  0.00  0.00    +0.170 C 
ATOM      2  N   LIG    1       21.612 -29.574  12.489  0.00  0.00    -0.233 N 
ATOM      3  C   LIG    1       20.950 -30.649  11.810  0.00  0.00    +0.269 C 
ATOM      4  O   LIG    1       21.573 -31.835  12.264  0.00  0.00    -0.298 OA
ATOM      5  C   LIG    1       22.954 -31.541  12.529  0.00  0.00    +0.220 C 
ATOM      6  C   LIG    1       19.428 -30.635  12.026  0.00  0.00    +0.156 C 
ATOM      7  N   LIG    1       19.069 -30.475  13.426  0.00  0.00    -0.290 N 
ATOM      8  C   LIG    1       17.887 -31.235  13.775  0.00  0.00    +0.108 C 
ATOM      9  C   LIG    1       17.362 -31.719  12.425  0.00  0.00    +0.021 C 
ATOM     10  C   LIG    1       18.638 -31.867  11.592  0.00  0.00    +0.031 C 
ATOM     11  C   LIG    1       22.912 -30.010  12.702  0.00  0.00    +0.271 C 
ATOM     12  O   LIG    1       23.868 -29.277  12.951  0.00  0.00    -0.270 OA
ATOM     13  C   LIG    1       19.807 -29.701  14.291  0.00  0.00    +0.237 C 
ATOM     14  O   LIG    1       19.495 -29.553  15.471  0.00  0.00    -0.274 OA
ENDROOT
BRANCH   5  15
ATOM     15  N   LIG    1       23.773 -31.843  11.377  0.00  0.00    -0.280 N 
ATOM     16  H   LIG    1       24.506 -31.173  11.187  0.00  0.00    +0.152 HD
ATOM     17  C   LIG    1       23.645 -32.957  10.585  0.00  0.00    +0.220 C 
ATOM     18  O   LIG    1       22.795 -33.820  10.783  0.00  0.00    -0.275 OA
BRANCH  17  19
ATOM     19  C   LIG    1       24.714 -33.076   9.494  0.00  0.00    +0.090 C 
ATOM     20  C   LIG    1       24.129 -33.715   8.222  0.00  0.00    +0.097 C 
ATOM     21  N   LIG    1       23.434 -32.751   7.356  0.00  0.00    -0.301 NA
ATOM     22  C   LIG    1       22.768 -33.445   6.260  0.00  0.00    +0.105 C 
ATOM     23  C   LIG    1       24.240 -31.552   6.979  0.00  0.00    +0.068 C 
ATOM     24  C   LIG    1       25.639 -31.461   7.733  0.00  0.00    +0.038 C 
ATOM     25  C   LIG    1       26.705 -32.303   7.054  0.00  0.00    -0.033 C 
ATOM     26  C   LIG    1       26.552 -32.492   5.673  0.00  0.00    +0.006 C 
ATOM     27  C   LIG    1       27.439 -33.228   4.915  0.00  0.00    +0.047 C 
ATOM     28  N   LIG    1       26.950 -33.196   3.627  0.00  0.00    -0.360 NA
ATOM     29  H   LIG    1       27.387 -33.649   2.836  0.00  0.00    +0.165 HD
ATOM     30  C   LIG    1       25.780 -32.466   3.573  0.00  0.00    +0.087 C 
ATOM     31  C   LIG    1       28.560 -33.825   5.490  0.00  0.00    +0.026 C 
ATOM     32  C   LIG    1       28.741 -33.628   6.869  0.00  0.00    +0.002 C 
ATOM     33  C   LIG    1       25.510 -32.024   4.846  0.00  0.00    -0.021 C 
ATOM     34  C   LIG    1       27.839 -32.876   7.640  0.00  0.00    +0.005 C 
ATOM     35  C   LIG    1       24.411 -31.217   5.447  0.00  0.00    +0.056 C 
ATOM     36  C   LIG    1       25.413 -31.737   9.216  0.00  0.00    +0.023 C 
ENDBRANCH  17  19
ENDBRANCH   5  15
BRANCH   5  37
ATOM     37  C   LIG    1       23.417 -32.219  13.849  0.00  0.00    +0.043 C 
ATOM     38  C   LIG    1       24.938 -32.370  13.976  0.00  0.00    +0.012 C 
ATOM     39  C   LIG    1       22.894 -31.509  15.106  0.00  0.00    +0.012 C 
ENDBRANCH   5  37
BRANCH   1  40
ATOM     40  C   LIG    1       20.510 -27.423  13.343  0.00  0.00    +0.015 C 
ATOM     41  C   LIG    1       21.656 -26.415  13.241  0.00  0.00    +0.010 C 
BRANCH  40  43
ATOM     42  C   LIG    1       18.444 -25.957  13.753  0.00  0.00    +0.004 C 
ATOM     43  C   LIG    1       19.458 -26.926  14.357  0.00  0.00    +0.002 C 
ENDBRANCH  40  43
ENDBRANCH   1  40
BRANCH   3  44
ATOM     44  O   LIG    1       21.228 -30.490  10.431  0.00  0.00    -0.348 OA
ATOM     45  H   LIG    1       22.135 -30.142  10.404  0.00  0.00    +0.214 HD
ENDBRANCH   3  44
TORSDOF 6
ENDMDL
MODEL 2
REMARK VINA RESULT:      -5.5      6.932      9.584
REMARK  Name = *****
REMARK                            x       y       z     vdW  Elec       q    Type
REMARK                         _______ _______ _______ _____ _____    ______ ____
ROOT
ATOM      1  C   LIG    1       24.420 -21.530   6.113  0.00  0.00    +0.170 C 
ATOM      2  N   LIG    1       24.726 -22.658   7.024  0.00  0.00    -0.233 N 
ATOM      3  C   LIG    1       26.067 -22.895   7.470  0.00  0.00    +0.269 C 
ATOM      4  O   LIG    1       26.535 -23.997   6.718  0.00  0.00    -0.298 OA
ATOM      5  C   LIG    1       25.420 -24.862   6.450  0.00  0.00    +0.220 C 
ATOM      6  C   LIG    1       26.958 -21.648   7.351  0.00  0.00    +0.156 C 
ATOM      7  N   LIG    1       26.845 -21.009   6.049  0.00  0.00    -0.290 N 
ATOM      8  C   LIG    1       28.107 -20.459   5.600  0.00  0.00    +0.108 C 
ATOM      9  C   LIG    1       29.007 -20.583   6.828  0.00  0.00    +0.021 C 
ATOM     10  C   LIG    1       28.463 -21.831   7.529  0.00  0.00    +0.031 C 
ATOM     11  C   LIG    1       24.233 -23.897   6.641  0.00  0.00    +0.271 C 
ATOM     12  O   LIG    1       23.040 -24.172   6.516  0.00  0.00    -0.270 OA
ATOM     13  C   LIG    1       25.662 -20.973   5.347  0.00  0.00    +0.237 C 
ATOM     14  O   LIG    1       25.562 -20.420   4.255  0.00  0.00    -0.274 OA
ENDROOT
BRANCH   5  15
ATOM     15  N   LIG    1       25.324 -25.899   7.451  0.00  0.00    -0.280 N 
ATOM     16  H   LIG    1       24.558 -25.794   8.103  0.00  0.00    +0.152 HD
ATOM     17  C   LIG    1       26.150 -26.993   7.540  0.00  0.00    +0.220 C 
ATOM     18  O   LIG    1       27.076 -27.191   6.760  0.00  0.00    -0.275 OA
BRANCH  17  19
ATOM     19  C   LIG    1       25.756 -27.988   8.635  0.00  0.00    +0.090 C 
ATOM     20  C   LIG    1       24.771 -29.039   8.092  0.00  0.00    +0.097 C 
ATOM     21  N   LIG    1       25.437 -30.153   7.400  0.00  0.00    -0.301 NA
ATOM     22  C   LIG    1       24.448 -31.021   6.773  0.00  0.00    +0.105 C 
ATOM     23  C   LIG    1       26.502 -30.838   8.192  0.00  0.00    +0.068 C 
ATOM     24  C   LIG    1       26.834 -30.116   9.571  0.00  0.00    +0.038 C 
ATOM     25  C   LIG    1       25.863 -30.513  10.668  0.00  0.00    -0.033 C 
ATOM     26  C   LIG    1       25.290 -31.787  10.551  0.00  0.00    +0.006 C 
ATOM     27  C   LIG    1       24.394 -32.293  11.469  0.00  0.00    +0.047 C 
ATOM     28  N   LIG    1       24.052 -33.547  11.010  0.00  0.00    -0.360 NA
ATOM     29  H   LIG    1       23.406 -34.171  11.474  0.00  0.00    +0.165 HD
ATOM     30  C   LIG    1       24.708 -33.824   9.828  0.00  0.00    +0.087 C 
ATOM     31  C   LIG    1       24.010 -31.555  12.588  0.00  0.00    +0.026 C 
ATOM     32  C   LIG    1       24.590 -30.283  12.733  0.00  0.00    +0.002 C 
ATOM     33  C   LIG    1       25.483 -32.730   9.520  0.00  0.00    -0.021 C 
ATOM     34  C   LIG    1       25.505 -29.770  11.799  0.00  0.00    +0.005 C 
ATOM     35  C   LIG    1       26.398 -32.399   8.392  0.00  0.00    +0.056 C 
ATOM     36  C   LIG    1       26.980 -28.619   9.315  0.00  0.00    +0.023 C 
ENDBRANCH  17  19
ENDBRANCH   5  15
BRANCH   5  37
ATOM     37  C   LIG    1       25.462 -25.377   4.984  0.00  0.00    +0.043 C 
ATOM     38  C   LIG    1       24.784 -26.737   4.778  0.00  0.00    +0.012 C 
ATOM     39  C   LIG    1       24.868 -24.381   3.978  0.00  0.00    +0.012 C 
ENDBRANCH   5  37
BRANCH   1  40
ATOM     40  C   LIG    1       23.608 -20.366   6.759  0.00  0.00    +0.015 C 
ATOM     41  C   LIG    1       23.023 -20.692   8.135  0.00  0.00    +0.010 C 
BRANCH  40  43
ATOM     42  C   LIG    1       21.970 -20.888   4.854  0.00  0.00    +0.004 C 
ATOM     43  C   LIG    1       22.498 -19.836   5.826  0.00  0.00    +0.002 C 
ENDBRANCH  40  43
ENDBRANCH   1  40
BRANCH   3  44
ATOM     44  O   LIG    1       25.981 -23.278   8.830  0.00  0.00    -0.348 OA
ATOM     45  H   LIG    1       25.945 -22.438   9.318  0.00  0.00    +0.214 HD
ENDBRANCH   3  44
TORSDOF 6
ENDMDL
MODEL 3
REMARK VINA RESULT:      -3.4      6.041      8.268
REMARK  Name = *****
REMARK                            x       y       z     vdW  Elec       q    Type
REMARK                         _______ _______ _______ _____ _____    ______ ____
ROOT
ATOM      1  C   LIG    1       23.331 -31.483   9.577  0.00  0.00    +0.170 C 
ATOM      2  N   LIG    1       23.745 -30.222   8.919  0.00  0.00    -0.233 N 
ATOM      3  C   LIG    1       24.184 -30.220   7.555  0.00  0.00    +0.269 C 
ATOM      4  O   LIG    1       25.592 -30.101   7.602  0.00  0.00    -0.298 OA
ATOM      5  C   LIG    1       25.936 -29.306   8.748  0.00  0.00    +0.220 C 
ATOM      6  C   LIG    1       23.698 -31.453   6.776  0.00  0.00    +0.156 C 
ATOM      7  N   LIG    1       23.936 -32.693   7.498  0.00  0.00    -0.290 N 
ATOM      8  C   LIG    1       24.286 -33.782   6.611  0.00  0.00    +0.108 C 
ATOM      9  C   LIG    1       24.026 -33.207   5.220  0.00  0.00    +0.021 C 
ATOM     10  C   LIG    1       24.315 -31.715   5.404  0.00  0.00    +0.031 C 
ATOM     11  C   LIG    1       24.667 -29.451   9.611  0.00  0.00    +0.271 C 
ATOM     12  O   LIG    1       24.473 -28.944  10.715  0.00  0.00    -0.270 OA
ATOM     13  C   LIG    1       23.849 -32.774   8.869  0.00  0.00    +0.237 C 
ATOM     14  O   LIG    1       24.035 -33.825   9.478  0.00  0.00    -0.274 OA
ENDROOT
BRANCH   5  15
ATOM     15  N   LIG    1       26.077 -27.915   8.382  0.00  0.00    -0.280 N 
ATOM     16  H   LIG    1       26.167 -27.276   9.161  0.00  0.00    +0.152 HD
ATOM     17  C   LIG    1       26.134 -27.436   7.097  0.00  0.00    +0.220 C 
ATOM     18  O   LIG    1       26.061 -28.164   6.112  0.00  0.00    -0.275 OA
BRANCH  17  19
ATOM     19  C   LIG    1       26.391 -25.929   7.001  0.00  0.00    +0.090 C 
ATOM     20  C   LIG    1       26.249 -25.441   5.548  0.00  0.00    +0.097 C 
ATOM     21  N   LIG    1       24.855 -25.169   5.163  0.00  0.00    -0.301 NA
ATOM     22  C   LIG    1       24.775 -24.871   3.738  0.00  0.00    +0.105 C 
ATOM     23  C   LIG    1       24.124 -24.236   6.070  0.00  0.00    +0.068 C 
ATOM     24  C   LIG    1       24.939 -23.853   7.382  0.00  0.00    +0.038 C 
ATOM     25  C   LIG    1       25.922 -22.723   7.130  0.00  0.00    -0.033 C 
ATOM     26  C   LIG    1       25.575 -21.822   6.113  0.00  0.00    +0.006 C 
ATOM     27  C   LIG    1       26.361 -20.743   5.767  0.00  0.00    +0.047 C 
ATOM     28  N   LIG    1       25.703 -20.113   4.733  0.00  0.00    -0.360 NA
ATOM     29  H   LIG    1       26.035 -19.282   4.264  0.00  0.00    +0.165 HD
ATOM     30  C   LIG    1       24.535 -20.781   4.426  0.00  0.00    +0.087 C 
ATOM     31  C   LIG    1       27.559 -20.479   6.431  0.00  0.00    +0.026 C 
ATOM     32  C   LIG    1       27.912 -21.359   7.468  0.00  0.00    +0.002 C 
ATOM     33  C   LIG    1       24.442 -21.860   5.274  0.00  0.00    -0.021 C 
ATOM     34  C   LIG    1       27.110 -22.456   7.820  0.00  0.00    +0.005 C 
ATOM     35  C   LIG    1       23.448 -22.957   5.441  0.00  0.00    +0.056 C 
ATOM     36  C   LIG    1       25.524 -25.127   7.983  0.00  0.00    +0.023 C 
ENDBRANCH  17  19
ENDBRANCH   5  15
BRANCH   5  37
ATOM     37  C   LIG    1       27.162 -29.908   9.489  0.00  0.00    +0.043 C 
ATOM     38  C   LIG    1       27.499 -29.211  10.812  0.00  0.00    +0.012 C 
ATOM     39  C   LIG    1       27.024 -31.415   9.756  0.00  0.00    +0.012 C 
ENDBRANCH   5  37
BRANCH   1  40
ATOM     40  C   LIG    1       21.805 -31.598   9.876  0.00  0.00    +0.015 C 
ATOM     41  C   LIG    1       21.241 -30.460  10.730  0.00  0.00    +0.010 C 
BRANCH  40  43
ATOM     42  C   LIG    1       20.290 -33.666   9.764  0.00  0.00    +0.004 C 
ATOM     43  C   LIG    1       21.428 -32.960  10.496  0.00  0.00    +0.002 C 
ENDBRANCH  40  43
ENDBRANCH   1  40
BRANCH   3  44
ATOM     44  O   LIG    1       23.651 -29.051   6.958  0.00  0.00    -0.348 OA
ATOM     45  H   LIG    1       24.387 -28.416   6.969  0.00  0.00    +0.214 HD
ENDBRANCH   3  44
TORSDOF 6
ENDMDL
