MODEL 1
REMARK VINA RESULT:      -2.5      0.000      0.000
REMARK  Name = *****
REMARK                            x       y       z     vdW  Elec       q    Type
REMARK                         _______ _______ _______ _____ _____    ______ ____
ROOT
ATOM      1  C   LIG    1       26.022 -13.651   4.421  0.00  0.00    +0.192 C 
ATOM      2  N   LIG    1       26.339 -14.956   3.688  0.00  0.00    +0.239 N 
ATOM      3  C   LIG    1       25.039 -15.783   3.590  0.00  0.00    +0.137 C 
ATOM      4  C   LIG    1       25.290 -17.205   3.073  0.00  0.00    +0.082 C 
ATOM      5  C   LIG    1       26.317 -17.920   3.937  0.00  0.00    -0.051 C 
ATOM      6  C   LIG    1       26.087 -19.080   4.605  0.00  0.00    -0.011 C 
ATOM      7  C   LIG    1       27.624 -17.146   3.977  0.00  0.00    +0.082 C 
ATOM      8  C   LIG    1       27.401 -15.724   4.504  0.00  0.00    +0.137 C 
ATOM      9  C   LIG    1       26.866 -14.595   2.303  0.00  0.00    +0.192 C 
ENDROOT
BRANCH   6  10
ATOM     10  C   LIG    1       27.157 -19.679   5.436  0.00  0.00    -0.017 A 
ATOM     11  C   LIG    1       28.464 -19.177   5.375  0.00  0.00    +0.008 A 
ATOM     12  C   LIG    1       29.473 -19.751   6.150  0.00  0.00    +0.001 A 
ATOM     13  C   LIG    1       29.182 -20.825   6.991  0.00  0.00    +0.000 A 
ATOM     14  C   LIG    1       27.882 -21.324   7.061  0.00  0.00    +0.001 A 
ATOM     15  C   LIG    1       26.871 -20.753   6.287  0.00  0.00    +0.008 A 
ENDBRANCH   6  10
BRANCH   6  16
ATOM     16  C   LIG    1       24.766 -19.742   4.505  0.00  0.00    -0.017 A 
ATOM     17  C   LIG    1       24.604 -20.873   3.694  0.00  0.00    +0.008 A 
ATOM     18  C   LIG    1       23.357 -21.490   3.591  0.00  0.00    +0.001 A 
ATOM     19  C   LIG    1       22.267 -20.983   4.297  0.00  0.00    +0.000 A 
ATOM     20  C   LIG    1       22.421 -19.862   5.111  0.00  0.00    +0.001 A 
ATOM     21  C   LIG    1       23.668 -19.242   5.217  0.00  0.00    +0.008 A 
ENDBRANCH   6  16
TORSDOF 2
ENDMDL
