MODEL 1
REMARK VINA RESULT:      -7.8      0.000      0.000
REMARK  Name = *****
REMARK                            x       y       z     vdW  Elec       q    Type
REMARK                         _______ _______ _______ _____ _____    ______ ____
ROOT
ATOM      1  C   LIG    1       24.992 -21.833   5.860  0.00  0.00    +0.043 A 
ATOM      2  C   LIG    1       25.484 -20.604   5.364  0.00  0.00    -0.011 A 
ATOM      3  C   LIG    1       24.577 -19.644   4.879  0.00  0.00    +0.022 A 
ATOM      4  C   LIG    1       23.205 -19.879   4.928  0.00  0.00    +0.019 A 
ATOM      5 BR   LIG    1       22.008 -18.573   4.269  0.00  0.00    -0.050 Br
ATOM      6  C   LIG    1       22.707 -21.059   5.471  0.00  0.00    +0.032 A 
ATOM      7  C   LIG    1       23.600 -22.020   5.952  0.00  0.00    +0.040 A 
ATOM      8 BR   LIG    1       22.872 -23.612   6.697  0.00  0.00    -0.048 Br
ENDROOT
BRANCH   1   9
ATOM      9  N   LIG    1       25.889 -22.757   6.442  0.00  0.00    -0.357 N 
ATOM     10  H   LIG    1       25.752 -22.806   7.455  0.00  0.00    +0.142 HD
ATOM     11  H   LIG    1       26.859 -22.563   6.198  0.00  0.00    +0.142 HD
ENDBRANCH   1   9
BRANCH   2  12
ATOM     12  C   LIG    1       26.966 -20.279   5.361  0.00  0.00    +0.118 C 
BRANCH  12  13
ATOM     13  N   LIG    1       27.462 -20.058   6.723  0.00  0.00    -0.309 NA
ATOM     14  H   LIG    1       26.954 -20.687   7.347  0.00  0.00    +0.122 HD
BRANCH  13  15
ATOM     15  C   LIG    1       28.904 -20.298   6.874  0.00  0.00    +0.054 C 
ATOM     16  C   LIG    1       29.086 -21.191   8.114  0.00  0.00    +0.021 C 
ATOM     17  C   LIG    1       30.557 -21.428   8.459  0.00  0.00    +0.033 C 
ATOM     18  C   LIG    1       31.343 -20.127   8.592  0.00  0.00    +0.115 C 
ATOM     19  C   LIG    1       31.175 -19.243   7.360  0.00  0.00    +0.033 C 
ATOM     20  C   LIG    1       29.707 -18.993   7.010  0.00  0.00    +0.021 C 
BRANCH  18  21
ATOM     21  O   LIG    1       30.940 -19.422   9.764  0.00  0.00    -0.392 OA
ATOM     22  H   LIG    1       30.054 -19.724  10.026  0.00  0.00    +0.210 HD
ENDBRANCH  18  21
ENDBRANCH  13  15
ENDBRANCH  12  13
ENDBRANCH   2  12
TORSDOF 5
ENDMDL
MODEL 2
REMARK VINA RESULT:      -7.7      1.600      2.821
REMARK  Name = *****
REMARK                            x       y       z     vdW  Elec       q    Type
REMARK                         _______ _______ _______ _____ _____    ______ ____
ROOT
ATOM      1  C   LIG    1       26.133 -20.504   5.494  0.00  0.00    +0.043 A 
ATOM      2  C   LIG    1       26.352 -21.402   6.564  0.00  0.00    -0.011 A 
ATOM      3  C   LIG    1       25.325 -22.286   6.943  0.00  0.00    +0.022 A 
ATOM      4  C   LIG    1       24.120 -22.312   6.244  0.00  0.00    +0.019 A 
ATOM      5 BR   LIG    1       22.756 -23.509   6.775  0.00  0.00    -0.050 Br
ATOM      6  C   LIG    1       23.917 -21.476   5.151  0.00  0.00    +0.032 A 
ATOM      7  C   LIG    1       24.929 -20.593   4.770  0.00  0.00    +0.040 A 
ATOM      8 BR   LIG    1       24.610 -19.478   3.261  0.00  0.00    -0.048 Br
ENDROOT
BRANCH   1   9
ATOM      9  N   LIG    1       27.194 -19.687   5.044  0.00  0.00    -0.357 N 
ATOM     10  H   LIG    1       27.810 -20.209   4.414  0.00  0.00    +0.142 HD
ATOM     11  H   LIG    1       27.708 -19.260   5.812  0.00  0.00    +0.142 HD
ENDBRANCH   1   9
BRANCH   2  12
ATOM     12  C   LIG    1       27.675 -21.457   7.304  0.00  0.00    +0.118 C 
BRANCH  12  13
ATOM     13  N   LIG    1       27.794 -20.352   8.260  0.00  0.00    -0.309 NA
ATOM     14  H   LIG    1       27.971 -20.753   9.183  0.00  0.00    +0.122 HD
BRANCH  13  15
ATOM     15  C   LIG    1       28.868 -19.402   7.938  0.00  0.00    +0.054 C 
ATOM     16  C   LIG    1       30.013 -20.213   7.306  0.00  0.00    +0.021 C 
ATOM     17  C   LIG    1       31.252 -19.363   7.024  0.00  0.00    +0.033 C 
ATOM     18  C   LIG    1       31.728 -18.596   8.255  0.00  0.00    +0.115 C 
ATOM     19  C   LIG    1       30.598 -17.781   8.878  0.00  0.00    +0.033 C 
ATOM     20  C   LIG    1       29.356 -18.624   9.172  0.00  0.00    +0.021 C 
BRANCH  18  21
ATOM     21  O   LIG    1       32.276 -19.494   9.216  0.00  0.00    -0.392 OA
ATOM     22  H   LIG    1       32.565 -18.989   9.994  0.00  0.00    +0.210 HD
ENDBRANCH  18  21
ENDBRANCH  13  15
ENDBRANCH  12  13
ENDBRANCH   2  12
TORSDOF 5
ENDMDL
MODEL 3
REMARK VINA RESULT:      -7.5      1.385      1.710
REMARK  Name = *****
REMARK                            x       y       z     vdW  Elec       q    Type
REMARK                         _______ _______ _______ _____ _____    ______ ____
ROOT
ATOM      1  C   LIG    1       25.476 -22.431   6.762  0.00  0.00    +0.043 A 
ATOM      2  C   LIG    1       26.380 -21.386   6.461  0.00  0.00    -0.011 A 
ATOM      3  C   LIG    1       26.003 -20.393   5.539  0.00  0.00    +0.022 A 
ATOM      4  C   LIG    1       24.737 -20.410   4.959  0.00  0.00    +0.019 A 
ATOM      5 BR   LIG    1       24.257 -19.064   3.721  0.00  0.00    -0.050 Br
ATOM      6  C   LIG    1       23.817 -21.398   5.294  0.00  0.00    +0.032 A 
ATOM      7  C   LIG    1       24.183 -22.390   6.207  0.00  0.00    +0.040 A 
ATOM      8 BR   LIG    1       22.887 -23.714   6.644  0.00  0.00    -0.048 Br
ENDROOT
BRANCH   1   9
ATOM      9  N   LIG    1       25.808 -23.371   7.762  0.00  0.00    -0.357 N 
ATOM     10  H   LIG    1       24.971 -23.671   8.270  0.00  0.00    +0.142 HD
ATOM     11  H   LIG    1       26.532 -23.029   8.392  0.00  0.00    +0.142 HD
ENDBRANCH   1   9
BRANCH   2  12
ATOM     12  C   LIG    1       27.741 -21.290   7.126  0.00  0.00    +0.118 C 
BRANCH  12  13
ATOM     13  N   LIG    1       27.793 -20.164   8.064  0.00  0.00    -0.309 NA
ATOM     14  H   LIG    1       27.865 -20.546   9.008  0.00  0.00    +0.122 HD
BRANCH  13  15
ATOM     15  C   LIG    1       28.920 -19.251   7.830  0.00  0.00    +0.054 C 
ATOM     16  C   LIG    1       30.052 -20.082   7.201  0.00  0.00    +0.021 C 
ATOM     17  C   LIG    1       31.338 -19.277   7.008  0.00  0.00    +0.033 C 
ATOM     18  C   LIG    1       31.799 -18.596   8.294  0.00  0.00    +0.115 C 
ATOM     19  C   LIG    1       30.683 -17.761   8.916  0.00  0.00    +0.033 C 
ATOM     20  C   LIG    1       29.394 -18.559   9.120  0.00  0.00    +0.021 C 
BRANCH  18  21
ATOM     21  O   LIG    1       32.269 -19.565   9.227  0.00  0.00    -0.392 OA
ATOM     22  H   LIG    1       33.229 -19.463   9.334  0.00  0.00    +0.210 HD
ENDBRANCH  18  21
ENDBRANCH  13  15
ENDBRANCH  12  13
ENDBRANCH   2  12
TORSDOF 5
ENDMDL
MODEL 4
REMARK VINA RESULT:      -7.4      4.241      6.423
REMARK  Name = *****
REMARK                            x       y       z     vdW  Elec       q    Type
REMARK                         _______ _______ _______ _____ _____    ______ ____
ROOT
ATOM      1  C   LIG    1       24.630 -21.275   5.310  0.00  0.00    +0.043 A 
ATOM      2  C   LIG    1       25.050 -22.042   6.421  0.00  0.00    -0.011 A 
ATOM      3  C   LIG    1       26.309 -21.791   6.996  0.00  0.00    +0.022 A 
ATOM      4  C   LIG    1       27.118 -20.767   6.507  0.00  0.00    +0.019 A 
ATOM      5 BR   LIG    1       28.807 -20.451   7.297  0.00  0.00    -0.050 Br
ATOM      6  C   LIG    1       26.688 -19.966   5.454  0.00  0.00    +0.032 A 
ATOM      7  C   LIG    1       25.442 -20.209   4.875  0.00  0.00    +0.040 A 
ATOM      8 BR   LIG    1       24.892 -19.079   3.446  0.00  0.00    -0.048 Br
ENDROOT
BRANCH   1   9
ATOM      9  N   LIG    1       23.327 -21.453   4.795  0.00  0.00    -0.357 N 
ATOM     10  H   LIG    1       22.647 -21.544   5.555  0.00  0.00    +0.142 HD
ATOM     11  H   LIG    1       23.271 -22.231   4.139  0.00  0.00    +0.142 HD
ENDBRANCH   1   9
BRANCH   2  12
ATOM     12  C   LIG    1       24.169 -23.117   7.030  0.00  0.00    +0.118 C 
BRANCH  12  13
ATOM     13  N   LIG    1       23.735 -24.083   6.015  0.00  0.00    -0.309 NA
ATOM     14  H   LIG    1       24.129 -23.794   5.118  0.00  0.00    +0.122 HD
BRANCH  13  15
ATOM     15  C   LIG    1       24.151 -25.464   6.297  0.00  0.00    +0.054 C 
ATOM     16  C   LIG    1       25.574 -25.397   6.881  0.00  0.00    +0.021 C 
ATOM     17  C   LIG    1       26.181 -26.781   7.116  0.00  0.00    +0.033 C 
ATOM     18  C   LIG    1       26.133 -27.659   5.869  0.00  0.00    +0.115 C 
ATOM     19  C   LIG    1       24.722 -27.738   5.293  0.00  0.00    +0.033 C 
ATOM     20  C   LIG    1       24.108 -26.359   5.046  0.00  0.00    +0.021 C 
BRANCH  18  21
ATOM     21  O   LIG    1       27.041 -27.171   4.885  0.00  0.00    -0.392 OA
ATOM     22  H   LIG    1       27.762 -26.691   5.327  0.00  0.00    +0.210 HD
ENDBRANCH  18  21
ENDBRANCH  13  15
ENDBRANCH  12  13
ENDBRANCH   2  12
TORSDOF 5
ENDMDL
MODEL 5
REMARK VINA RESULT:      -7.3      5.446      7.318
REMARK  Name = *****
REMARK                            x       y       z     vdW  Elec       q    Type
REMARK                         _______ _______ _______ _____ _____    ______ ____
ROOT
ATOM      1  C   LIG    1       24.459 -22.720   6.310  0.00  0.00    +0.043 A 
ATOM      2  C   LIG    1       25.602 -23.350   6.856  0.00  0.00    -0.011 A 
ATOM      3  C   LIG    1       26.732 -22.574   7.170  0.00  0.00    +0.022 A 
ATOM      4  C   LIG    1       26.714 -21.193   6.990  0.00  0.00    +0.019 A 
ATOM      5 BR   LIG    1       28.248 -20.173   7.419  0.00  0.00    -0.050 Br
ATOM      6  C   LIG    1       25.575 -20.555   6.512  0.00  0.00    +0.032 A 
ATOM      7  C   LIG    1       24.449 -21.317   6.194  0.00  0.00    +0.040 A 
ATOM      8 BR   LIG    1       22.909 -20.400   5.555  0.00  0.00    -0.048 Br
ENDROOT
BRANCH   1   9
ATOM      9  N   LIG    1       23.288 -23.477   6.089  0.00  0.00    -0.357 N 
ATOM     10  H   LIG    1       23.518 -24.393   5.693  0.00  0.00    +0.142 HD
ATOM     11  H   LIG    1       22.604 -22.978   5.522  0.00  0.00    +0.142 HD
ENDBRANCH   1   9
BRANCH   2  12
ATOM     12  C   LIG    1       25.636 -24.840   7.136  0.00  0.00    +0.118 C 
BRANCH  12  13
ATOM     13  N   LIG    1       25.897 -25.604   5.912  0.00  0.00    -0.309 NA
ATOM     14  H   LIG    1       26.798 -25.300   5.538  0.00  0.00    +0.122 HD
BRANCH  13  15
ATOM     15  C   LIG    1       25.931 -27.059   6.117  0.00  0.00    +0.054 C 
ATOM     16  C   LIG    1       25.655 -27.714   4.752  0.00  0.00    +0.021 C 
ATOM     17  C   LIG    1       25.547 -29.237   4.840  0.00  0.00    +0.033 C 
ATOM     18  C   LIG    1       24.536 -29.691   5.889  0.00  0.00    +0.115 C 
ATOM     19  C   LIG    1       24.813 -29.053   7.247  0.00  0.00    +0.033 C 
ATOM     20  C   LIG    1       24.915 -27.529   7.172  0.00  0.00    +0.021 C 
BRANCH  18  21
ATOM     21  O   LIG    1       23.210 -29.389   5.463  0.00  0.00    -0.392 OA
ATOM     22  H   LIG    1       23.080 -29.733   4.564  0.00  0.00    +0.210 HD
ENDBRANCH  18  21
ENDBRANCH  13  15
ENDBRANCH  12  13
ENDBRANCH   2  12
TORSDOF 5
ENDMDL
MODEL 6
REMARK VINA RESULT:      -7.3      1.776      3.026
REMARK  Name = *****
REMARK                            x       y       z     vdW  Elec       q    Type
REMARK                         _______ _______ _______ _____ _____    ______ ____
ROOT
ATOM      1  C   LIG    1       25.027 -21.699   6.697  0.00  0.00    +0.043 A 
ATOM      2  C   LIG    1       26.092 -22.538   7.100  0.00  0.00    -0.011 A 
ATOM      3  C   LIG    1       25.951 -23.933   6.984  0.00  0.00    +0.022 A 
ATOM      4  C   LIG    1       24.794 -24.484   6.439  0.00  0.00    +0.019 A 
ATOM      5 BR   LIG    1       24.629 -26.363   6.297  0.00  0.00    -0.050 Br
ATOM      6  C   LIG    1       23.765 -23.666   5.983  0.00  0.00    +0.032 A 
ATOM      7  C   LIG    1       23.895 -22.280   6.096  0.00  0.00    +0.040 A 
ATOM      8 BR   LIG    1       22.468 -21.201   5.448  0.00  0.00    -0.048 Br
ENDROOT
BRANCH   1   9
ATOM      9  N   LIG    1       25.202 -20.297   6.714  0.00  0.00    -0.357 N 
ATOM     10  H   LIG    1       25.156 -19.939   7.673  0.00  0.00    +0.142 HD
ATOM     11  H   LIG    1       24.551 -19.817   6.096  0.00  0.00    +0.142 HD
ENDBRANCH   1   9
BRANCH   2  12
ATOM     12  C   LIG    1       27.397 -21.976   7.630  0.00  0.00    +0.118 C 
BRANCH  12  13
ATOM     13  N   LIG    1       28.010 -21.060   6.663  0.00  0.00    -0.309 NA
ATOM     14  H   LIG    1       27.457 -20.202   6.649  0.00  0.00    +0.122 HD
BRANCH  13  15
ATOM     15  C   LIG    1       29.407 -20.721   6.972  0.00  0.00    +0.054 C 
ATOM     16  C   LIG    1       29.765 -21.438   8.286  0.00  0.00    +0.021 C 
ATOM     17  C   LIG    1       31.164 -21.080   8.790  0.00  0.00    +0.033 C 
ATOM     18  C   LIG    1       31.377 -19.573   8.903  0.00  0.00    +0.115 C 
ATOM     19  C   LIG    1       31.034 -18.860   7.598  0.00  0.00    +0.033 C 
ATOM     20  C   LIG    1       29.634 -19.204   7.089  0.00  0.00    +0.021 C 
BRANCH  18  21
ATOM     21  O   LIG    1       30.601 -19.043   9.974  0.00  0.00    -0.392 OA
ATOM     22  H   LIG    1       29.707 -19.422   9.937  0.00  0.00    +0.210 HD
ENDBRANCH  18  21
ENDBRANCH  13  15
ENDBRANCH  12  13
ENDBRANCH   2  12
TORSDOF 5
ENDMDL
MODEL 7
REMARK VINA RESULT:      -7.2      5.701      7.859
REMARK  Name = *****
REMARK                            x       y       z     vdW  Elec       q    Type
REMARK                         _______ _______ _______ _____ _____    ______ ____
ROOT
ATOM      1  C   LIG    1       24.422 -28.845   6.151  0.00  0.00    +0.043 A 
ATOM      2  C   LIG    1       25.088 -27.652   6.514  0.00  0.00    -0.011 A 
ATOM      3  C   LIG    1       25.814 -27.607   7.717  0.00  0.00    +0.022 A 
ATOM      4  C   LIG    1       25.917 -28.738   8.524  0.00  0.00    +0.019 A 
ATOM      5 BR   LIG    1       26.898 -28.649  10.138  0.00  0.00    -0.050 Br
ATOM      6  C   LIG    1       25.317 -29.934   8.147  0.00  0.00    +0.032 A 
ATOM      7  C   LIG    1       24.591 -29.988   6.955  0.00  0.00    +0.040 A 
ATOM      8 BR   LIG    1       23.799 -31.650   6.475  0.00  0.00    -0.048 Br
ENDROOT
BRANCH   1   9
ATOM      9  N   LIG    1       23.778 -28.928   4.896  0.00  0.00    -0.357 N 
ATOM     10  H   LIG    1       24.385 -28.571   4.153  0.00  0.00    +0.142 HD
ATOM     11  H   LIG    1       22.867 -28.472   4.896  0.00  0.00    +0.142 HD
ENDBRANCH   1   9
BRANCH   2  12
ATOM     12  C   LIG    1       25.062 -26.421   5.627  0.00  0.00    +0.118 C 
BRANCH  12  13
ATOM     13  N   LIG    1       23.872 -25.605   5.889  0.00  0.00    -0.309 NA
ATOM     14  H   LIG    1       23.151 -26.216   6.274  0.00  0.00    +0.122 HD
BRANCH  13  15
ATOM     15  C   LIG    1       24.109 -24.497   6.825  0.00  0.00    +0.054 C 
ATOM     16  C   LIG    1       23.062 -23.412   6.515  0.00  0.00    +0.021 C 
ATOM     17  C   LIG    1       23.264 -22.143   7.344  0.00  0.00    +0.033 C 
ATOM     18  C   LIG    1       24.682 -21.593   7.233  0.00  0.00    +0.115 C 
ATOM     19  C   LIG    1       25.724 -22.661   7.551  0.00  0.00    +0.033 C 
ATOM     20  C   LIG    1       25.536 -23.932   6.721  0.00  0.00    +0.021 C 
BRANCH  18  21
ATOM     21  O   LIG    1       24.905 -21.058   5.931  0.00  0.00    -0.392 OA
ATOM     22  H   LIG    1       24.398 -20.234   5.835  0.00  0.00    +0.210 HD
ENDBRANCH  18  21
ENDBRANCH  13  15
ENDBRANCH  12  13
ENDBRANCH   2  12
TORSDOF 5
ENDMDL
MODEL 8
REMARK VINA RESULT:      -6.9      4.139      6.780
REMARK  Name = *****
REMARK                            x       y       z     vdW  Elec       q    Type
REMARK                         _______ _______ _______ _____ _____    ______ ____
ROOT
ATOM      1  C   LIG    1       29.784 -20.492   7.464  0.00  0.00    +0.043 A 
ATOM      2  C   LIG    1       29.509 -19.232   6.884  0.00  0.00    -0.011 A 
ATOM      3  C   LIG    1       30.071 -18.074   7.454  0.00  0.00    +0.022 A 
ATOM      4  C   LIG    1       30.924 -18.168   8.551  0.00  0.00    +0.019 A 
ATOM      5 BR   LIG    1       31.664 -16.597   9.299  0.00  0.00    -0.050 Br
ATOM      6  C   LIG    1       31.250 -19.408   9.091  0.00  0.00    +0.032 A 
ATOM      7  C   LIG    1       30.696 -20.562   8.534  0.00  0.00    +0.040 A 
ATOM      8 BR   LIG    1       31.180 -22.236   9.300  0.00  0.00    -0.048 Br
ENDROOT
BRANCH   1   9
ATOM      9  N   LIG    1       29.308 -21.664   6.836  0.00  0.00    -0.357 N 
ATOM     10  H   LIG    1       28.819 -22.262   7.509  0.00  0.00    +0.142 HD
ATOM     11  H   LIG    1       30.044 -22.168   6.345  0.00  0.00    +0.142 HD
ENDBRANCH   1   9
BRANCH   2  12
ATOM     12  C   LIG    1       28.644 -19.092   5.646  0.00  0.00    +0.118 C 
BRANCH  12  13
ATOM     13  N   LIG    1       27.778 -20.262   5.471  0.00  0.00    -0.309 NA
ATOM     14  H   LIG    1       28.070 -20.972   6.145  0.00  0.00    +0.122 HD
BRANCH  13  15
ATOM     15  C   LIG    1       26.350 -19.976   5.669  0.00  0.00    +0.054 C 
ATOM     16  C   LIG    1       25.858 -20.892   6.804  0.00  0.00    +0.021 C 
ATOM     17  C   LIG    1       24.352 -20.782   7.041  0.00  0.00    +0.033 C 
ATOM     18  C   LIG    1       23.543 -20.995   5.765  0.00  0.00    +0.115 C 
ATOM     19  C   LIG    1       24.019 -20.080   4.640  0.00  0.00    +0.033 C 
ATOM     20  C   LIG    1       25.523 -20.189   4.389  0.00  0.00    +0.021 C 
BRANCH  18  21
ATOM     21  O   LIG    1       23.614 -22.358   5.356  0.00  0.00    -0.392 OA
ATOM     22  H   LIG    1       23.318 -22.429   4.432  0.00  0.00    +0.210 HD
ENDBRANCH  18  21
ENDBRANCH  13  15
ENDBRANCH  12  13
ENDBRANCH   2  12
TORSDOF 5
ENDMDL
MODEL 9
REMARK VINA RESULT:      -6.9      4.179      6.141
REMARK  Name = *****
REMARK                            x       y       z     vdW  Elec       q    Type
REMARK                         _______ _______ _______ _____ _____    ______ ____
ROOT
ATOM      1  C   LIG    1       26.103 -21.520   7.189  0.00  0.00    +0.043 A 
ATOM      2  C   LIG    1       24.919 -21.902   6.517  0.00  0.00    -0.011 A 
ATOM      3  C   LIG    1       24.562 -21.247   5.324  0.00  0.00    +0.022 A 
ATOM      4  C   LIG    1       25.386 -20.263   4.783  0.00  0.00    +0.019 A 
ATOM      5 BR   LIG    1       24.882 -19.397   3.180  0.00  0.00    -0.050 Br
ATOM      6  C   LIG    1       26.583 -19.922   5.404  0.00  0.00    +0.032 A 
ATOM      7  C   LIG    1       26.945 -20.565   6.589  0.00  0.00    +0.040 A 
ATOM      8 BR   LIG    1       28.598 -20.074   7.395  0.00  0.00    -0.048 Br
ENDROOT
BRANCH   1   9
ATOM      9  N   LIG    1       26.519 -22.243   8.329  0.00  0.00    -0.357 N 
ATOM     10  H   LIG    1       27.287 -22.878   8.094  0.00  0.00    +0.142 HD
ATOM     11  H   LIG    1       25.748 -22.730   8.783  0.00  0.00    +0.142 HD
ENDBRANCH   1   9
BRANCH   2  12
ATOM     12  C   LIG    1       24.031 -23.020   7.032  0.00  0.00    +0.118 C 
BRANCH  12  13
ATOM     13  N   LIG    1       23.741 -23.995   5.976  0.00  0.00    -0.309 NA
ATOM     14  H   LIG    1       24.237 -23.701   5.133  0.00  0.00    +0.122 HD
BRANCH  13  15
ATOM     15  C   LIG    1       24.144 -25.368   6.311  0.00  0.00    +0.054 C 
ATOM     16  C   LIG    1       25.582 -25.298   6.853  0.00  0.00    +0.021 C 
ATOM     17  C   LIG    1       26.174 -26.679   7.137  0.00  0.00    +0.033 C 
ATOM     18  C   LIG    1       26.079 -27.613   5.934  0.00  0.00    +0.115 C 
ATOM     19  C   LIG    1       24.651 -27.696   5.401  0.00  0.00    +0.033 C 
ATOM     20  C   LIG    1       24.052 -26.320   5.106  0.00  0.00    +0.021 C 
BRANCH  18  21
ATOM     21  O   LIG    1       26.967 -27.187   4.904  0.00  0.00    -0.392 OA
ATOM     22  H   LIG    1       27.086 -27.913   4.268  0.00  0.00    +0.210 HD
ENDBRANCH  18  21
ENDBRANCH  13  15
ENDBRANCH  12  13
ENDBRANCH   2  12
TORSDOF 5
ENDMDL
