MODEL 1
REMARK VINA RESULT:      -8.2      0.000      0.000
REMARK  Name = *****
REMARK                            x       y       z     vdW  Elec       q    Type
REMARK                         _______ _______ _______ _____ _____    ______ ____
ROOT
ATOM      1  C   LIG    1       24.168 -26.252   5.406  0.00  0.00    +0.044 C 
ATOM      2  C   LIG    1       25.316 -26.205   6.380  0.00  0.00    -0.050 C 
ATOM      3  C   LIG    1       25.915 -25.108   6.874  0.00  0.00    +0.003 C 
ENDROOT
BRANCH   2   4
ATOM      4  C   LIG    1       25.805 -27.507   6.797  0.00  0.00    +0.003 C 
ATOM      5  C   LIG    1       25.008 -28.457   7.310  0.00  0.00    +0.004 C 
BRANCH   5   6
ATOM      6  C   LIG    1       25.464 -29.787   7.690  0.00  0.00    -0.043 C 
ATOM      7  C   LIG    1       25.748 -29.998   9.199  0.00  0.00    -0.010 C 
ATOM      8  C   LIG    1       26.652 -28.890   9.794  0.00  0.00    +0.016 C 
ATOM      9  C   LIG    1       24.422 -30.005   9.996  0.00  0.00    +0.016 C 
ATOM     10  C   LIG    1       26.494 -31.338   9.442  0.00  0.00    +0.011 C 
ATOM     11  C   LIG    1       25.892 -32.483   8.647  0.00  0.00    +0.005 C 
ATOM     12  C   LIG    1       25.983 -32.190   7.158  0.00  0.00    +0.031 C 
ATOM     13  C   LIG    1       25.578 -30.784   6.775  0.00  0.00    -0.069 C 
ATOM     14  C   LIG    1       25.309 -30.663   5.289  0.00  0.00    +0.039 C 
ENDBRANCH   5   6
ENDBRANCH   2   4
BRANCH   3  15
ATOM     15  C   LIG    1       25.554 -23.745   6.591  0.00  0.00    +0.001 C 
ATOM     16  C   LIG    1       24.538 -23.128   7.213  0.00  0.00    +0.003 C 
BRANCH  16  17
ATOM     17  C   LIG    1       24.153 -21.761   6.941  0.00  0.00    -0.044 C 
ATOM     18  C   LIG    1       24.821 -20.668   7.364  0.00  0.00    +0.094 C 
ATOM     19  C   LIG    1       22.938 -21.576   6.056  0.00  0.00    +0.044 C 
BRANCH  18  20
ATOM     20  C   LIG    1       26.011 -20.469   8.215  0.00  0.00    +0.330 C 
ATOM     21  O   LIG    1       25.910 -20.502   9.442  0.00  0.00    -0.246 OA
BRANCH  20  22
ATOM     22  O   LIG    1       27.185 -20.269   7.609  0.00  0.00    -0.477 OA
ATOM     23  H   LIG    1       27.579 -19.394   7.775  0.00  0.00    +0.295 HD
ENDBRANCH  20  22
ENDBRANCH  18  20
ENDBRANCH  16  17
ENDBRANCH   3  15
TORSDOF 6
ENDMDL
MODEL 2
REMARK VINA RESULT:      -8.0      0.608      2.251
REMARK  Name = *****
REMARK                            x       y       z     vdW  Elec       q    Type
REMARK                         _______ _______ _______ _____ _____    ______ ____
ROOT
ATOM      1  C   LIG    1       24.034 -26.415   5.567  0.00  0.00    +0.044 C 
ATOM      2  C   LIG    1       25.255 -26.327   6.444  0.00  0.00    -0.050 C 
ATOM      3  C   LIG    1       25.886 -25.209   6.842  0.00  0.00    +0.003 C 
ENDROOT
BRANCH   2   4
ATOM      4  C   LIG    1       25.781 -27.609   6.875  0.00  0.00    +0.003 C 
ATOM      5  C   LIG    1       24.998 -28.620   7.284  0.00  0.00    +0.004 C 
BRANCH   5   6
ATOM      6  C   LIG    1       25.498 -29.932   7.674  0.00  0.00    -0.043 C 
ATOM      7  C   LIG    1       25.168 -31.095   6.704  0.00  0.00    -0.010 C 
ATOM      8  C   LIG    1       23.668 -31.142   6.322  0.00  0.00    +0.016 C 
ATOM      9  C   LIG    1       25.983 -30.948   5.398  0.00  0.00    +0.016 C 
ATOM     10  C   LIG    1       25.489 -32.468   7.353  0.00  0.00    +0.011 C 
ATOM     11  C   LIG    1       26.834 -32.468   8.060  0.00  0.00    +0.005 C 
ATOM     12  C   LIG    1       26.836 -31.438   9.179  0.00  0.00    +0.031 C 
ATOM     13  C   LIG    1       26.249 -30.099   8.793  0.00  0.00    -0.069 C 
ATOM     14  C   LIG    1       26.624 -29.016   9.782  0.00  0.00    +0.039 C 
ENDBRANCH   5   6
ENDBRANCH   2   4
BRANCH   3  15
ATOM     15  C   LIG    1       25.498 -23.859   6.531  0.00  0.00    +0.001 C 
ATOM     16  C   LIG    1       24.541 -23.213   7.215  0.00  0.00    +0.003 C 
BRANCH  16  17
ATOM     17  C   LIG    1       24.130 -21.859   6.917  0.00  0.00    -0.044 C 
ATOM     18  C   LIG    1       24.794 -20.746   7.293  0.00  0.00    +0.094 C 
ATOM     19  C   LIG    1       22.889 -21.714   6.061  0.00  0.00    +0.044 C 
BRANCH  18  20
ATOM     20  C   LIG    1       26.004 -20.509   8.106  0.00  0.00    +0.330 C 
ATOM     21  O   LIG    1       27.072 -20.224   7.562  0.00  0.00    -0.246 OA
BRANCH  20  22
ATOM     22  O   LIG    1       25.891 -20.603   9.433  0.00  0.00    -0.477 OA
ATOM     23  H   LIG    1       26.647 -20.241   9.928  0.00  0.00    +0.295 HD
ENDBRANCH  20  22
ENDBRANCH  18  20
ENDBRANCH  16  17
ENDBRANCH   3  15
TORSDOF 6
ENDMDL
MODEL 3
REMARK VINA RESULT:      -7.7      1.702      2.135
REMARK  Name = *****
REMARK                            x       y       z     vdW  Elec       q    Type
REMARK                         _______ _______ _______ _____ _____    ______ ____
ROOT
ATOM      1  C   LIG    1       24.094 -26.073   5.553  0.00  0.00    +0.044 C 
ATOM      2  C   LIG    1       25.295 -26.132   6.461  0.00  0.00    -0.050 C 
ATOM      3  C   LIG    1       26.007 -25.093   6.930  0.00  0.00    +0.003 C 
ENDROOT
BRANCH   2   4
ATOM      4  C   LIG    1       25.698 -27.474   6.839  0.00  0.00    +0.003 C 
ATOM      5  C   LIG    1       24.825 -28.422   7.213  0.00  0.00    +0.004 C 
BRANCH   5   6
ATOM      6  C   LIG    1       25.200 -29.789   7.549  0.00  0.00    -0.043 C 
ATOM      7  C   LIG    1       25.232 -30.127   9.061  0.00  0.00    -0.010 C 
ATOM      8  C   LIG    1       26.039 -29.093   9.884  0.00  0.00    +0.016 C 
ATOM      9  C   LIG    1       23.795 -30.166   9.631  0.00  0.00    +0.016 C 
ATOM     10  C   LIG    1       25.915 -31.500   9.309  0.00  0.00    +0.011 C 
ATOM     11  C   LIG    1       25.437 -32.562   8.335  0.00  0.00    +0.005 C 
ATOM     12  C   LIG    1       25.772 -32.153   6.909  0.00  0.00    +0.031 C 
ATOM     13  C   LIG    1       25.450 -30.711   6.584  0.00  0.00    -0.069 C 
ATOM     14  C   LIG    1       25.427 -30.464   5.090  0.00  0.00    +0.039 C 
ENDBRANCH   5   6
ENDBRANCH   2   4
BRANCH   3  15
ATOM     15  C   LIG    1       25.743 -23.701   6.678  0.00  0.00    +0.001 C 
ATOM     16  C   LIG    1       25.246 -22.885   7.620  0.00  0.00    +0.003 C 
BRANCH  16  17
ATOM     17  C   LIG    1       24.967 -21.484   7.389  0.00  0.00    -0.044 C 
ATOM     18  C   LIG    1       23.909 -21.006   6.703  0.00  0.00    +0.094 C 
ATOM     19  C   LIG    1       25.922 -20.502   8.035  0.00  0.00    +0.044 C 
BRANCH  18  20
ATOM     20  C   LIG    1       22.805 -21.647   5.961  0.00  0.00    +0.330 C 
ATOM     21  O   LIG    1       22.236 -21.044   5.049  0.00  0.00    -0.246 OA
BRANCH  20  22
ATOM     22  O   LIG    1       22.462 -22.891   6.305  0.00  0.00    -0.477 OA
ATOM     23  H   LIG    1       23.209 -23.455   6.572  0.00  0.00    +0.295 HD
ENDBRANCH  20  22
ENDBRANCH  18  20
ENDBRANCH  16  17
ENDBRANCH   3  15
TORSDOF 6
ENDMDL
MODEL 4
REMARK VINA RESULT:      -7.4      5.880      9.145
REMARK  Name = *****
REMARK                            x       y       z     vdW  Elec       q    Type
REMARK                         _______ _______ _______ _____ _____    ______ ____
ROOT
ATOM      1  C   LIG    1       29.997 -20.936   8.016  0.00  0.00    +0.044 C 
ATOM      2  C   LIG    1       28.968 -19.836   8.034  0.00  0.00    -0.050 C 
ATOM      3  C   LIG    1       29.178 -18.535   8.299  0.00  0.00    +0.003 C 
ENDROOT
BRANCH   2   4
ATOM      4  C   LIG    1       27.616 -20.273   7.739  0.00  0.00    +0.003 C 
ATOM      5  C   LIG    1       27.148 -20.409   6.488  0.00  0.00    +0.004 C 
BRANCH   5   6
ATOM      6  C   LIG    1       25.812 -20.892   6.165  0.00  0.00    -0.043 C 
ATOM      7  C   LIG    1       25.207 -21.917   7.157  0.00  0.00    -0.010 C 
ATOM      8  C   LIG    1       26.178 -23.082   7.473  0.00  0.00    +0.016 C 
ATOM      9  C   LIG    1       24.853 -21.223   8.493  0.00  0.00    +0.016 C 
ATOM     10  C   LIG    1       23.928 -22.572   6.569  0.00  0.00    +0.011 C 
ATOM     11  C   LIG    1       23.007 -21.552   5.923  0.00  0.00    +0.005 C 
ATOM     12  C   LIG    1       23.719 -20.859   4.772  0.00  0.00    +0.031 C 
ATOM     13  C   LIG    1       25.132 -20.424   5.087  0.00  0.00    -0.069 C 
ATOM     14  C   LIG    1       25.647 -19.417   4.080  0.00  0.00    +0.039 C 
ENDBRANCH   5   6
ENDBRANCH   2   4
BRANCH   3  15
ATOM     15  C   LIG    1       30.446 -17.923   8.591  0.00  0.00    +0.001 C 
ATOM     16  C   LIG    1       30.682 -17.277   9.743  0.00  0.00    +0.003 C 
BRANCH  16  17
ATOM     17  C   LIG    1       31.947 -16.649  10.056  0.00  0.00    -0.044 C 
ATOM     18  C   LIG    1       32.392 -16.379  11.300  0.00  0.00    +0.094 C 
ATOM     19  C   LIG    1       32.847 -16.343   8.877  0.00  0.00    +0.044 C 
BRANCH  18  20
ATOM     20  C   LIG    1       31.806 -16.536  12.647  0.00  0.00    +0.330 C 
ATOM     21  O   LIG    1       31.469 -15.546  13.298  0.00  0.00    -0.246 OA
BRANCH  20  22
ATOM     22  O   LIG    1       31.649 -17.776  13.117  0.00  0.00    -0.477 OA
ATOM     23  H   LIG    1       31.955 -18.477  12.513  0.00  0.00    +0.295 HD
ENDBRANCH  20  22
ENDBRANCH  18  20
ENDBRANCH  16  17
ENDBRANCH   3  15
TORSDOF 6
ENDMDL
MODEL 5
REMARK VINA RESULT:      -7.4      1.580      2.810
REMARK  Name = *****
REMARK                            x       y       z     vdW  Elec       q    Type
REMARK                         _______ _______ _______ _____ _____    ______ ____
ROOT
ATOM      1  C   LIG    1       24.147 -26.268   5.614  0.00  0.00    +0.044 C 
ATOM      2  C   LIG    1       25.376 -26.181   6.482  0.00  0.00    -0.050 C 
ATOM      3  C   LIG    1       26.037 -25.067   6.840  0.00  0.00    +0.003 C 
ENDROOT
BRANCH   2   4
ATOM      4  C   LIG    1       25.871 -27.462   6.952  0.00  0.00    +0.003 C 
ATOM      5  C   LIG    1       25.069 -28.425   7.432  0.00  0.00    +0.004 C 
BRANCH   5   6
ATOM      6  C   LIG    1       25.536 -29.736   7.863  0.00  0.00    -0.043 C 
ATOM      7  C   LIG    1       25.173 -30.921   6.933  0.00  0.00    -0.010 C 
ATOM      8  C   LIG    1       23.670 -30.942   6.558  0.00  0.00    +0.016 C 
ATOM      9  C   LIG    1       25.986 -30.839   5.621  0.00  0.00    +0.016 C 
ATOM     10  C   LIG    1       25.461 -32.280   7.627  0.00  0.00    +0.011 C 
ATOM     11  C   LIG    1       26.808 -32.291   8.329  0.00  0.00    +0.005 C 
ATOM     12  C   LIG    1       26.840 -31.226   9.414  0.00  0.00    +0.031 C 
ATOM     13  C   LIG    1       26.287 -29.885   8.985  0.00  0.00    -0.069 C 
ATOM     14  C   LIG    1       26.694 -28.780   9.937  0.00  0.00    +0.039 C 
ENDBRANCH   5   6
ENDBRANCH   2   4
BRANCH   3  15
ATOM     15  C   LIG    1       25.681 -23.719   6.486  0.00  0.00    +0.001 C 
ATOM     16  C   LIG    1       26.276 -22.652   7.040  0.00  0.00    +0.003 C 
BRANCH  16  17
ATOM     17  C   LIG    1       25.932 -21.288   6.705  0.00  0.00    -0.044 C 
ATOM     18  C   LIG    1       24.677 -20.797   6.644  0.00  0.00    +0.094 C 
ATOM     19  C   LIG    1       27.096 -20.347   6.472  0.00  0.00    +0.044 C 
BRANCH  18  20
ATOM     20  C   LIG    1       23.339 -21.401   6.808  0.00  0.00    +0.330 C 
ATOM     21  O   LIG    1       22.909 -21.663   7.932  0.00  0.00    -0.246 OA
BRANCH  20  22
ATOM     22  O   LIG    1       22.623 -21.636   5.706  0.00  0.00    -0.477 OA
ATOM     23  H   LIG    1       22.995 -22.323   5.123  0.00  0.00    +0.295 HD
ENDBRANCH  20  22
ENDBRANCH  18  20
ENDBRANCH  16  17
ENDBRANCH   3  15
TORSDOF 6
ENDMDL
MODEL 6
REMARK VINA RESULT:      -7.1      6.364      9.152
REMARK  Name = *****
REMARK                            x       y       z     vdW  Elec       q    Type
REMARK                         _______ _______ _______ _____ _____    ______ ____
ROOT
ATOM      1  C   LIG    1       27.311 -21.800   8.289  0.00  0.00    +0.044 C 
ATOM      2  C   LIG    1       27.200 -20.641   7.333  0.00  0.00    -0.050 C 
ATOM      3  C   LIG    1       28.187 -19.817   6.942  0.00  0.00    +0.003 C 
ENDROOT
BRANCH   2   4
ATOM      4  C   LIG    1       25.864 -20.419   6.810  0.00  0.00    +0.003 C 
ATOM      5  C   LIG    1       25.593 -20.361   5.497  0.00  0.00    +0.004 C 
BRANCH   5   6
ATOM      6  C   LIG    1       24.256 -20.189   4.947  0.00  0.00    -0.043 C 
ATOM      7  C   LIG    1       23.143 -21.052   5.594  0.00  0.00    -0.010 C 
ATOM      8  C   LIG    1       23.535 -22.548   5.693  0.00  0.00    +0.016 C 
ATOM      9  C   LIG    1       22.840 -20.548   7.025  0.00  0.00    +0.016 C 
ATOM     10  C   LIG    1       21.841 -21.004   4.750  0.00  0.00    +0.011 C 
ATOM     11  C   LIG    1       21.499 -19.594   4.302  0.00  0.00    +0.005 C 
ATOM     12  C   LIG    1       22.613 -19.040   3.427  0.00  0.00    +0.031 C 
ATOM     13  C   LIG    1       24.006 -19.285   3.965  0.00  0.00    -0.069 C 
ATOM     14  C   LIG    1       25.031 -18.398   3.290  0.00  0.00    +0.039 C 
ENDBRANCH   5   6
ENDBRANCH   2   4
BRANCH   3  15
ATOM     15  C   LIG    1       29.567 -19.899   7.338  0.00  0.00    +0.001 C 
ATOM     16  C   LIG    1       30.052 -19.219   8.389  0.00  0.00    +0.003 C 
BRANCH  16  17
ATOM     17  C   LIG    1       31.436 -19.281   8.803  0.00  0.00    -0.044 C 
ATOM     18  C   LIG    1       32.092 -20.407   9.154  0.00  0.00    +0.094 C 
ATOM     19  C   LIG    1       32.199 -17.974   8.768  0.00  0.00    +0.044 C 
BRANCH  18  20
ATOM     20  C   LIG    1       31.684 -21.819   9.297  0.00  0.00    +0.330 C 
ATOM     21  O   LIG    1       30.851 -22.142  10.146  0.00  0.00    -0.246 OA
BRANCH  20  22
ATOM     22  O   LIG    1       32.237 -22.714   8.474  0.00  0.00    -0.477 OA
ATOM     23  H   LIG    1       33.023 -22.391   7.999  0.00  0.00    +0.295 HD
ENDBRANCH  20  22
ENDBRANCH  18  20
ENDBRANCH  16  17
ENDBRANCH   3  15
TORSDOF 6
ENDMDL
MODEL 7
REMARK VINA RESULT:      -6.9      3.881      9.456
REMARK  Name = *****
REMARK                            x       y       z     vdW  Elec       q    Type
REMARK                         _______ _______ _______ _____ _____    ______ ____
ROOT
ATOM      1  C   LIG    1       25.889 -23.947   7.502  0.00  0.00    +0.044 C 
ATOM      2  C   LIG    1       25.128 -24.174   6.222  0.00  0.00    -0.050 C 
ATOM      3  C   LIG    1       24.544 -25.315   5.819  0.00  0.00    +0.003 C 
ENDROOT
BRANCH   2   4
ATOM      4  C   LIG    1       25.049 -23.012   5.355  0.00  0.00    +0.003 C 
ATOM      5  C   LIG    1       25.063 -21.753   5.818  0.00  0.00    +0.004 C 
BRANCH   5   6
ATOM      6  C   LIG    1       25.035 -20.571   4.966  0.00  0.00    -0.043 C 
ATOM      7  C   LIG    1       23.660 -20.222   4.342  0.00  0.00    -0.010 C 
ATOM      8  C   LIG    1       22.994 -21.440   3.656  0.00  0.00    +0.016 C 
ATOM      9  C   LIG    1       22.692 -19.708   5.434  0.00  0.00    +0.016 C 
ATOM     10  C   LIG    1       23.809 -19.137   3.242  0.00  0.00    +0.011 C 
ATOM     11  C   LIG    1       24.721 -18.002   3.674  0.00  0.00    +0.005 C 
ATOM     12  C   LIG    1       26.116 -18.534   3.962  0.00  0.00    +0.031 C 
ATOM     13  C   LIG    1       26.140 -19.804   4.784  0.00  0.00    -0.069 C 
ATOM     14  C   LIG    1       27.513 -20.068   5.366  0.00  0.00    +0.039 C 
ENDBRANCH   5   6
ENDBRANCH   2   4
BRANCH   3  15
ATOM     15  C   LIG    1       24.504 -26.553   6.552  0.00  0.00    +0.001 C 
ATOM     16  C   LIG    1       25.614 -27.240   6.860  0.00  0.00    +0.003 C 
BRANCH  16  17
ATOM     17  C   LIG    1       25.598 -28.487   7.591  0.00  0.00    -0.044 C 
ATOM     18  C   LIG    1       25.150 -29.665   7.107  0.00  0.00    +0.094 C 
ATOM     19  C   LIG    1       26.196 -28.450   8.981  0.00  0.00    +0.044 C 
BRANCH  18  20
ATOM     20  C   LIG    1       24.521 -30.068   5.833  0.00  0.00    +0.330 C 
ATOM     21  O   LIG    1       25.159 -30.718   5.004  0.00  0.00    -0.246 OA
BRANCH  20  22
ATOM     22  O   LIG    1       23.250 -29.714   5.627  0.00  0.00    -0.477 OA
ATOM     23  H   LIG    1       23.134 -28.802   5.304  0.00  0.00    +0.295 HD
ENDBRANCH  20  22
ENDBRANCH  18  20
ENDBRANCH  16  17
ENDBRANCH   3  15
TORSDOF 6
ENDMDL
MODEL 8
REMARK VINA RESULT:      -6.8      1.373      1.985
REMARK  Name = *****
REMARK                            x       y       z     vdW  Elec       q    Type
REMARK                         _______ _______ _______ _____ _____    ______ ____
ROOT
ATOM      1  C   LIG    1       24.608 -27.873   5.170  0.00  0.00    +0.044 C 
ATOM      2  C   LIG    1       25.116 -27.729   6.581  0.00  0.00    -0.050 C 
ATOM      3  C   LIG    1       25.633 -26.625   7.146  0.00  0.00    +0.003 C 
ENDROOT
BRANCH   2   4
ATOM      4  C   LIG    1       25.030 -28.939   7.378  0.00  0.00    +0.003 C 
ATOM      5  C   LIG    1       25.801 -29.163   8.454  0.00  0.00    +0.004 C 
BRANCH   5   6
ATOM      6  C   LIG    1       25.699 -30.345   9.299  0.00  0.00    -0.043 C 
ATOM      7  C   LIG    1       25.039 -30.128  10.685  0.00  0.00    -0.010 C 
ATOM      8  C   LIG    1       25.645 -28.926  11.450  0.00  0.00    +0.016 C 
ATOM      9  C   LIG    1       23.523 -29.867  10.519  0.00  0.00    +0.016 C 
ATOM     10  C   LIG    1       25.245 -31.367  11.598  0.00  0.00    +0.011 C 
ATOM     11  C   LIG    1       24.986 -32.671  10.863  0.00  0.00    +0.005 C 
ATOM     12  C   LIG    1       25.953 -32.815   9.698  0.00  0.00    +0.031 C 
ATOM     13  C   LIG    1       26.113 -31.563   8.865  0.00  0.00    -0.069 C 
ATOM     14  C   LIG    1       26.754 -31.859   7.525  0.00  0.00    +0.039 C 
ENDBRANCH   5   6
ENDBRANCH   2   4
BRANCH   3  15
ATOM     15  C   LIG    1       25.777 -25.339   6.519  0.00  0.00    +0.001 C 
ATOM     16  C   LIG    1       25.223 -24.227   7.026  0.00  0.00    +0.003 C 
BRANCH  16  17
ATOM     17  C   LIG    1       25.350 -22.925   6.410  0.00  0.00    -0.044 C 
ATOM     18  C   LIG    1       25.979 -21.865   6.958  0.00  0.00    +0.094 C 
ATOM     19  C   LIG    1       24.778 -22.792   5.014  0.00  0.00    +0.044 C 
BRANCH  18  20
ATOM     20  C   LIG    1       26.636 -21.634   8.260  0.00  0.00    +0.330 C 
ATOM     21  O   LIG    1       27.865 -21.629   8.344  0.00  0.00    -0.246 OA
BRANCH  20  22
ATOM     22  O   LIG    1       25.856 -21.423   9.323  0.00  0.00    -0.477 OA
ATOM     23  H   LIG    1       25.397 -20.564   9.322  0.00  0.00    +0.295 HD
ENDBRANCH  20  22
ENDBRANCH  18  20
ENDBRANCH  16  17
ENDBRANCH   3  15
TORSDOF 6
ENDMDL
MODEL 9
REMARK VINA RESULT:      -6.7      6.405      9.242
REMARK  Name = *****
REMARK                            x       y       z     vdW  Elec       q    Type
REMARK                         _______ _______ _______ _____ _____    ______ ____
ROOT
ATOM      1  C   LIG    1       27.452 -21.801   8.393  0.00  0.00    +0.044 C 
ATOM      2  C   LIG    1       27.289 -20.657   7.426  0.00  0.00    -0.050 C 
ATOM      3  C   LIG    1       28.237 -19.789   7.033  0.00  0.00    +0.003 C 
ENDROOT
BRANCH   2   4
ATOM      4  C   LIG    1       25.948 -20.506   6.894  0.00  0.00    +0.003 C 
ATOM      5  C   LIG    1       25.697 -20.293   5.593  0.00  0.00    +0.004 C 
BRANCH   5   6
ATOM      6  C   LIG    1       24.359 -20.187   5.026  0.00  0.00    -0.043 C 
ATOM      7  C   LIG    1       23.270 -21.062   5.700  0.00  0.00    -0.010 C 
ATOM      8  C   LIG    1       23.711 -22.538   5.860  0.00  0.00    +0.016 C 
ATOM      9  C   LIG    1       22.938 -20.512   7.107  0.00  0.00    +0.016 C 
ATOM     10  C   LIG    1       21.974 -21.090   4.845  0.00  0.00    +0.011 C 
ATOM     11  C   LIG    1       21.590 -19.711   4.339  0.00  0.00    +0.005 C 
ATOM     12  C   LIG    1       22.692 -19.155   3.451  0.00  0.00    +0.031 C 
ATOM     13  C   LIG    1       24.088 -19.332   4.008  0.00  0.00    -0.069 C 
ATOM     14  C   LIG    1       25.089 -18.438   3.306  0.00  0.00    +0.039 C 
ENDBRANCH   5   6
ENDBRANCH   2   4
BRANCH   3  15
ATOM     15  C   LIG    1       29.617 -19.798   7.438  0.00  0.00    +0.001 C 
ATOM     16  C   LIG    1       30.046 -19.158   8.535  0.00  0.00    +0.003 C 
BRANCH  16  17
ATOM     17  C   LIG    1       31.429 -19.149   8.959  0.00  0.00    -0.044 C 
ATOM     18  C   LIG    1       32.099 -18.064   9.400  0.00  0.00    +0.094 C 
ATOM     19  C   LIG    1       32.133 -20.490   8.957  0.00  0.00    +0.044 C 
BRANCH  18  20
ATOM     20  C   LIG    1       31.745 -16.637   9.538  0.00  0.00    +0.330 C 
ATOM     21  O   LIG    1       32.431 -15.771   8.994  0.00  0.00    -0.246 OA
BRANCH  20  22
ATOM     22  O   LIG    1       30.662 -16.331  10.257  0.00  0.00    -0.477 OA
ATOM     23  H   LIG    1       30.837 -16.172  11.202  0.00  0.00    +0.295 HD
ENDBRANCH  20  22
ENDBRANCH  18  20
ENDBRANCH  16  17
ENDBRANCH   3  15
TORSDOF 6
ENDMDL
