MODEL 1
REMARK VINA RESULT:       9.6      0.000      0.000
REMARK  Name = *****
REMARK                            x       y       z     vdW  Elec       q    Type
REMARK                         _______ _______ _______ _____ _____    ______ ____
ROOT
ATOM      1  C   LIG    1       24.151 -19.783   4.212  0.00  0.00    +0.161 C 
ENDROOT
BRANCH   1   3
ATOM      2  C   LIG    1       26.101 -20.517   5.978  0.00  0.00    +0.113 C 
ATOM      3  N   LIG    1       25.565 -19.805   4.899  0.00  0.00    -0.292 N 
ATOM      4  C   LIG    1       26.427 -18.762   4.413  0.00  0.00    +0.258 C 
ATOM      5  O   LIG    1       26.093 -18.004   3.516  0.00  0.00    -0.267 OA
ATOM      6  C   LIG    1       27.781 -18.598   5.071  0.00  0.00    +0.044 C 
ATOM      7  C   LIG    1       28.152 -19.506   5.926  0.00  0.00    +0.049 C 
ATOM      8  C   LIG    1       29.472 -19.665   6.636  0.00  0.00    +0.066 C 
ATOM      9  N   LIG    1       27.243 -20.471   6.386  0.00  0.00    -0.238 NA
BRANCH   2  10
ATOM     10  C   LIG    1       25.318 -21.510   6.839  0.00  0.00    +0.074 C 
BRANCH  10  11
ATOM     11  C   LIG    1       23.638 -21.284   6.774  0.00  0.00    +0.007 C 
BRANCH  11  13
ATOM     12  C   LIG    1       21.254 -21.127   5.113  0.00  0.00    +0.004 C 
ATOM     13  C   LIG    1       22.775 -21.210   5.304  0.00  0.00    -0.003 C 
ENDBRANCH  11  13
ENDBRANCH  10  11
ENDBRANCH   2  10
BRANCH   6  14
ATOM     14  C   LIG    1       28.607 -17.379   4.632  0.00  0.00    +0.101 C 
BRANCH  14  15
ATOM     15  C   LIG    1       27.750 -16.219   4.072  0.00  0.00    +0.055 C 
ATOM     16  S   LIG    1       26.715 -16.528   2.768  0.00  0.00    -0.040 S 
BRANCH  15  17
ATOM     17  N   LIG    1       27.815 -14.973   4.701  0.00  0.00    -0.333 N 
ATOM     18  C   LIG    1       26.851 -14.637   5.746  0.00  0.00    +0.129 C 
ATOM     19  C   LIG    1       28.466 -13.829   4.081  0.00  0.00    +0.129 C 
ENDBRANCH  15  17
ENDBRANCH  14  15
ENDBRANCH   6  14
ENDBRANCH   1   3
BRANCH   1  20
ATOM     20  C   LIG    1       23.230 -18.453   3.945  0.00  0.00    -0.028 A 
ATOM     21  C   LIG    1       22.491 -17.908   4.970  0.00  0.00    +0.006 A 
ATOM     22  C   LIG    1       22.422 -16.553   5.478  0.00  0.00    +0.009 A 
ATOM     23  C   LIG    1       22.870 -15.517   4.717  0.00  0.00    -0.017 A 
ATOM     24  C   LIG    1       23.296 -16.008   3.467  0.00  0.00    +0.009 A 
ATOM     25  C   LIG    1       23.556 -17.417   3.111  0.00  0.00    +0.006 A 
BRANCH  23  26
ATOM     26  C   LIG    1       22.947 -14.100   5.285  0.00  0.00    -0.007 A 
ATOM     27  C   LIG    1       23.599 -12.990   4.672  0.00  0.00    +0.028 A 
ATOM     28  C   LIG    1       23.362 -11.684   5.189  0.00  0.00    +0.012 A 
ATOM     29  C   LIG    1       22.595 -11.447   6.332  0.00  0.00    +0.001 A 
ATOM     30  C   LIG    1       22.085 -12.519   7.033  0.00  0.00    +0.001 A 
ATOM     31  C   LIG    1       22.266 -13.810   6.523  0.00  0.00    +0.009 A 
BRANCH  27  32
ATOM     32  C   LIG    1       24.552 -13.100   3.552  0.00  0.00    +0.180 A 
ATOM     33  N   LIG    1       25.224 -12.052   2.968  0.00  0.00    -0.239 N 
ATOM     34  H   LIG    1       25.221 -11.066   3.192  0.00  0.00    +0.192 HD
ATOM     35  N   LIG    1       25.991 -12.479   1.957  0.00  0.00    -0.046 NA
ATOM     36  N   LIG    1       25.842 -13.792   1.948  0.00  0.00    -0.023 NA
ATOM     37  N   LIG    1       24.989 -14.192   2.948  0.00  0.00    -0.108 NA
ENDBRANCH  27  32
ENDBRANCH  23  26
ENDBRANCH   1  20
TORSDOF 10
ENDMDL
