MODEL 1
REMARK VINA RESULT:      -3.3      0.000      0.000
REMARK  Name = *****
REMARK                            x       y       z     vdW  Elec       q    Type
REMARK                         _______ _______ _______ _____ _____    ______ ____
ROOT
ATOM      1  O   LIG    1       26.688 -14.357   1.939  0.00  0.00    -0.149 OA
ATOM      2  S   LIG    1       27.102 -14.143   3.293  0.00  0.00    +0.065 S 
ATOM      3  S   LIG    1       25.739 -13.537   4.332  0.00  0.00    +0.105 S 
ENDROOT
BRANCH   2   4
ATOM      4  O   LIG    1       28.324 -13.116   3.230  0.00  0.00    -0.255 OA
ATOM      5  H   LIG    1       29.059 -13.525   2.732  0.00  0.00    +0.244 HD
ENDBRANCH   2   4
BRANCH   2   6
ATOM      6  O   LIG    1       27.685 -15.538   3.808  0.00  0.00    -0.255 OA
ATOM      7  H   LIG    1       28.631 -15.426   4.031  0.00  0.00    +0.244 HD
ENDBRANCH   2   6
TORSDOF 2
ENDMDL
MODEL 2
REMARK VINA RESULT:      -3.2      0.334      2.015
REMARK  Name = *****
REMARK                            x       y       z     vdW  Elec       q    Type
REMARK                         _______ _______ _______ _____ _____    ______ ____
ROOT
ATOM      1  O   LIG    1       28.447 -13.306   3.686  0.00  0.00    -0.149 OA
ATOM      2  S   LIG    1       27.301 -14.149   3.520  0.00  0.00    +0.065 S 
ATOM      3  S   LIG    1       25.891 -13.581   4.518  0.00  0.00    +0.105 S 
ENDROOT
BRANCH   2   4
ATOM      4  O   LIG    1       27.771 -15.624   3.911  0.00  0.00    -0.255 OA
ATOM      5  H   LIG    1       28.674 -15.583   4.285  0.00  0.00    +0.244 HD
ENDBRANCH   2   4
BRANCH   2   6
ATOM      6  O   LIG    1       26.975 -14.156   1.956  0.00  0.00    -0.255 OA
ATOM      7  H   LIG    1       26.477 -13.345   1.730  0.00  0.00    +0.244 HD
ENDBRANCH   2   6
TORSDOF 2
ENDMDL
MODEL 3
REMARK VINA RESULT:      -3.0      1.495      2.390
REMARK  Name = *****
REMARK                            x       y       z     vdW  Elec       q    Type
REMARK                         _______ _______ _______ _____ _____    ______ ____
ROOT
ATOM      1  O   LIG    1       27.146 -13.375   5.100  0.00  0.00    -0.149 OA
ATOM      2  S   LIG    1       27.530 -13.866   3.810  0.00  0.00    +0.065 S 
ATOM      3  S   LIG    1       26.218 -13.626   2.574  0.00  0.00    +0.105 S 
ENDROOT
BRANCH   2   4
ATOM      4  O   LIG    1       27.905 -15.405   4.010  0.00  0.00    -0.255 OA
ATOM      5  H   LIG    1       28.630 -15.474   4.663  0.00  0.00    +0.244 HD
ENDBRANCH   2   4
BRANCH   2   6
ATOM      6  O   LIG    1       28.877 -13.098   3.424  0.00  0.00    -0.255 OA
ATOM      7  H   LIG    1       29.598 -13.751   3.321  0.00  0.00    +0.244 HD
ENDBRANCH   2   6
TORSDOF 2
ENDMDL
MODEL 4
REMARK VINA RESULT:      -3.0      1.369      1.941
REMARK  Name = *****
REMARK                            x       y       z     vdW  Elec       q    Type
REMARK                         _______ _______ _______ _____ _____    ______ ____
ROOT
ATOM      1  O   LIG    1       26.036 -13.901   4.114  0.00  0.00    -0.149 OA
ATOM      2  S   LIG    1       27.272 -14.186   3.448  0.00  0.00    +0.065 S 
ATOM      3  S   LIG    1       28.568 -12.985   3.878  0.00  0.00    +0.105 S 
ENDROOT
BRANCH   2   4
ATOM      4  O   LIG    1       26.944 -14.196   1.885  0.00  0.00    -0.255 OA
ATOM      5  H   LIG    1       27.683 -13.776   1.401  0.00  0.00    +0.244 HD
ENDBRANCH   2   4
BRANCH   2   6
ATOM      6  O   LIG    1       27.665 -15.679   3.858  0.00  0.00    -0.255 OA
ATOM      7  H   LIG    1       27.521 -16.269   3.091  0.00  0.00    +0.244 HD
ENDBRANCH   2   6
TORSDOF 2
ENDMDL
MODEL 5
REMARK VINA RESULT:      -2.9      1.427      1.908
REMARK  Name = *****
REMARK                            x       y       z     vdW  Elec       q    Type
REMARK                         _______ _______ _______ _____ _____    ______ ____
ROOT
ATOM      1  O   LIG    1       27.727 -15.128   4.033  0.00  0.00    -0.149 OA
ATOM      2  S   LIG    1       27.482 -13.723   3.894  0.00  0.00    +0.065 S 
ATOM      3  S   LIG    1       26.154 -13.380   2.701  0.00  0.00    +0.105 S 
ENDROOT
BRANCH   2   4
ATOM      4  O   LIG    1       28.874 -13.068   3.464  0.00  0.00    -0.255 OA
ATOM      5  H   LIG    1       29.253 -12.592   4.229  0.00  0.00    +0.244 HD
ENDBRANCH   2   4
BRANCH   2   6
ATOM      6  O   LIG    1       27.139 -13.183   5.358  0.00  0.00    -0.255 OA
ATOM      7  H   LIG    1       26.324 -13.621   5.677  0.00  0.00    +0.244 HD
ENDBRANCH   2   6
TORSDOF 2
ENDMDL
MODEL 6
REMARK VINA RESULT:      -2.9      1.498      2.276
REMARK  Name = *****
REMARK                            x       y       z     vdW  Elec       q    Type
REMARK                         _______ _______ _______ _____ _____    ______ ____
ROOT
ATOM      1  O   LIG    1       26.518 -14.134   1.812  0.00  0.00    -0.149 OA
ATOM      2  S   LIG    1       26.546 -14.444   3.210  0.00  0.00    +0.065 S 
ATOM      3  S   LIG    1       27.946 -13.647   4.053  0.00  0.00    +0.105 S 
ENDROOT
BRANCH   2   4
ATOM      4  O   LIG    1       26.599 -16.037   3.313  0.00  0.00    -0.255 OA
ATOM      5  H   LIG    1       25.686 -16.385   3.348  0.00  0.00    +0.244 HD
ENDBRANCH   2   4
BRANCH   2   6
ATOM      6  O   LIG    1       25.136 -13.979   3.799  0.00  0.00    -0.255 OA
ATOM      7  H   LIG    1       25.225 -13.836   4.763  0.00  0.00    +0.244 HD
ENDBRANCH   2   6
TORSDOF 2
ENDMDL
MODEL 7
REMARK VINA RESULT:      -2.8      1.269      2.010
REMARK  Name = *****
REMARK                            x       y       z     vdW  Elec       q    Type
REMARK                         _______ _______ _______ _____ _____    ______ ____
ROOT
ATOM      1  O   LIG    1       26.563 -14.465   1.881  0.00  0.00    -0.149 OA
ATOM      2  S   LIG    1       26.418 -13.390   2.817  0.00  0.00    +0.065 S 
ATOM      3  S   LIG    1       25.762 -13.965   4.413  0.00  0.00    +0.105 S 
ENDROOT
BRANCH   2   4
ATOM      4  O   LIG    1       25.467 -12.314   2.118  0.00  0.00    -0.255 OA
ATOM      5  H   LIG    1       25.695 -12.256   1.169  0.00  0.00    +0.244 HD
ENDBRANCH   2   4
BRANCH   2   6
ATOM      6  O   LIG    1       27.863 -12.723   2.958  0.00  0.00    -0.255 OA
ATOM      7  H   LIG    1       28.184 -12.849   3.873  0.00  0.00    +0.244 HD
ENDBRANCH   2   6
TORSDOF 2
ENDMDL
MODEL 8
REMARK VINA RESULT:      -2.8      1.432      2.410
REMARK  Name = *****
REMARK                            x       y       z     vdW  Elec       q    Type
REMARK                         _______ _______ _______ _____ _____    ______ ____
ROOT
ATOM      1  O   LIG    1       26.833 -16.005   3.287  0.00  0.00    -0.149 OA
ATOM      2  S   LIG    1       26.486 -14.615   3.302  0.00  0.00    +0.065 S 
ATOM      3  S   LIG    1       27.461 -13.684   4.522  0.00  0.00    +0.105 S 
ENDROOT
BRANCH   2   4
ATOM      4  O   LIG    1       24.917 -14.550   3.596  0.00  0.00    -0.255 OA
ATOM      5  H   LIG    1       24.503 -13.912   2.982  0.00  0.00    +0.244 HD
ENDBRANCH   2   4
BRANCH   2   6
ATOM      6  O   LIG    1       26.709 -14.084   1.812  0.00  0.00    -0.255 OA
ATOM      7  H   LIG    1       26.072 -13.363   1.631  0.00  0.00    +0.244 HD
ENDBRANCH   2   6
TORSDOF 2
ENDMDL
MODEL 9
REMARK VINA RESULT:      -2.8      7.570      8.331
REMARK  Name = *****
REMARK                            x       y       z     vdW  Elec       q    Type
REMARK                         _______ _______ _______ _____ _____    ______ ____
ROOT
ATOM      1  O   LIG    1       22.379 -19.240   5.202  0.00  0.00    -0.149 OA
ATOM      2  S   LIG    1       22.888 -20.573   5.334  0.00  0.00    +0.065 S 
ATOM      3  S   LIG    1       24.367 -20.838   4.311  0.00  0.00    +0.105 S 
ENDROOT
BRANCH   2   4
ATOM      4  O   LIG    1       21.688 -21.550   4.939  0.00  0.00    -0.255 OA
ATOM      5  H   LIG    1       21.907 -22.458   5.229  0.00  0.00    +0.244 HD
ENDBRANCH   2   4
BRANCH   2   6
ATOM      6  O   LIG    1       23.178 -20.787   6.890  0.00  0.00    -0.255 OA
ATOM      7  H   LIG    1       23.251 -21.746   7.072  0.00  0.00    +0.244 HD
ENDBRANCH   2   6
TORSDOF 2
ENDMDL
