MODEL 1
REMARK VINA RESULT:      -6.8      0.000      0.000
REMARK  Name = *****
REMARK                            x       y       z     vdW  Elec       q    Type
REMARK                         _______ _______ _______ _____ _____    ______ ____
ROOT
ATOM      1  C   LIG    1       25.030 -29.030  13.770  0.00  0.00    +0.042 C 
ATOM      2  C   LIG    1       25.330 -29.291  12.306  0.00  0.00    -0.034 C 
ATOM      3  C   LIG    1       26.698 -28.722  11.959  0.00  0.00    +0.103 C 
ATOM      4  S   LIG    1       26.835 -28.189  10.232  0.00  0.00    -0.131 S 
ATOM      5  C   LIG    1       26.291 -29.802   9.628  0.00  0.00    +0.169 C 
ATOM      6  N   LIG    1       24.936 -30.042  10.097  0.00  0.00    -0.249 N 
ATOM      7  C   LIG    1       24.358 -30.030   8.880  0.00  0.00    +0.244 C 
ATOM      8  O   LIG    1       23.175 -30.031   8.582  0.00  0.00    -0.273 OA
ATOM      9  CA  LIG    1       25.734 -29.866   8.177  0.00  0.00    +0.191 C 
ATOM     10  CA  LIG    1       24.506 -29.891  11.397  0.00  0.00    +0.122 C 
ENDROOT
BRANCH   9  11
ATOM     11  N   LIG    1       25.899 -28.676   7.304  0.00  0.00    -0.300 N 
ATOM     12  H   LIG    1       26.076 -27.749   7.693  0.00  0.00    +0.150 HD
ATOM     13  C   LIG    1       25.508 -28.695   5.972  0.00  0.00    +0.235 C 
ATOM     14  O   LIG    1       25.045 -29.704   5.452  0.00  0.00    -0.274 OA
BRANCH  13  15
ATOM     15  CA  LIG    1       25.815 -27.348   5.226  0.00  0.00    +0.164 C 
BRANCH  15  16
ATOM     16  C   LIG    1       25.373 -26.069   5.931  0.00  0.00    -0.044 C 
ATOM     17  C   LIG    1       23.876 -25.782   5.870  0.00  0.00    +0.059 C 
ATOM     18  C   LIG    1       23.461 -24.474   6.487  0.00  0.00    -0.026 C 
ATOM     19  C   LIG    1       24.322 -23.618   7.055  0.00  0.00    -0.027 C 
ATOM     20  C   LIG    1       25.794 -23.873   7.125  0.00  0.00    +0.054 C 
ATOM     21  C   LIG    1       26.214 -25.179   6.508  0.00  0.00    -0.021 C 
ENDBRANCH  15  16
BRANCH  15  22
ATOM     22  N   LIG    1       27.255 -27.368   4.873  0.00  0.00    -0.317 NA
ATOM     23  H1  LIG    1       27.767 -27.760   5.663  0.00  0.00    +0.119 HD
ATOM     24  H2  LIG    1       27.367 -28.036   4.107  0.00  0.00    +0.119 HD
ENDBRANCH  15  22
ENDBRANCH  13  15
ENDBRANCH   9  11
BRANCH  10  25
ATOM     25  C   LIG    1       23.146 -30.423  11.811  0.00  0.00    +0.351 C 
ATOM     26  O   LIG    1       22.989 -31.476  12.411  0.00  0.00    -0.244 OA
BRANCH  25  27
ATOM     27  OXT LIG    1       22.064 -29.715  11.438  0.00  0.00    -0.476 OA
ATOM     28  HXT LIG    1       22.046 -28.752  11.640  0.00  0.00    +0.295 HD
ENDBRANCH  25  27
ENDBRANCH  10  25
TORSDOF 6
ENDMDL
MODEL 2
REMARK VINA RESULT:      -6.7      2.612      3.864
REMARK  Name = *****
REMARK                            x       y       z     vdW  Elec       q    Type
REMARK                         _______ _______ _______ _____ _____    ______ ____
ROOT
ATOM      1  C   LIG    1       25.793 -32.505   9.844  0.00  0.00    +0.042 C 
ATOM      2  C   LIG    1       25.782 -31.345   8.866  0.00  0.00    -0.034 C 
ATOM      3  C   LIG    1       26.676 -30.231   9.391  0.00  0.00    +0.103 C 
ATOM      4  S   LIG    1       26.140 -28.579   8.870  0.00  0.00    -0.131 S 
ATOM      5  C   LIG    1       26.141 -29.063   7.128  0.00  0.00    +0.169 C 
ATOM      6  N   LIG    1       25.161 -30.121   6.940  0.00  0.00    -0.249 N 
ATOM      7  C   LIG    1       24.333 -29.410   6.149  0.00  0.00    +0.244 C 
ATOM      8  O   LIG    1       23.213 -29.686   5.752  0.00  0.00    -0.273 OA
ATOM      9  CA  LIG    1       25.300 -28.194   6.150  0.00  0.00    +0.191 C 
ATOM     10  CA  LIG    1       25.058 -31.256   7.712  0.00  0.00    +0.122 C 
ENDROOT
BRANCH   9  11
ATOM     11  N   LIG    1       24.750 -26.905   6.643  0.00  0.00    -0.300 N 
ATOM     12  H   LIG    1       23.952 -26.874   7.279  0.00  0.00    +0.150 HD
ATOM     13  C   LIG    1       25.070 -25.700   6.032  0.00  0.00    +0.235 C 
ATOM     14  O   LIG    1       25.846 -25.646   5.085  0.00  0.00    -0.274 OA
BRANCH  13  15
ATOM     15  CA  LIG    1       24.416 -24.463   6.745  0.00  0.00    +0.164 C 
BRANCH  15  16
ATOM     16  C   LIG    1       25.082 -23.113   6.499  0.00  0.00    -0.044 C 
ATOM     17  C   LIG    1       26.128 -22.710   7.534  0.00  0.00    +0.059 C 
ATOM     18  C   LIG    1       26.713 -21.337   7.336  0.00  0.00    -0.026 C 
ATOM     19  C   LIG    1       26.360 -20.520   6.334  0.00  0.00    -0.027 C 
ATOM     20  C   LIG    1       25.335 -20.888   5.309  0.00  0.00    +0.054 C 
ATOM     21  C   LIG    1       24.746 -22.259   5.503  0.00  0.00    -0.021 C 
ENDBRANCH  15  16
BRANCH  15  22
ATOM     22  N   LIG    1       22.972 -24.486   6.413  0.00  0.00    -0.317 NA
ATOM     23  H1  LIG    1       22.677 -23.527   6.229  0.00  0.00    +0.119 HD
ATOM     24  H2  LIG    1       22.875 -24.985   5.526  0.00  0.00    +0.119 HD
ENDBRANCH  15  22
ENDBRANCH  13  15
ENDBRANCH   9  11
BRANCH  10  25
ATOM     25  C   LIG    1       24.175 -32.405   7.256  0.00  0.00    +0.351 C 
ATOM     26  O   LIG    1       24.584 -33.346   6.594  0.00  0.00    -0.244 OA
BRANCH  25  27
ATOM     27  OXT LIG    1       22.865 -32.334   7.556  0.00  0.00    -0.476 OA
ATOM     28  HXT LIG    1       22.590 -31.764   8.310  0.00  0.00    +0.295 HD
ENDBRANCH  25  27
ENDBRANCH  10  25
TORSDOF 6
ENDMDL
MODEL 3
REMARK VINA RESULT:      -6.5      4.805      8.693
REMARK  Name = *****
REMARK                            x       y       z     vdW  Elec       q    Type
REMARK                         _______ _______ _______ _____ _____    ______ ____
ROOT
ATOM      1  C   LIG    1       28.236 -18.463   5.024  0.00  0.00    +0.042 C 
ATOM      2  C   LIG    1       27.465 -19.605   5.659  0.00  0.00    -0.034 C 
ATOM      3  C   LIG    1       28.230 -20.122   6.869  0.00  0.00    +0.103 C 
ATOM      4  S   LIG    1       27.954 -21.884   7.191  0.00  0.00    -0.131 S 
ATOM      5  C   LIG    1       26.161 -21.661   7.218  0.00  0.00    +0.169 C 
ATOM      6  N   LIG    1       25.731 -21.194   5.909  0.00  0.00    -0.249 N 
ATOM      7  C   LIG    1       25.014 -22.292   5.595  0.00  0.00    +0.244 C 
ATOM      8  O   LIG    1       24.499 -22.604   4.535  0.00  0.00    -0.273 OA
ATOM      9  CA  LIG    1       25.285 -22.925   6.988  0.00  0.00    +0.191 C 
ATOM     10  CA  LIG    1       26.295 -20.149   5.213  0.00  0.00    +0.122 C 
ENDROOT
BRANCH   9  11
ATOM     11  N   LIG    1       25.946 -24.254   6.999  0.00  0.00    -0.300 N 
ATOM     12  H   LIG    1       26.962 -24.345   7.007  0.00  0.00    +0.150 HD
ATOM     13  C   LIG    1       25.249 -25.412   6.677  0.00  0.00    +0.235 C 
ATOM     14  O   LIG    1       24.054 -25.388   6.407  0.00  0.00    -0.274 OA
BRANCH  13  15
ATOM     15  CA  LIG    1       26.129 -26.707   6.798  0.00  0.00    +0.164 C 
BRANCH  15  16
ATOM     16  C   LIG    1       25.377 -28.021   6.976  0.00  0.00    -0.044 C 
ATOM     17  C   LIG    1       25.579 -28.705   8.325  0.00  0.00    +0.059 C 
ATOM     18  C   LIG    1       24.907 -30.045   8.458  0.00  0.00    -0.026 C 
ATOM     19  C   LIG    1       24.181 -30.608   7.482  0.00  0.00    -0.027 C 
ATOM     20  C   LIG    1       23.969 -29.962   6.150  0.00  0.00    +0.054 C 
ATOM     21  C   LIG    1       24.640 -28.622   6.012  0.00  0.00    -0.021 C 
ENDBRANCH  15  16
BRANCH  15  22
ATOM     22  N   LIG    1       27.063 -26.704   5.647  0.00  0.00    -0.317 NA
ATOM     23  H1  LIG    1       26.512 -26.813   4.795  0.00  0.00    +0.119 HD
ATOM     24  H2  LIG    1       27.475 -25.769   5.596  0.00  0.00    +0.119 HD
ENDBRANCH  15  22
ENDBRANCH  13  15
ENDBRANCH   9  11
BRANCH  10  25
ATOM     25  C   LIG    1       25.594 -19.590   3.987  0.00  0.00    +0.351 C 
ATOM     26  O   LIG    1       24.944 -18.556   3.996  0.00  0.00    -0.244 OA
BRANCH  25  27
ATOM     27  OXT LIG    1       25.653 -20.316   2.856  0.00  0.00    -0.476 OA
ATOM     28  HXT LIG    1       25.644 -21.297   2.932  0.00  0.00    +0.295 HD
ENDBRANCH  25  27
ENDBRANCH  10  25
TORSDOF 6
ENDMDL
MODEL 4
REMARK VINA RESULT:      -6.4      7.204      9.578
REMARK  Name = *****
REMARK                            x       y       z     vdW  Elec       q    Type
REMARK                         _______ _______ _______ _____ _____    ______ ____
ROOT
ATOM      1  C   LIG    1       31.698 -17.830   7.613  0.00  0.00    +0.042 C 
ATOM      2  C   LIG    1       30.692 -18.911   7.268  0.00  0.00    -0.034 C 
ATOM      3  C   LIG    1       29.944 -18.521   6.001  0.00  0.00    +0.103 C 
ATOM      4  S   LIG    1       28.255 -19.177   5.936  0.00  0.00    -0.131 S 
ATOM      5  C   LIG    1       28.835 -20.865   6.222  0.00  0.00    +0.169 C 
ATOM      6  N   LIG    1       29.474 -20.922   7.527  0.00  0.00    -0.249 N 
ATOM      7  C   LIG    1       28.571 -21.748   8.092  0.00  0.00    +0.244 C 
ATOM      8  O   LIG    1       28.449 -22.082   9.259  0.00  0.00    -0.273 OA
ATOM      9  CA  LIG    1       27.796 -21.892   6.753  0.00  0.00    +0.191 C 
ATOM     10  CA  LIG    1       30.432 -20.044   7.983  0.00  0.00    +0.122 C 
ENDROOT
BRANCH   9  11
ATOM     11  N   LIG    1       26.363 -21.504   6.768  0.00  0.00    -0.300 N 
ATOM     12  H   LIG    1       26.053 -20.620   7.174  0.00  0.00    +0.150 HD
ATOM     13  C   LIG    1       25.358 -22.434   6.536  0.00  0.00    +0.235 C 
ATOM     14  O   LIG    1       25.613 -23.603   6.273  0.00  0.00    -0.274 OA
BRANCH  13  15
ATOM     15  CA  LIG    1       23.922 -21.797   6.553  0.00  0.00    +0.164 C 
BRANCH  15  16
ATOM     16  C   LIG    1       23.660 -20.693   5.534  0.00  0.00    -0.044 C 
ATOM     17  C   LIG    1       24.736 -20.534   4.463  0.00  0.00    +0.059 C 
ATOM     18  C   LIG    1       24.515 -19.384   3.517  0.00  0.00    -0.026 C 
ATOM     19  C   LIG    1       23.463 -18.557   3.590  0.00  0.00    -0.027 C 
ATOM     20  C   LIG    1       22.397 -18.689   4.631  0.00  0.00    +0.054 C 
ATOM     21  C   LIG    1       22.613 -19.836   5.580  0.00  0.00    -0.021 C 
ENDBRANCH  15  16
BRANCH  15  22
ATOM     22  N   LIG    1       22.952 -22.916   6.484  0.00  0.00    -0.317 NA
ATOM     23  H1  LIG    1       22.141 -22.597   5.955  0.00  0.00    +0.119 HD
ATOM     24  H2  LIG    1       23.383 -23.653   5.920  0.00  0.00    +0.119 HD
ENDBRANCH  15  22
ENDBRANCH  13  15
ENDBRANCH   9  11
BRANCH  10  25
ATOM     25  C   LIG    1       31.210 -20.362   9.248  0.00  0.00    +0.351 C 
ATOM     26  O   LIG    1       32.025 -21.269   9.327  0.00  0.00    -0.244 OA
BRANCH  25  27
ATOM     27  OXT LIG    1       30.930 -19.635  10.345  0.00  0.00    -0.476 OA
ATOM     28  HXT LIG    1       30.134 -19.877  10.873  0.00  0.00    +0.295 HD
ENDBRANCH  25  27
ENDBRANCH  10  25
TORSDOF 6
ENDMDL
MODEL 5
REMARK VINA RESULT:      -6.2      2.864      4.144
REMARK  Name = *****
REMARK                            x       y       z     vdW  Elec       q    Type
REMARK                         _______ _______ _______ _____ _____    ______ ____
ROOT
ATOM      1  C   LIG    1       26.959 -33.825   5.927  0.00  0.00    +0.042 C 
ATOM      2  C   LIG    1       26.222 -32.535   6.232  0.00  0.00    -0.034 C 
ATOM      3  C   LIG    1       25.892 -31.819   4.931  0.00  0.00    +0.103 C 
ATOM      4  S   LIG    1       25.822 -30.015   5.104  0.00  0.00    -0.131 S 
ATOM      5  C   LIG    1       24.632 -30.131   6.458  0.00  0.00    +0.169 C 
ATOM      6  N   LIG    1       25.256 -30.837   7.567  0.00  0.00    -0.249 N 
ATOM      7  C   LIG    1       25.257 -29.793   8.418  0.00  0.00    +0.244 C 
ATOM      8  O   LIG    1       25.794 -29.682   9.509  0.00  0.00    -0.273 OA
ATOM      9  CA  LIG    1       24.503 -28.897   7.397  0.00  0.00    +0.191 C 
ATOM     10  CA  LIG    1       25.929 -32.034   7.468  0.00  0.00    +0.122 C 
ENDROOT
BRANCH   9  11
ATOM     11  N   LIG    1       25.171 -27.633   6.998  0.00  0.00    -0.300 N 
ATOM     12  H   LIG    1       25.911 -27.218   7.567  0.00  0.00    +0.150 HD
ATOM     13  C   LIG    1       24.624 -26.797   6.034  0.00  0.00    +0.235 C 
ATOM     14  O   LIG    1       23.587 -27.085   5.448  0.00  0.00    -0.274 OA
BRANCH  13  15
ATOM     15  CA  LIG    1       25.519 -25.542   5.736  0.00  0.00    +0.164 C 
BRANCH  15  16
ATOM     16  C   LIG    1       25.151 -24.259   6.474  0.00  0.00    -0.044 C 
ATOM     17  C   LIG    1       23.661 -23.934   6.502  0.00  0.00    +0.059 C 
ATOM     18  C   LIG    1       23.315 -22.621   7.151  0.00  0.00    -0.026 C 
ATOM     19  C   LIG    1       24.229 -21.791   7.674  0.00  0.00    -0.027 C 
ATOM     20  C   LIG    1       25.696 -22.083   7.657  0.00  0.00    +0.054 C 
ATOM     21  C   LIG    1       26.046 -23.394   7.007  0.00  0.00    -0.021 C 
ENDBRANCH  15  16
BRANCH  15  22
ATOM     22  N   LIG    1       26.928 -25.959   5.930  0.00  0.00    -0.317 NA
ATOM     23  H1  LIG    1       27.316 -25.409   6.696  0.00  0.00    +0.119 HD
ATOM     24  H2  LIG    1       26.912 -26.927   6.261  0.00  0.00    +0.119 HD
ENDBRANCH  15  22
ENDBRANCH  13  15
ENDBRANCH   9  11
BRANCH  10  25
ATOM     25  C   LIG    1       26.302 -32.799   8.726  0.00  0.00    +0.351 C 
ATOM     26  O   LIG    1       25.629 -33.710   9.185  0.00  0.00    -0.244 OA
BRANCH  25  27
ATOM     27  OXT LIG    1       27.402 -32.399   9.390  0.00  0.00    -0.476 OA
ATOM     28  HXT LIG    1       28.268 -32.786   9.130  0.00  0.00    +0.295 HD
ENDBRANCH  25  27
ENDBRANCH  10  25
TORSDOF 6
ENDMDL
MODEL 6
REMARK VINA RESULT:      -6.2      6.303      9.089
REMARK  Name = *****
REMARK                            x       y       z     vdW  Elec       q    Type
REMARK                         _______ _______ _______ _____ _____    ______ ____
ROOT
ATOM      1  C   LIG    1       21.825 -22.685   5.887  0.00  0.00    +0.042 C 
ATOM      2  C   LIG    1       23.133 -22.444   6.617  0.00  0.00    -0.034 C 
ATOM      3  C   LIG    1       23.101 -21.072   7.274  0.00  0.00    +0.103 C 
ATOM      4  S   LIG    1       24.739 -20.309   7.418  0.00  0.00    -0.131 S 
ATOM      5  C   LIG    1       25.406 -21.758   8.266  0.00  0.00    +0.169 C 
ATOM      6  N   LIG    1       25.330 -22.899   7.367  0.00  0.00    -0.249 N 
ATOM      7  C   LIG    1       26.660 -23.072   7.241  0.00  0.00    +0.244 C 
ATOM      8  O   LIG    1       27.280 -23.800   6.483  0.00  0.00    -0.273 OA
ATOM      9  CA  LIG    1       26.952 -21.935   8.260  0.00  0.00    +0.191 C 
ATOM     10  CA  LIG    1       24.212 -23.279   6.658  0.00  0.00    +0.122 C 
ENDROOT
BRANCH   9  11
ATOM     11  N   LIG    1       27.790 -20.808   7.779  0.00  0.00    -0.300 N 
ATOM     12  H   LIG    1       27.480 -20.196   7.024  0.00  0.00    +0.150 HD
ATOM     13  C   LIG    1       29.140 -20.724   8.094  0.00  0.00    +0.235 C 
ATOM     14  O   LIG    1       29.686 -21.556   8.810  0.00  0.00    -0.274 OA
BRANCH  13  15
ATOM     15  CA  LIG    1       29.820 -19.430   7.521  0.00  0.00    +0.164 C 
BRANCH  15  16
ATOM     16  C   LIG    1       30.397 -18.460   8.548  0.00  0.00    -0.044 C 
ATOM     17  C   LIG    1       31.829 -18.007   8.276  0.00  0.00    +0.059 C 
ATOM     18  C   LIG    1       32.421 -17.124   9.341  0.00  0.00    -0.026 C 
ATOM     19  C   LIG    1       31.759 -16.749  10.445  0.00  0.00    -0.027 C 
ATOM     20  C   LIG    1       30.357 -17.181  10.737  0.00  0.00    +0.054 C 
ATOM     21  C   LIG    1       29.761 -18.066   9.676  0.00  0.00    -0.021 C 
ENDBRANCH  15  16
BRANCH  15  22
ATOM     22  N   LIG    1       30.800 -19.871   6.500  0.00  0.00    -0.317 NA
ATOM     23  H1  LIG    1       31.478 -19.121   6.370  0.00  0.00    +0.119 HD
ATOM     24  H2  LIG    1       31.322 -20.653   6.903  0.00  0.00    +0.119 HD
ENDBRANCH  15  22
ENDBRANCH  13  15
ENDBRANCH   9  11
BRANCH  10  25
ATOM     25  C   LIG    1       24.177 -24.630   5.966  0.00  0.00    +0.351 C 
ATOM     26  O   LIG    1       23.682 -25.630   6.464  0.00  0.00    -0.244 OA
BRANCH  25  27
ATOM     27  OXT LIG    1       24.782 -24.727   4.767  0.00  0.00    -0.476 OA
ATOM     28  HXT LIG    1       25.570 -24.163   4.598  0.00  0.00    +0.295 HD
ENDBRANCH  25  27
ENDBRANCH  10  25
TORSDOF 6
ENDMDL
MODEL 7
REMARK VINA RESULT:      -6.1      6.035      9.309
REMARK  Name = *****
REMARK                            x       y       z     vdW  Elec       q    Type
REMARK                         _______ _______ _______ _____ _____    ______ ____
ROOT
ATOM      1  C   LIG    1       31.015 -20.315   7.912  0.00  0.00    +0.042 C 
ATOM      2  C   LIG    1       29.525 -20.336   7.632  0.00  0.00    -0.034 C 
ATOM      3  C   LIG    1       28.839 -21.282   8.606  0.00  0.00    +0.103 C 
ATOM      4  S   LIG    1       27.347 -22.055   7.924  0.00  0.00    -0.131 S 
ATOM      5  C   LIG    1       26.639 -20.449   7.494  0.00  0.00    +0.169 C 
ATOM      6  N   LIG    1       27.506 -19.805   6.519  0.00  0.00    -0.249 N 
ATOM      7  C   LIG    1       26.619 -19.826   5.504  0.00  0.00    +0.244 C 
ATOM      8  O   LIG    1       26.783 -19.555   4.326  0.00  0.00    -0.273 OA
ATOM      9  CA  LIG    1       25.518 -20.434   6.416  0.00  0.00    +0.191 C 
ATOM     10  CA  LIG    1       28.870 -19.667   6.637  0.00  0.00    +0.122 C 
ENDROOT
BRANCH   9  11
ATOM     11  N   LIG    1       24.935 -21.729   5.984  0.00  0.00    -0.300 N 
ATOM     12  H   LIG    1       25.146 -22.131   5.069  0.00  0.00    +0.150 HD
ATOM     13  C   LIG    1       23.849 -22.291   6.642  0.00  0.00    +0.235 C 
ATOM     14  O   LIG    1       23.351 -21.760   7.628  0.00  0.00    -0.274 OA
BRANCH  13  15
ATOM     15  CA  LIG    1       23.429 -23.682   6.048  0.00  0.00    +0.164 C 
BRANCH  15  16
ATOM     16  C   LIG    1       24.515 -24.751   5.997  0.00  0.00    -0.044 C 
ATOM     17  C   LIG    1       24.799 -25.319   4.609  0.00  0.00    +0.059 C 
ATOM     18  C   LIG    1       25.806 -26.437   4.581  0.00  0.00    -0.026 C 
ATOM     19  C   LIG    1       26.419 -26.908   5.676  0.00  0.00    -0.027 C 
ATOM     20  C   LIG    1       26.157 -26.373   7.048  0.00  0.00    +0.054 C 
ATOM     21  C   LIG    1       25.150 -25.256   7.081  0.00  0.00    -0.021 C 
ENDBRANCH  15  16
BRANCH  15  22
ATOM     22  N   LIG    1       22.205 -24.108   6.768  0.00  0.00    -0.317 NA
ATOM     23  H1  LIG    1       22.062 -25.100   6.584  0.00  0.00    +0.119 HD
ATOM     24  H2  LIG    1       22.404 -24.034   7.768  0.00  0.00    +0.119 HD
ENDBRANCH  15  22
ENDBRANCH  13  15
ENDBRANCH   9  11
BRANCH  10  25
ATOM     25  C   LIG    1       29.624 -18.749   5.690  0.00  0.00    +0.351 C 
ATOM     26  O   LIG    1       30.841 -18.641   5.683  0.00  0.00    -0.244 OA
BRANCH  25  27
ATOM     27  OXT LIG    1       28.893 -17.978   4.865  0.00  0.00    -0.476 OA
ATOM     28  HXT LIG    1       29.069 -18.034   3.898  0.00  0.00    +0.295 HD
ENDBRANCH  25  27
ENDBRANCH  10  25
TORSDOF 6
ENDMDL
MODEL 8
REMARK VINA RESULT:      -5.8      6.728      9.857
REMARK  Name = *****
REMARK                            x       y       z     vdW  Elec       q    Type
REMARK                         _______ _______ _______ _____ _____    ______ ____
ROOT
ATOM      1  C   LIG    1       23.676 -22.184   3.074  0.00  0.00    +0.042 C 
ATOM      2  C   LIG    1       24.406 -21.681   4.305  0.00  0.00    -0.034 C 
ATOM      3  C   LIG    1       24.641 -20.183   4.178  0.00  0.00    +0.103 C 
ATOM      4  S   LIG    1       26.135 -19.617   5.035  0.00  0.00    -0.131 S 
ATOM      5  C   LIG    1       25.602 -20.372   6.588  0.00  0.00    +0.169 C 
ATOM      6  N   LIG    1       25.504 -21.810   6.396  0.00  0.00    -0.249 N 
ATOM      7  C   LIG    1       26.500 -22.136   7.244  0.00  0.00    +0.244 C 
ATOM      8  O   LIG    1       27.034 -23.216   7.434  0.00  0.00    -0.273 OA
ATOM      9  CA  LIG    1       26.699 -20.651   7.655  0.00  0.00    +0.191 C 
ATOM     10  CA  LIG    1       24.847 -22.430   5.357  0.00  0.00    +0.122 C 
ENDROOT
BRANCH   9  11
ATOM     11  N   LIG    1       28.053 -20.077   7.443  0.00  0.00    -0.300 N 
ATOM     12  H   LIG    1       28.260 -19.479   6.642  0.00  0.00    +0.150 HD
ATOM     13  C   LIG    1       29.161 -20.568   8.120  0.00  0.00    +0.235 C 
ATOM     14  O   LIG    1       29.063 -21.470   8.944  0.00  0.00    -0.274 OA
BRANCH  13  15
ATOM     15  CA  LIG    1       30.479 -19.786   7.780  0.00  0.00    +0.164 C 
BRANCH  15  16
ATOM     16  C   LIG    1       30.787 -18.571   8.649  0.00  0.00    -0.044 C 
ATOM     17  C   LIG    1       32.148 -17.927   8.402  0.00  0.00    +0.059 C 
ATOM     18  C   LIG    1       32.481 -16.787   9.327  0.00  0.00    -0.026 C 
ATOM     19  C   LIG    1       31.659 -16.353  10.293  0.00  0.00    -0.027 C 
ATOM     20  C   LIG    1       30.321 -16.968  10.558  0.00  0.00    +0.054 C 
ATOM     21  C   LIG    1       29.985 -18.109   9.638  0.00  0.00    -0.021 C 
ENDBRANCH  15  16
BRANCH  15  22
ATOM     22  N   LIG    1       31.576 -20.783   7.738  0.00  0.00    -0.317 NA
ATOM     23  H1  LIG    1       32.385 -20.341   7.302  0.00  0.00    +0.119 HD
ATOM     24  H2  LIG    1       31.847 -20.972   8.705  0.00  0.00    +0.119 HD
ENDBRANCH  15  22
ENDBRANCH  13  15
ENDBRANCH   9  11
BRANCH  10  25
ATOM     25  C   LIG    1       24.589 -23.926   5.410  0.00  0.00    +0.351 C 
ATOM     26  O   LIG    1       25.294 -24.751   4.849  0.00  0.00    -0.244 OA
BRANCH  25  27
ATOM     27  OXT LIG    1       23.489 -24.341   6.064  0.00  0.00    -0.476 OA
ATOM     28  HXT LIG    1       23.601 -24.980   6.804  0.00  0.00    +0.295 HD
ENDBRANCH  25  27
ENDBRANCH  10  25
TORSDOF 6
ENDMDL
MODEL 9
REMARK VINA RESULT:      -5.7      3.672      6.287
REMARK  Name = *****
REMARK                            x       y       z     vdW  Elec       q    Type
REMARK                         _______ _______ _______ _____ _____    ______ ____
ROOT
ATOM      1  C   LIG    1       23.273 -33.083   6.047  0.00  0.00    +0.042 C 
ATOM      2  C   LIG    1       24.232 -32.452   7.039  0.00  0.00    -0.034 C 
ATOM      3  C   LIG    1       24.433 -33.392   8.218  0.00  0.00    +0.103 C 
ATOM      4  S   LIG    1       24.794 -32.527   9.770  0.00  0.00    -0.131 S 
ATOM      5  C   LIG    1       26.170 -31.628   9.019  0.00  0.00    +0.169 C 
ATOM      6  N   LIG    1       25.651 -30.792   7.949  0.00  0.00    -0.249 N 
ATOM      7  C   LIG    1       25.948 -29.613   8.531  0.00  0.00    +0.244 C 
ATOM      8  O   LIG    1       25.630 -28.483   8.200  0.00  0.00    -0.273 OA
ATOM      9  CA  LIG    1       26.638 -30.325   9.728  0.00  0.00    +0.191 C 
ATOM     10  CA  LIG    1       24.804 -31.215   6.949  0.00  0.00    +0.122 C 
ENDROOT
BRANCH   9  11
ATOM     11  N   LIG    1       26.102 -30.024  11.080  0.00  0.00    -0.300 N 
ATOM     12  H   LIG    1       25.288 -30.514  11.452  0.00  0.00    +0.150 HD
ATOM     13  C   LIG    1       26.463 -28.870  11.762  0.00  0.00    +0.235 C 
ATOM     14  O   LIG    1       27.266 -28.071  11.292  0.00  0.00    -0.274 OA
BRANCH  13  15
ATOM     15  CA  LIG    1       25.817 -28.778  13.189  0.00  0.00    +0.164 C 
BRANCH  15  16
ATOM     16  C   LIG    1       24.501 -28.013  13.287  0.00  0.00    -0.044 C 
ATOM     17  C   LIG    1       23.264 -28.798  12.862  0.00  0.00    +0.059 C 
ATOM     18  C   LIG    1       21.983 -28.008  12.874  0.00  0.00    -0.026 C 
ATOM     19  C   LIG    1       21.913 -26.718  13.231  0.00  0.00    -0.027 C 
ATOM     20  C   LIG    1       23.110 -25.924  13.649  0.00  0.00    +0.054 C 
ATOM     21  C   LIG    1       24.393 -26.709  13.637  0.00  0.00    -0.021 C 
ENDBRANCH  15  16
BRANCH  15  22
ATOM     22  N   LIG    1       25.746 -30.159  13.722  0.00  0.00    -0.317 NA
ATOM     23  H1  LIG    1       25.434 -30.106  14.692  0.00  0.00    +0.119 HD
ATOM     24  H2  LIG    1       25.001 -30.639  13.213  0.00  0.00    +0.119 HD
ENDBRANCH  15  22
ENDBRANCH  13  15
ENDBRANCH   9  11
BRANCH  10  25
ATOM     25  C   LIG    1       24.546 -30.323   5.747  0.00  0.00    +0.351 C 
ATOM     26  O   LIG    1       25.383 -30.094   4.887  0.00  0.00    -0.244 OA
BRANCH  25  27
ATOM     27  OXT LIG    1       23.347 -29.716   5.673  0.00  0.00    -0.476 OA
ATOM     28  HXT LIG    1       23.324 -28.762   5.431  0.00  0.00    +0.295 HD
ENDBRANCH  25  27
ENDBRANCH  10  25
TORSDOF 6
ENDMDL
