MODEL 1
REMARK VINA RESULT:      -5.9      0.000      0.000
REMARK  Name = *****
REMARK                            x       y       z     vdW  Elec       q    Type
REMARK                         _______ _______ _______ _____ _____    ______ ____
ROOT
ATOM      1  N   LIG    1       28.163 -19.989   5.492  0.00  0.00    -0.250 N 
ATOM      2  H   LIG    1       29.010 -19.691   5.014  0.00  0.00    +0.169 HD
ATOM      3  C   LIG    1       28.121 -20.116   6.875  0.00  0.00    +0.258 C 
ATOM      4  O   LIG    1       27.075 -20.252   7.505  0.00  0.00    -0.269 OA
ENDROOT
BRANCH   3   5
ATOM      5  C   LIG    1       29.423 -20.041   7.586  0.00  0.00    +0.041 A 
ATOM      6  C   LIG    1       30.200 -18.882   7.590  0.00  0.00    +0.033 A 
ATOM      7  C   LIG    1       31.404 -18.914   8.270  0.00  0.00    +0.111 A 
ATOM      8  N   LIG    1       31.867 -20.001   8.925  0.00  0.00    -0.263 NA
ATOM      9  C   LIG    1       31.104 -21.114   8.888  0.00  0.00    +0.111 A 
ATOM     10  C   LIG    1       29.887 -21.186   8.235  0.00  0.00    +0.033 A 
ENDBRANCH   3   5
BRANCH   1  11
ATOM     11  N   LIG    1       26.954 -19.996   4.763  0.00  0.00    -0.254 NA
ATOM     12  H   LIG    1       27.138 -19.522   3.872  0.00  0.00    +0.141 HD
ATOM     13  H   LIG    1       26.787 -20.968   4.471  0.00  0.00    +0.141 HD
ENDBRANCH   1  11
TORSDOF 2
ENDMDL
MODEL 2
REMARK VINA RESULT:      -5.8      0.830      1.668
REMARK  Name = *****
REMARK                            x       y       z     vdW  Elec       q    Type
REMARK                         _______ _______ _______ _____ _____    ______ ____
ROOT
ATOM      1  N   LIG    1       27.568 -20.086   4.989  0.00  0.00    -0.250 N 
ATOM      2  H   LIG    1       28.383 -19.805   4.449  0.00  0.00    +0.169 HD
ATOM      3  C   LIG    1       27.635 -20.246   6.368  0.00  0.00    +0.258 C 
ATOM      4  O   LIG    1       26.640 -20.362   7.079  0.00  0.00    -0.269 OA
ENDROOT
BRANCH   3   5
ATOM      5  C   LIG    1       28.993 -20.232   6.970  0.00  0.00    +0.041 A 
ATOM      6  C   LIG    1       29.373 -21.138   7.960  0.00  0.00    +0.033 A 
ATOM      7  C   LIG    1       30.656 -21.039   8.468  0.00  0.00    +0.111 A 
ATOM      8  N   LIG    1       31.554 -20.116   8.062  0.00  0.00    -0.263 NA
ATOM      9  C   LIG    1       31.152 -19.240   7.116  0.00  0.00    +0.111 A 
ATOM     10  C   LIG    1       29.892 -19.253   6.547  0.00  0.00    +0.033 A 
ENDBRANCH   3   5
BRANCH   1  11
ATOM     11  N   LIG    1       26.305 -20.034   4.362  0.00  0.00    -0.254 NA
ATOM     12  H   LIG    1       25.735 -20.783   4.772  0.00  0.00    +0.141 HD
ATOM     13  H   LIG    1       25.837 -19.184   4.703  0.00  0.00    +0.141 HD
ENDBRANCH   1  11
TORSDOF 2
ENDMDL
MODEL 3
REMARK VINA RESULT:      -5.8      1.254      1.934
REMARK  Name = *****
REMARK                            x       y       z     vdW  Elec       q    Type
REMARK                         _______ _______ _______ _____ _____    ______ ____
ROOT
ATOM      1  N   LIG    1       27.960 -20.380   5.965  0.00  0.00    -0.250 N 
ATOM      2  H   LIG    1       27.993 -21.263   6.468  0.00  0.00    +0.169 HD
ATOM      3  C   LIG    1       28.970 -19.434   6.099  0.00  0.00    +0.258 C 
ATOM      4  O   LIG    1       29.086 -18.466   5.352  0.00  0.00    -0.269 OA
ENDROOT
BRANCH   3   5
ATOM      5  C   LIG    1       29.953 -19.666   7.188  0.00  0.00    +0.041 A 
ATOM      6  C   LIG    1       30.062 -20.896   7.838  0.00  0.00    +0.033 A 
ATOM      7  C   LIG    1       30.999 -21.011   8.848  0.00  0.00    +0.111 A 
ATOM      8  N   LIG    1       31.809 -20.002   9.240  0.00  0.00    -0.263 NA
ATOM      9  C   LIG    1       31.667 -18.818   8.607  0.00  0.00    +0.111 A 
ATOM     10  C   LIG    1       30.759 -18.600   7.587  0.00  0.00    +0.033 A 
ENDBRANCH   3   5
BRANCH   1  11
ATOM     11  N   LIG    1       27.027 -20.246   4.914  0.00  0.00    -0.254 NA
ATOM     12  H   LIG    1       27.360 -20.832   4.140  0.00  0.00    +0.141 HD
ATOM     13  H   LIG    1       26.171 -20.731   5.212  0.00  0.00    +0.141 HD
ENDBRANCH   1  11
TORSDOF 2
ENDMDL
MODEL 4
REMARK VINA RESULT:      -5.8      6.214      7.141
REMARK  Name = *****
REMARK                            x       y       z     vdW  Elec       q    Type
REMARK                         _______ _______ _______ _____ _____    ______ ____
ROOT
ATOM      1  N   LIG    1       23.014 -22.994   5.945  0.00  0.00    -0.250 N 
ATOM      2  H   LIG    1       22.855 -23.132   4.950  0.00  0.00    +0.169 HD
ATOM      3  C   LIG    1       23.230 -21.728   6.475  0.00  0.00    +0.258 C 
ATOM      4  O   LIG    1       23.203 -21.489   7.679  0.00  0.00    -0.269 OA
ENDROOT
BRANCH   3   5
ATOM      5  C   LIG    1       23.466 -20.634   5.497  0.00  0.00    +0.041 A 
ATOM      6  C   LIG    1       22.488 -19.687   5.194  0.00  0.00    +0.033 A 
ATOM      7  C   LIG    1       22.798 -18.714   4.261  0.00  0.00    +0.111 A 
ATOM      8  N   LIG    1       23.989 -18.633   3.629  0.00  0.00    -0.263 NA
ATOM      9  C   LIG    1       24.910 -19.574   3.928  0.00  0.00    +0.111 A 
ATOM     10  C   LIG    1       24.698 -20.588   4.843  0.00  0.00    +0.033 A 
ENDBRANCH   3   5
BRANCH   1  11
ATOM     11  N   LIG    1       22.729 -24.065   6.819  0.00  0.00    -0.254 NA
ATOM     12  H   LIG    1       23.623 -24.380   7.211  0.00  0.00    +0.141 HD
ATOM     13  H   LIG    1       22.253 -23.665   7.638  0.00  0.00    +0.141 HD
ENDBRANCH   1  11
TORSDOF 2
ENDMDL
MODEL 5
REMARK VINA RESULT:      -5.7      2.122      4.092
REMARK  Name = *****
REMARK                            x       y       z     vdW  Elec       q    Type
REMARK                         _______ _______ _______ _____ _____    ______ ____
ROOT
ATOM      1  N   LIG    1       30.760 -21.820   8.787  0.00  0.00    -0.250 N 
ATOM      2  H   LIG    1       29.935 -22.329   8.482  0.00  0.00    +0.169 HD
ATOM      3  C   LIG    1       30.982 -20.504   8.397  0.00  0.00    +0.258 C 
ATOM      4  O   LIG    1       31.834 -19.785   8.912  0.00  0.00    -0.269 OA
ENDROOT
BRANCH   3   5
ATOM      5  C   LIG    1       30.097 -19.973   7.327  0.00  0.00    +0.041 A 
ATOM      6  C   LIG    1       30.382 -18.788   6.650  0.00  0.00    +0.033 A 
ATOM      7  C   LIG    1       29.491 -18.369   5.678  0.00  0.00    +0.111 A 
ATOM      8  N   LIG    1       28.365 -19.041   5.353  0.00  0.00    -0.263 NA
ATOM      9  C   LIG    1       28.105 -20.174   6.039  0.00  0.00    +0.111 A 
ATOM     10  C   LIG    1       28.929 -20.676   7.029  0.00  0.00    +0.033 A 
ENDBRANCH   3   5
BRANCH   1  11
ATOM     11  N   LIG    1       31.530 -22.365   9.836  0.00  0.00    -0.254 NA
ATOM     12  H   LIG    1       31.765 -23.327   9.568  0.00  0.00    +0.141 HD
ATOM     13  H   LIG    1       32.445 -21.896   9.810  0.00  0.00    +0.141 HD
ENDBRANCH   1  11
TORSDOF 2
ENDMDL
MODEL 6
REMARK VINA RESULT:      -5.7      2.148      4.271
REMARK  Name = *****
REMARK                            x       y       z     vdW  Elec       q    Type
REMARK                         _______ _______ _______ _____ _____    ______ ____
ROOT
ATOM      1  N   LIG    1       31.273 -18.108   9.506  0.00  0.00    -0.250 N 
ATOM      2  H   LIG    1       30.778 -17.325   9.087  0.00  0.00    +0.169 HD
ATOM      3  C   LIG    1       31.252 -19.371   8.926  0.00  0.00    +0.258 C 
ATOM      4  O   LIG    1       32.006 -20.279   9.266  0.00  0.00    -0.269 OA
ENDROOT
BRANCH   3   5
ATOM      5  C   LIG    1       30.280 -19.574   7.821  0.00  0.00    +0.041 A 
ATOM      6  C   LIG    1       30.115 -18.640   6.798  0.00  0.00    +0.033 A 
ATOM      7  C   LIG    1       29.176 -18.913   5.819  0.00  0.00    +0.111 A 
ATOM      8  N   LIG    1       28.413 -20.028   5.802  0.00  0.00    -0.263 NA
ATOM      9  C   LIG    1       28.581 -20.905   6.815  0.00  0.00    +0.111 A 
ATOM     10  C   LIG    1       29.489 -20.724   7.841  0.00  0.00    +0.033 A 
ENDBRANCH   3   5
BRANCH   1  11
ATOM     11  N   LIG    1       32.212 -17.834  10.523  0.00  0.00    -0.254 NA
ATOM     12  H   LIG    1       32.730 -16.996  10.237  0.00  0.00    +0.141 HD
ATOM     13  H   LIG    1       31.681 -17.502  11.339  0.00  0.00    +0.141 HD
ENDBRANCH   1  11
TORSDOF 2
ENDMDL
MODEL 7
REMARK VINA RESULT:      -5.7      5.315      6.657
REMARK  Name = *****
REMARK                            x       y       z     vdW  Elec       q    Type
REMARK                         _______ _______ _______ _____ _____    ______ ____
ROOT
ATOM      1  N   LIG    1       25.530 -20.722   8.021  0.00  0.00    -0.250 N 
ATOM      2  H   LIG    1       26.297 -20.293   7.509  0.00  0.00    +0.169 HD
ATOM      3  C   LIG    1       24.323 -21.018   7.399  0.00  0.00    +0.258 C 
ATOM      4  O   LIG    1       23.461 -21.729   7.909  0.00  0.00    -0.269 OA
ENDROOT
BRANCH   3   5
ATOM      5  C   LIG    1       24.125 -20.456   6.038  0.00  0.00    +0.041 A 
ATOM      6  C   LIG    1       25.154 -20.415   5.096  0.00  0.00    +0.033 A 
ATOM      7  C   LIG    1       24.876 -19.861   3.860  0.00  0.00    +0.111 A 
ATOM      8  N   LIG    1       23.670 -19.358   3.517  0.00  0.00    -0.263 NA
ATOM      9  C   LIG    1       22.699 -19.393   4.455  0.00  0.00    +0.111 A 
ATOM     10  C   LIG    1       22.875 -19.922   5.719  0.00  0.00    +0.033 A 
ENDBRANCH   3   5
BRANCH   1  11
ATOM     11  N   LIG    1       25.801 -21.272   9.292  0.00  0.00    -0.254 NA
ATOM     12  H   LIG    1       26.531 -21.982   9.162  0.00  0.00    +0.141 HD
ATOM     13  H   LIG    1       26.289 -20.546   9.833  0.00  0.00    +0.141 HD
ENDBRANCH   1  11
TORSDOF 2
ENDMDL
MODEL 8
REMARK VINA RESULT:      -5.6      3.538      5.871
REMARK  Name = *****
REMARK                            x       y       z     vdW  Elec       q    Type
REMARK                         _______ _______ _______ _____ _____    ______ ____
ROOT
ATOM      1  N   LIG    1       27.585 -20.171   7.502  0.00  0.00    -0.250 N 
ATOM      2  H   LIG    1       27.812 -20.279   6.517  0.00  0.00    +0.169 HD
ATOM      3  C   LIG    1       26.315 -20.462   7.987  0.00  0.00    +0.258 C 
ATOM      4  O   LIG    1       26.060 -20.562   9.184  0.00  0.00    -0.269 OA
ENDROOT
BRANCH   3   5
ATOM      5  C   LIG    1       25.256 -20.691   6.971  0.00  0.00    +0.041 A 
ATOM      6  C   LIG    1       23.936 -20.969   7.326  0.00  0.00    +0.033 A 
ATOM      7  C   LIG    1       23.023 -21.180   6.308  0.00  0.00    +0.111 A 
ATOM      8  N   LIG    1       23.340 -21.133   4.996  0.00  0.00    -0.263 NA
ATOM      9  C   LIG    1       24.629 -20.882   4.682  0.00  0.00    +0.111 A 
ATOM     10  C   LIG    1       25.617 -20.661   5.623  0.00  0.00    +0.033 A 
ENDBRANCH   3   5
BRANCH   1  11
ATOM     11  N   LIG    1       28.647 -19.997   8.415  0.00  0.00    -0.254 NA
ATOM     12  H   LIG    1       29.512 -20.241   7.920  0.00  0.00    +0.141 HD
ATOM     13  H   LIG    1       28.751 -18.985   8.564  0.00  0.00    +0.141 HD
ENDBRANCH   1  11
TORSDOF 2
ENDMDL
MODEL 9
REMARK VINA RESULT:      -5.6      2.044      4.451
REMARK  Name = *****
REMARK                            x       y       z     vdW  Elec       q    Type
REMARK                         _______ _______ _______ _____ _____    ______ ____
ROOT
ATOM      1  N   LIG    1       30.193 -20.193   6.903  0.00  0.00    -0.250 N 
ATOM      2  H   LIG    1       30.024 -20.846   6.142  0.00  0.00    +0.169 HD
ATOM      3  C   LIG    1       29.160 -19.760   7.727  0.00  0.00    +0.258 C 
ATOM      4  O   LIG    1       29.348 -19.158   8.781  0.00  0.00    -0.269 OA
ENDROOT
BRANCH   3   5
ATOM      5  C   LIG    1       27.781 -20.097   7.289  0.00  0.00    +0.041 A 
ATOM      6  C   LIG    1       26.786 -20.467   8.194  0.00  0.00    +0.033 A 
ATOM      7  C   LIG    1       25.535 -20.774   7.689  0.00  0.00    +0.111 A 
ATOM      8  N   LIG    1       25.227 -20.736   6.374  0.00  0.00    -0.263 NA
ATOM      9  C   LIG    1       26.215 -20.394   5.520  0.00  0.00    +0.111 A 
ATOM     10  C   LIG    1       27.498 -20.072   5.923  0.00  0.00    +0.033 A 
ENDBRANCH   3   5
BRANCH   1  11
ATOM     11  N   LIG    1       31.528 -19.953   7.292  0.00  0.00    -0.254 NA
ATOM     12  H   LIG    1       32.051 -19.716   6.441  0.00  0.00    +0.141 HD
ATOM     13  H   LIG    1       31.534 -19.067   7.813  0.00  0.00    +0.141 HD
ENDBRANCH   1  11
TORSDOF 2
ENDMDL
