MODEL 1
REMARK VINA RESULT:      -6.5      0.000      0.000
REMARK  Name = *****
REMARK                            x       y       z     vdW  Elec       q    Type
REMARK                         _______ _______ _______ _____ _____    ______ ____
ROOT
ATOM      1  C   LIG    1       24.767 -21.249   5.886  0.00  0.00    +0.024 C 
ATOM      2  C   LIG    1       23.500 -20.394   6.075  0.00  0.00    +0.028 C 
ATOM      3  C   LIG    1       24.672 -22.764   6.399  0.00  0.00    -0.014 C 
ATOM      4  C   LIG    1       24.983 -23.838   5.321  0.00  0.00    +0.013 C 
ATOM      5  C   LIG    1       23.304 -23.154   6.987  0.00  0.00    +0.013 C 
ATOM      6  C   LIG    1       25.830 -22.828   7.462  0.00  0.00    -0.003 C 
ATOM      7  C   LIG    1       26.899 -21.915   6.849  0.00  0.00    +0.009 C 
ATOM      8  C   LIG    1       25.492 -22.041   8.739  0.00  0.00    +0.004 C 
ATOM      9  C   LIG    1       25.574 -20.585   8.277  0.00  0.00    +0.005 C 
ATOM     10  C   LIG    1       25.951 -20.712   6.786  0.00  0.00    +0.010 C 
ENDROOT
BRANCH   1  12
ATOM     11  C   LIG    1       25.178 -19.828   3.870  0.00  0.00    +0.101 C 
ATOM     12  N   LIG    1       25.257 -21.146   4.486  0.00  0.00    -0.313 NA
ATOM     13  H   LIG    1       26.227 -21.459   4.437  0.00  0.00    +0.122 HD
ENDBRANCH   1  12
TORSDOF 1
ENDMDL
MODEL 2
REMARK VINA RESULT:      -6.4      1.383      3.399
REMARK  Name = *****
REMARK                            x       y       z     vdW  Elec       q    Type
REMARK                         _______ _______ _______ _____ _____    ______ ____
ROOT
ATOM      1  C   LIG    1       24.800 -22.599   5.833  0.00  0.00    +0.024 C 
ATOM      2  C   LIG    1       25.821 -23.193   6.823  0.00  0.00    +0.028 C 
ATOM      3  C   LIG    1       24.987 -21.048   5.480  0.00  0.00    -0.014 C 
ATOM      4  C   LIG    1       25.149 -20.738   3.967  0.00  0.00    +0.013 C 
ATOM      5  C   LIG    1       26.189 -20.377   6.169  0.00  0.00    +0.013 C 
ATOM      6  C   LIG    1       23.610 -20.437   5.933  0.00  0.00    -0.003 C 
ATOM      7  C   LIG    1       22.618 -21.555   5.589  0.00  0.00    +0.009 C 
ATOM      8  C   LIG    1       23.465 -20.397   7.463  0.00  0.00    +0.004 C 
ATOM      9  C   LIG    1       23.286 -21.871   7.829  0.00  0.00    +0.005 C 
ATOM     10  C   LIG    1       23.349 -22.582   6.461  0.00  0.00    +0.010 C 
ENDROOT
BRANCH   1  12
ATOM     11  C   LIG    1       24.976 -24.874   4.808  0.00  0.00    +0.101 C 
ATOM     12  N   LIG    1       24.695 -23.456   4.622  0.00  0.00    -0.313 NA
ATOM     13  H   LIG    1       23.762 -23.370   4.219  0.00  0.00    +0.122 HD
ENDBRANCH   1  12
TORSDOF 1
ENDMDL
MODEL 3
REMARK VINA RESULT:      -6.0      1.377      3.595
REMARK  Name = *****
REMARK                            x       y       z     vdW  Elec       q    Type
REMARK                         _______ _______ _______ _____ _____    ______ ____
ROOT
ATOM      1  C   LIG    1       24.170 -22.371   5.824  0.00  0.00    +0.024 C 
ATOM      2  C   LIG    1       23.247 -23.130   6.796  0.00  0.00    +0.028 C 
ATOM      3  C   LIG    1       24.799 -21.005   6.377  0.00  0.00    -0.014 C 
ATOM      4  C   LIG    1       26.350 -20.940   6.344  0.00  0.00    +0.013 C 
ATOM      5  C   LIG    1       24.404 -20.662   7.825  0.00  0.00    +0.013 C 
ATOM      6  C   LIG    1       24.268 -19.951   5.338  0.00  0.00    -0.003 C 
ATOM      7  C   LIG    1       24.281 -20.741   4.023  0.00  0.00    +0.009 C 
ATOM      8  C   LIG    1       22.761 -19.689   5.490  0.00  0.00    +0.004 C 
ATOM      9  C   LIG    1       22.134 -20.984   4.968  0.00  0.00    +0.005 C 
ATOM     10  C   LIG    1       23.360 -21.834   4.577  0.00  0.00    +0.010 C 
ENDROOT
BRANCH   1  12
ATOM     11  C   LIG    1       25.264 -24.620   5.851  0.00  0.00    +0.101 C 
ATOM     12  N   LIG    1       25.196 -23.289   5.262  0.00  0.00    -0.313 NA
ATOM     13  H   LIG    1       25.049 -23.397   4.258  0.00  0.00    +0.122 HD
ENDBRANCH   1  12
TORSDOF 1
ENDMDL
MODEL 4
REMARK VINA RESULT:      -5.9      1.297      3.218
REMARK  Name = *****
REMARK                            x       y       z     vdW  Elec       q    Type
REMARK                         _______ _______ _______ _____ _____    ______ ____
ROOT
ATOM      1  C   LIG    1       24.759 -22.482   6.668  0.00  0.00    +0.024 C 
ATOM      2  C   LIG    1       25.157 -23.579   5.663  0.00  0.00    +0.028 C 
ATOM      3  C   LIG    1       24.741 -20.984   6.100  0.00  0.00    -0.014 C 
ATOM      4  C   LIG    1       23.387 -20.241   6.261  0.00  0.00    +0.013 C 
ATOM      5  C   LIG    1       25.103 -20.864   4.608  0.00  0.00    +0.013 C 
ATOM      6  C   LIG    1       25.779 -20.262   7.036  0.00  0.00    -0.003 C 
ATOM      7  C   LIG    1       25.551 -20.953   8.386  0.00  0.00    +0.009 C 
ATOM      8  C   LIG    1       27.226 -20.693   6.744  0.00  0.00    +0.004 C 
ATOM      9  C   LIG    1       27.271 -22.126   7.277  0.00  0.00    +0.005 C 
ATOM     10  C   LIG    1       25.841 -22.345   7.813  0.00  0.00    +0.010 C 
ENDROOT
BRANCH   1  12
ATOM     11  C   LIG    1       22.654 -23.832   6.693  0.00  0.00    +0.101 C 
ATOM     12  N   LIG    1       23.495 -22.848   7.362  0.00  0.00    -0.313 NA
ATOM     13  H   LIG    1       23.704 -23.196   8.297  0.00  0.00    +0.122 HD
ENDBRANCH   1  12
TORSDOF 1
ENDMDL
MODEL 5
REMARK VINA RESULT:      -5.9      1.371      2.813
REMARK  Name = *****
REMARK                            x       y       z     vdW  Elec       q    Type
REMARK                         _______ _______ _______ _____ _____    ______ ____
ROOT
ATOM      1  C   LIG    1       25.099 -21.107   6.011  0.00  0.00    +0.024 C 
ATOM      2  C   LIG    1       25.377 -20.821   4.523  0.00  0.00    +0.028 C 
ATOM      3  C   LIG    1       24.843 -22.642   6.393  0.00  0.00    -0.014 C 
ATOM      4  C   LIG    1       25.795 -23.212   7.480  0.00  0.00    +0.013 C 
ATOM      5  C   LIG    1       24.939 -23.619   5.208  0.00  0.00    +0.013 C 
ATOM      6  C   LIG    1       23.402 -22.590   7.022  0.00  0.00    -0.003 C 
ATOM      7  C   LIG    1       23.400 -21.237   7.744  0.00  0.00    +0.009 C 
ATOM      8  C   LIG    1       22.313 -22.342   5.964  0.00  0.00    +0.004 C 
ATOM      9  C   LIG    1       22.537 -20.879   5.579  0.00  0.00    +0.005 C 
ATOM     10  C   LIG    1       23.729 -20.462   6.465  0.00  0.00    +0.010 C 
ENDROOT
BRANCH   1  12
ATOM     11  C   LIG    1       27.426 -20.216   6.231  0.00  0.00    +0.101 C 
ATOM     12  N   LIG    1       26.138 -20.469   6.863  0.00  0.00    -0.313 NA
ATOM     13  H   LIG    1       25.787 -19.583   7.228  0.00  0.00    +0.122 HD
ENDBRANCH   1  12
TORSDOF 1
ENDMDL
MODEL 6
REMARK VINA RESULT:      -5.8      1.346      2.654
REMARK  Name = *****
REMARK                            x       y       z     vdW  Elec       q    Type
REMARK                         _______ _______ _______ _____ _____    ______ ____
ROOT
ATOM      1  C   LIG    1       24.612 -22.425   5.807  0.00  0.00    +0.024 C 
ATOM      2  C   LIG    1       24.712 -21.727   4.438  0.00  0.00    +0.028 C 
ATOM      3  C   LIG    1       23.790 -21.640   6.936  0.00  0.00    -0.014 C 
ATOM      4  C   LIG    1       22.605 -22.433   7.551  0.00  0.00    +0.013 C 
ATOM      5  C   LIG    1       23.192 -20.299   6.473  0.00  0.00    +0.013 C 
ATOM      6  C   LIG    1       24.867 -21.465   8.069  0.00  0.00    -0.003 C 
ATOM      7  C   LIG    1       25.674 -22.765   7.968  0.00  0.00    +0.009 C 
ATOM      8  C   LIG    1       25.947 -20.437   7.692  0.00  0.00    +0.004 C 
ATOM      9  C   LIG    1       26.749 -21.163   6.610  0.00  0.00    +0.005 C 
ATOM     10  C   LIG    1       26.031 -22.524   6.497  0.00  0.00    +0.010 C 
ENDROOT
BRANCH   1  12
ATOM     11  C   LIG    1       25.119 -24.756   5.054  0.00  0.00    +0.101 C 
ATOM     12  N   LIG    1       24.156 -23.831   5.639  0.00  0.00    -0.313 NA
ATOM     13  H   LIG    1       23.864 -24.209   6.540  0.00  0.00    +0.122 HD
ENDBRANCH   1  12
TORSDOF 1
ENDMDL
MODEL 7
REMARK VINA RESULT:      -5.7      1.133      3.034
REMARK  Name = *****
REMARK                            x       y       z     vdW  Elec       q    Type
REMARK                         _______ _______ _______ _____ _____    ______ ____
ROOT
ATOM      1  C   LIG    1       24.664 -21.172   6.001  0.00  0.00    +0.024 C 
ATOM      2  C   LIG    1       25.274 -20.740   4.654  0.00  0.00    +0.028 C 
ATOM      3  C   LIG    1       25.705 -21.439   7.189  0.00  0.00    -0.014 C 
ATOM      4  C   LIG    1       25.459 -20.600   8.473  0.00  0.00    +0.013 C 
ATOM      5  C   LIG    1       27.178 -21.195   6.813  0.00  0.00    +0.013 C 
ATOM      6  C   LIG    1       25.413 -22.940   7.555  0.00  0.00    -0.003 C 
ATOM      7  C   LIG    1       23.898 -23.048   7.345  0.00  0.00    +0.009 C 
ATOM      8  C   LIG    1       25.913 -23.912   6.473  0.00  0.00    +0.004 C 
ATOM      9  C   LIG    1       24.934 -23.676   5.321  0.00  0.00    +0.005 C 
ATOM     10  C   LIG    1       23.987 -22.596   5.883  0.00  0.00    +0.010 C 
ENDROOT
BRANCH   1  12
ATOM     11  C   LIG    1       22.669 -19.821   5.329  0.00  0.00    +0.101 C 
ATOM     12  N   LIG    1       23.568 -20.246   6.394  0.00  0.00    -0.313 NA
ATOM     13  H   LIG    1       23.005 -20.672   7.131  0.00  0.00    +0.122 HD
ENDBRANCH   1  12
TORSDOF 1
ENDMDL
MODEL 8
REMARK VINA RESULT:      -5.7      1.199      2.759
REMARK  Name = *****
REMARK                            x       y       z     vdW  Elec       q    Type
REMARK                         _______ _______ _______ _____ _____    ______ ____
ROOT
ATOM      1  C   LIG    1       25.610 -21.022   6.428  0.00  0.00    +0.024 C 
ATOM      2  C   LIG    1       26.033 -20.574   7.840  0.00  0.00    +0.028 C 
ATOM      3  C   LIG    1       24.058 -20.846   6.072  0.00  0.00    -0.014 C 
ATOM      4  C   LIG    1       23.772 -19.986   4.811  0.00  0.00    +0.013 C 
ATOM      5  C   LIG    1       23.213 -20.222   7.197  0.00  0.00    +0.013 C 
ATOM      6  C   LIG    1       23.626 -22.320   5.735  0.00  0.00    -0.003 C 
ATOM      7  C   LIG    1       24.877 -22.889   5.053  0.00  0.00    +0.009 C 
ATOM      8  C   LIG    1       23.563 -23.210   6.987  0.00  0.00    +0.004 C 
ATOM      9  C   LIG    1       25.038 -23.394   7.351  0.00  0.00    +0.005 C 
ATOM     10  C   LIG    1       25.771 -22.587   6.261  0.00  0.00    +0.010 C 
ENDROOT
BRANCH   1  12
ATOM     11  C   LIG    1       27.829 -20.016   5.863  0.00  0.00    +0.101 C 
ATOM     12  N   LIG    1       26.506 -20.422   5.404  0.00  0.00    -0.313 NA
ATOM     13  H   LIG    1       26.628 -21.073   4.629  0.00  0.00    +0.122 HD
ENDBRANCH   1  12
TORSDOF 1
ENDMDL
MODEL 9
REMARK VINA RESULT:      -5.5      1.410      3.395
REMARK  Name = *****
REMARK                            x       y       z     vdW  Elec       q    Type
REMARK                         _______ _______ _______ _____ _____    ______ ____
ROOT
ATOM      1  C   LIG    1       25.172 -21.665   6.827  0.00  0.00    +0.024 C 
ATOM      2  C   LIG    1       26.663 -22.033   6.710  0.00  0.00    +0.028 C 
ATOM      3  C   LIG    1       24.149 -22.636   6.068  0.00  0.00    -0.014 C 
ATOM      4  C   LIG    1       23.049 -23.260   6.971  0.00  0.00    +0.013 C 
ATOM      5  C   LIG    1       24.812 -23.824   5.347  0.00  0.00    +0.013 C 
ATOM      6  C   LIG    1       23.429 -21.650   5.077  0.00  0.00    -0.003 C 
ATOM      7  C   LIG    1       23.351 -20.353   5.892  0.00  0.00    +0.009 C 
ATOM      8  C   LIG    1       24.349 -21.202   3.929  0.00  0.00    +0.004 C 
ATOM      9  C   LIG    1       25.341 -20.271   4.628  0.00  0.00    +0.005 C 
ATOM     10  C   LIG    1       24.868 -20.295   6.097  0.00  0.00    +0.010 C 
ENDROOT
BRANCH   1  12
ATOM     11  C   LIG    1       25.734 -20.646   9.041  0.00  0.00    +0.101 C 
ATOM     12  N   LIG    1       24.804 -21.442   8.251  0.00  0.00    -0.313 NA
ATOM     13  H   LIG    1       23.886 -21.000   8.304  0.00  0.00    +0.122 HD
ENDBRANCH   1  12
TORSDOF 1
ENDMDL
