MODEL 1
REMARK VINA RESULT:      -5.9      0.000      0.000
REMARK  Name = *****
REMARK                            x       y       z     vdW  Elec       q    Type
REMARK                         _______ _______ _______ _____ _____    ______ ____
ROOT
ATOM      1  P   LIG    1       26.094 -21.130   8.153  0.00  0.00    +0.516 P 
ATOM      2  F   LIG    1       25.991 -22.695   8.459  0.00  0.00    -0.133 F 
ATOM      3  O   LIG    1       25.930 -20.444   9.516  0.00  0.00    -0.223 OA
ENDROOT
BRANCH   1   4
ATOM      4  O   LIG    1       24.379 -21.049   7.941  0.00  0.00    -0.281 OA
BRANCH   4   6
ATOM      5  C   LIG    1       23.063 -22.712   6.872  0.00  0.00    +0.038 C 
ATOM      6  C   LIG    1       23.891 -21.447   6.665  0.00  0.00    +0.124 C 
ATOM      7  C   LIG    1       23.036 -20.349   6.041  0.00  0.00    +0.038 C 
ENDBRANCH   4   6
ENDBRANCH   1   4
BRANCH   1   8
ATOM      8  O   LIG    1       27.809 -21.211   8.364  0.00  0.00    -0.281 OA
BRANCH   8   9
ATOM      9  C   LIG    1       28.560 -20.671   7.267  0.00  0.00    +0.124 C 
ATOM     10  C   LIG    1       29.419 -19.497   7.725  0.00  0.00    +0.038 C 
ATOM     11  C   LIG    1       27.584 -20.234   6.183  0.00  0.00    +0.038 C 
ENDBRANCH   8   9
ENDBRANCH   1   8
TORSDOF 4
ENDMDL
MODEL 2
REMARK VINA RESULT:      -5.8      4.959      7.215
REMARK  Name = *****
REMARK                            x       y       z     vdW  Elec       q    Type
REMARK                         _______ _______ _______ _____ _____    ______ ____
ROOT
ATOM      1  P   LIG    1       31.580 -18.751   8.648  0.00  0.00    +0.516 P 
ATOM      2  F   LIG    1       30.060 -18.539   9.094  0.00  0.00    -0.133 F 
ATOM      3  O   LIG    1       31.969 -20.130   9.197  0.00  0.00    -0.223 OA
ENDROOT
BRANCH   1   4
ATOM      4  O   LIG    1       32.123 -18.043  10.130  0.00  0.00    -0.281 OA
BRANCH   4   6
ATOM      5  C   LIG    1       31.500 -16.510  11.833  0.00  0.00    +0.038 C 
ATOM      6  C   LIG    1       31.757 -16.684  10.340  0.00  0.00    +0.124 C 
ATOM      7  C   LIG    1       32.864 -15.743   9.879  0.00  0.00    +0.038 C 
ENDBRANCH   4   6
ENDBRANCH   1   4
BRANCH   1   8
ATOM      8  O   LIG    1       31.036 -19.459   7.166  0.00  0.00    -0.281 OA
BRANCH   8   9
ATOM      9  C   LIG    1       29.624 -19.342   6.945  0.00  0.00    +0.124 C 
ATOM     10  C   LIG    1       28.987 -20.717   6.772  0.00  0.00    +0.038 C 
ATOM     11  C   LIG    1       29.398 -18.483   5.709  0.00  0.00    +0.038 C 
ENDBRANCH   8   9
ENDBRANCH   1   8
TORSDOF 4
ENDMDL
MODEL 3
REMARK VINA RESULT:      -5.8      4.447      5.883
REMARK  Name = *****
REMARK                            x       y       z     vdW  Elec       q    Type
REMARK                         _______ _______ _______ _____ _____    ______ ____
ROOT
ATOM      1  P   LIG    1       31.254 -19.384   8.851  0.00  0.00    +0.516 P 
ATOM      2  F   LIG    1       31.951 -18.780   7.546  0.00  0.00    -0.133 F 
ATOM      3  O   LIG    1       32.034 -20.669   9.162  0.00  0.00    -0.223 OA
ENDROOT
BRANCH   1   4
ATOM      4  O   LIG    1       30.181 -20.312   7.860  0.00  0.00    -0.281 OA
BRANCH   4   6
ATOM      5  C   LIG    1       29.024 -19.330   6.034  0.00  0.00    +0.038 C 
ATOM      6  C   LIG    1       28.953 -19.683   7.517  0.00  0.00    +0.124 C 
ATOM      7  C   LIG    1       27.772 -20.609   7.786  0.00  0.00    +0.038 C 
ENDBRANCH   4   6
ENDBRANCH   1   4
BRANCH   1   8
ATOM      8  O   LIG    1       32.327 -18.456   9.842  0.00  0.00    -0.281 OA
BRANCH   8   9
ATOM      9  C   LIG    1       31.756 -17.237  10.339  0.00  0.00    +0.124 C 
ATOM     10  C   LIG    1       30.234 -17.276  10.249  0.00  0.00    +0.038 C 
ATOM     11  C   LIG    1       32.316 -16.077   9.529  0.00  0.00    +0.038 C 
ENDBRANCH   8   9
ENDBRANCH   1   8
TORSDOF 4
ENDMDL
MODEL 4
REMARK VINA RESULT:      -5.7      3.924      6.448
REMARK  Name = *****
REMARK                            x       y       z     vdW  Elec       q    Type
REMARK                         _______ _______ _______ _____ _____    ______ ____
ROOT
ATOM      1  P   LIG    1       30.867 -19.856   8.359  0.00  0.00    +0.516 P 
ATOM      2  F   LIG    1       31.332 -21.271   8.938  0.00  0.00    -0.133 F 
ATOM      3  O   LIG    1       31.739 -19.627   7.116  0.00  0.00    -0.223 OA
ENDROOT
BRANCH   1   4
ATOM      4  O   LIG    1       32.071 -19.059   9.312  0.00  0.00    -0.281 OA
BRANCH   4   6
ATOM      5  C   LIG    1       32.398 -16.707   9.304  0.00  0.00    +0.038 C 
ATOM      6  C   LIG    1       31.656 -17.865   9.964  0.00  0.00    +0.124 C 
ATOM      7  C   LIG    1       30.149 -17.670   9.840  0.00  0.00    +0.038 C 
ENDBRANCH   4   6
ENDBRANCH   1   4
BRANCH   1   8
ATOM      8  O   LIG    1       29.663 -20.652   7.405  0.00  0.00    -0.281 OA
BRANCH   8   9
ATOM      9  C   LIG    1       28.471 -19.879   7.203  0.00  0.00    +0.124 C 
ATOM     10  C   LIG    1       27.293 -20.494   7.953  0.00  0.00    +0.038 C 
ATOM     11  C   LIG    1       28.186 -19.815   5.709  0.00  0.00    +0.038 C 
ENDBRANCH   8   9
ENDBRANCH   1   8
TORSDOF 4
ENDMDL
MODEL 5
REMARK VINA RESULT:      -5.6      1.521      4.728
REMARK  Name = *****
REMARK                            x       y       z     vdW  Elec       q    Type
REMARK                         _______ _______ _______ _____ _____    ______ ____
ROOT
ATOM      1  P   LIG    1       26.246 -21.105   8.194  0.00  0.00    +0.516 P 
ATOM      2  F   LIG    1       25.667 -20.138   7.060  0.00  0.00    -0.133 F 
ATOM      3  O   LIG    1       25.866 -20.436   9.522  0.00  0.00    -0.223 OA
ENDROOT
BRANCH   1   4
ATOM      4  O   LIG    1       27.730 -20.218   8.207  0.00  0.00    -0.281 OA
BRANCH   4   6
ATOM      5  C   LIG    1       28.846 -19.691   6.178  0.00  0.00    +0.038 C 
ATOM      6  C   LIG    1       28.744 -20.689   7.327  0.00  0.00    +0.124 C 
ATOM      7  C   LIG    1       30.082 -20.807   8.049  0.00  0.00    +0.038 C 
ENDBRANCH   4   6
ENDBRANCH   1   4
BRANCH   1   8
ATOM      8  O   LIG    1       24.761 -21.993   8.181  0.00  0.00    -0.281 OA
BRANCH   8   9
ATOM      9  C   LIG    1       24.521 -22.714   6.964  0.00  0.00    +0.124 C 
ATOM     10  C   LIG    1       23.059 -23.138   6.864  0.00  0.00    +0.038 C 
ATOM     11  C   LIG    1       25.439 -23.929   6.934  0.00  0.00    +0.038 C 
ENDBRANCH   8   9
ENDBRANCH   1   8
TORSDOF 4
ENDMDL
MODEL 6
REMARK VINA RESULT:      -5.4      1.155      4.599
REMARK  Name = *****
REMARK                            x       y       z     vdW  Elec       q    Type
REMARK                         _______ _______ _______ _____ _____    ______ ____
ROOT
ATOM      1  P   LIG    1       26.072 -20.924   8.229  0.00  0.00    +0.516 P 
ATOM      2  F   LIG    1       25.915 -20.033   9.546  0.00  0.00    -0.133 F 
ATOM      3  O   LIG    1       26.056 -22.377   8.725  0.00  0.00    -0.223 OA
ENDROOT
BRANCH   1   4
ATOM      4  O   LIG    1       27.792 -20.913   8.415  0.00  0.00    -0.281 OA
BRANCH   4   6
ATOM      5  C   LIG    1       29.980 -20.371   7.668  0.00  0.00    +0.038 C 
ATOM      6  C   LIG    1       28.502 -20.008   7.578  0.00  0.00    +0.124 C 
ATOM      7  C   LIG    1       28.019 -20.107   6.135  0.00  0.00    +0.038 C 
ENDBRANCH   4   6
ENDBRANCH   1   4
BRANCH   1   8
ATOM      8  O   LIG    1       24.353 -20.936   8.042  0.00  0.00    -0.281 OA
BRANCH   8   9
ATOM      9  C   LIG    1       23.906 -21.397   6.759  0.00  0.00    +0.124 C 
ATOM     10  C   LIG    1       23.065 -20.331   6.063  0.00  0.00    +0.038 C 
ATOM     11  C   LIG    1       23.103 -22.675   6.958  0.00  0.00    +0.038 C 
ENDBRANCH   8   9
ENDBRANCH   1   8
TORSDOF 4
ENDMDL
MODEL 7
REMARK VINA RESULT:      -5.4      2.850      4.134
REMARK  Name = *****
REMARK                            x       y       z     vdW  Elec       q    Type
REMARK                         _______ _______ _______ _____ _____    ______ ____
ROOT
ATOM      1  P   LIG    1       23.837 -21.412   6.441  0.00  0.00    +0.516 P 
ATOM      2  F   LIG    1       23.003 -20.098   6.805  0.00  0.00    -0.133 F 
ATOM      3  O   LIG    1       22.837 -22.569   6.574  0.00  0.00    -0.223 OA
ENDROOT
BRANCH   1   4
ATOM      4  O   LIG    1       24.253 -21.621   8.107  0.00  0.00    -0.281 OA
BRANCH   4   6
ATOM      5  C   LIG    1       26.160 -22.807   7.335  0.00  0.00    +0.038 C 
ATOM      6  C   LIG    1       25.633 -21.831   8.381  0.00  0.00    +0.124 C 
ATOM      7  C   LIG    1       26.407 -20.518   8.319  0.00  0.00    +0.038 C 
ENDBRANCH   4   6
ENDBRANCH   1   4
BRANCH   1   8
ATOM      8  O   LIG    1       23.421 -21.203   4.775  0.00  0.00    -0.281 OA
BRANCH   8   9
ATOM      9  C   LIG    1       24.359 -20.409   4.033  0.00  0.00    +0.124 C 
ATOM     10  C   LIG    1       25.648 -20.213   4.825  0.00  0.00    +0.038 C 
ATOM     11  C   LIG    1       23.712 -19.068   3.715  0.00  0.00    +0.038 C 
ENDBRANCH   8   9
ENDBRANCH   1   8
TORSDOF 4
ENDMDL
MODEL 8
REMARK VINA RESULT:      -5.4      3.508      4.440
REMARK  Name = *****
REMARK                            x       y       z     vdW  Elec       q    Type
REMARK                         _______ _______ _______ _____ _____    ______ ____
ROOT
ATOM      1  P   LIG    1       23.925 -21.345   6.705  0.00  0.00    +0.516 P 
ATOM      2  F   LIG    1       25.118 -20.326   7.013  0.00  0.00    -0.133 F 
ATOM      3  O   LIG    1       23.173 -21.493   8.035  0.00  0.00    -0.223 OA
ENDROOT
BRANCH   1   4
ATOM      4  O   LIG    1       24.931 -22.676   7.162  0.00  0.00    -0.281 OA
BRANCH   4   6
ATOM      5  C   LIG    1       25.933 -24.795   6.785  0.00  0.00    +0.038 C 
ATOM      6  C   LIG    1       24.826 -23.840   6.351  0.00  0.00    +0.124 C 
ATOM      7  C   LIG    1       23.461 -24.499   6.517  0.00  0.00    +0.038 C 
ENDBRANCH   4   6
ENDBRANCH   1   4
BRANCH   1   8
ATOM      8  O   LIG    1       22.919 -20.013   6.248  0.00  0.00    -0.281 OA
BRANCH   8   9
ATOM      9  C   LIG    1       22.656 -19.935   4.839  0.00  0.00    +0.124 C 
ATOM     10  C   LIG    1       23.867 -20.400   4.036  0.00  0.00    +0.038 C 
ATOM     11  C   LIG    1       22.300 -18.496   4.494  0.00  0.00    +0.038 C 
ENDBRANCH   8   9
ENDBRANCH   1   8
TORSDOF 4
ENDMDL
MODEL 9
REMARK VINA RESULT:      -5.2      3.564      4.281
REMARK  Name = *****
REMARK                            x       y       z     vdW  Elec       q    Type
REMARK                         _______ _______ _______ _____ _____    ______ ____
ROOT
ATOM      1  P   LIG    1       23.861 -22.684   6.642  0.00  0.00    +0.516 P 
ATOM      2  F   LIG    1       22.656 -23.679   6.982  0.00  0.00    -0.133 F 
ATOM      3  O   LIG    1       24.139 -21.932   7.951  0.00  0.00    -0.223 OA
ENDROOT
BRANCH   1   4
ATOM      4  O   LIG    1       22.730 -21.448   6.210  0.00  0.00    -0.281 OA
BRANCH   4   6
ATOM      5  C   LIG    1       22.519 -19.410   5.010  0.00  0.00    +0.038 C 
ATOM      6  C   LIG    1       22.890 -20.886   4.913  0.00  0.00    +0.124 C 
ATOM      7  C   LIG    1       24.326 -21.041   4.424  0.00  0.00    +0.038 C 
ENDBRANCH   4   6
ENDBRANCH   1   4
BRANCH   1   8
ATOM      8  O   LIG    1       24.991 -23.920   7.074  0.00  0.00    -0.281 OA
BRANCH   8   9
ATOM      9  C   LIG    1       24.824 -25.146   6.347  0.00  0.00    +0.124 C 
ATOM     10  C   LIG    1       25.830 -26.193   6.813  0.00  0.00    +0.038 C 
ATOM     11  C   LIG    1       24.997 -24.853   4.863  0.00  0.00    +0.038 C 
ENDBRANCH   8   9
ENDBRANCH   1   8
TORSDOF 4
ENDMDL
