MODEL 1
REMARK VINA RESULT:      -6.3      0.000      0.000
REMARK  Name = *****
REMARK                            x       y       z     vdW  Elec       q    Type
REMARK                         _______ _______ _______ _____ _____    ______ ____
ROOT
ATOM      1  N   LIG    1       22.441 -16.837   4.569  0.00  0.00    -0.310 NA
ATOM      2  H   LIG    1       22.347 -16.538   5.538  0.00  0.00    +0.122 HD
ENDROOT
BRANCH   1   4
ATOM      3  C   LIG    1       20.941 -18.566   3.695  0.00  0.00    +0.024 C 
ATOM      4  C   LIG    1       22.266 -18.298   4.428  0.00  0.00    +0.055 C 
BRANCH   4   5
ATOM      5  C   LIG    1       23.477 -18.943   3.708  0.00  0.00    +0.053 C 
BRANCH   5   6
ATOM      6  C   LIG    1       24.448 -19.664   4.616  0.00  0.00    -0.042 A 
ATOM      7  C   LIG    1       25.823 -19.418   4.528  0.00  0.00    +0.053 A 
ATOM      8  C   LIG    1       26.659 -20.105   5.389  0.00  0.00    +0.167 A 
ATOM      9  O   LIG    1       28.009 -19.987   5.448  0.00  0.00    -0.453 OA
ATOM     10  C   LIG    1       28.308 -20.874   6.547  0.00  0.00    +0.466 C 
ATOM     11  O   LIG    1       27.147 -21.562   7.062  0.00  0.00    -0.453 OA
ATOM     12  C   LIG    1       26.163 -21.006   6.305  0.00  0.00    +0.166 A 
ATOM     13  C   LIG    1       24.826 -21.278   6.409  0.00  0.00    +0.050 A 
ATOM     14  C   LIG    1       23.954 -20.601   5.553  0.00  0.00    +0.007 A 
ENDBRANCH   5   6
ENDBRANCH   4   5
ENDBRANCH   1   4
BRANCH   1  15
ATOM     15  C   LIG    1       23.686 -16.300   3.970  0.00  0.00    +0.117 C 
BRANCH  15  16
ATOM     16  C   LIG    1       23.976 -14.806   4.283  0.00  0.00    +0.158 C 
BRANCH  16  17
ATOM     17  C   LIG    1       25.415 -14.384   4.049  0.00  0.00    -0.014 A 
ATOM     18  C   LIG    1       26.127 -13.710   5.057  0.00  0.00    +0.055 A 
ATOM     19  C   LIG    1       27.426 -13.278   4.816  0.00  0.00    +0.159 A 
ATOM     20  C   LIG    1       28.029 -13.475   3.580  0.00  0.00    +0.158 A 
ATOM     21  C   LIG    1       27.345 -14.127   2.564  0.00  0.00    +0.049 A 
ATOM     22  C   LIG    1       26.042 -14.576   2.803  0.00  0.00    +0.010 A 
BRANCH  19  23
ATOM     23  O   LIG    1       28.110 -12.643   5.814  0.00  0.00    -0.503 OA
ATOM     24  H   LIG    1       28.262 -13.340   6.484  0.00  0.00    +0.292 HD
ENDBRANCH  19  23
BRANCH  20  25
ATOM     25  O   LIG    1       29.299 -13.000   3.402  0.00  0.00    -0.503 OA
ATOM     26  H   LIG    1       29.681 -12.838   4.280  0.00  0.00    +0.292 HD
ENDBRANCH  20  25
ENDBRANCH  16  17
BRANCH  16  27
ATOM     27  O   LIG    1       23.086 -13.994   3.504  0.00  0.00    -0.386 OA
ATOM     28  H   LIG    1       23.649 -13.418   2.962  0.00  0.00    +0.210 HD
ENDBRANCH  16  27
ENDBRANCH  15  16
ENDBRANCH   1  15
TORSDOF 9
ENDMDL
MODEL 2
REMARK VINA RESULT:      -5.6      2.590      8.042
REMARK  Name = *****
REMARK                            x       y       z     vdW  Elec       q    Type
REMARK                         _______ _______ _______ _____ _____    ______ ____
ROOT
ATOM      1  N   LIG    1       28.302 -17.898   4.921  0.00  0.00    -0.310 NA
ATOM      2  H   LIG    1       28.132 -17.591   5.877  0.00  0.00    +0.122 HD
ENDROOT
BRANCH   1   4
ATOM      3  C   LIG    1       26.273 -17.312   3.678  0.00  0.00    +0.024 C 
ATOM      4  C   LIG    1       27.745 -16.948   3.934  0.00  0.00    +0.055 C 
BRANCH   4   5
ATOM      5  C   LIG    1       27.915 -15.482   4.407  0.00  0.00    +0.053 C 
BRANCH   5   6
ATOM      6  C   LIG    1       26.872 -14.520   3.885  0.00  0.00    -0.042 A 
ATOM      7  C   LIG    1       26.015 -13.850   4.766  0.00  0.00    +0.053 A 
ATOM      8  C   LIG    1       25.085 -12.980   4.228  0.00  0.00    +0.167 A 
ATOM      9  O   LIG    1       24.186 -12.246   4.929  0.00  0.00    -0.453 OA
ATOM     10  C   LIG    1       23.554 -11.507   3.862  0.00  0.00    +0.466 C 
ATOM     11  O   LIG    1       24.028 -11.874   2.549  0.00  0.00    -0.453 OA
ATOM     12  C   LIG    1       24.997 -12.775   2.869  0.00  0.00    +0.166 A 
ATOM     13  C   LIG    1       25.810 -13.422   1.980  0.00  0.00    +0.050 A 
ATOM     14  C   LIG    1       26.760 -14.309   2.491  0.00  0.00    +0.007 A 
ENDBRANCH   5   6
ENDBRANCH   4   5
ENDBRANCH   1   4
BRANCH   1  15
ATOM     15  C   LIG    1       27.876 -19.306   4.736  0.00  0.00    +0.117 C 
BRANCH  15  16
ATOM     16  C   LIG    1       27.259 -19.977   5.995  0.00  0.00    +0.158 C 
BRANCH  16  17
ATOM     17  C   LIG    1       25.831 -20.458   5.811  0.00  0.00    -0.014 A 
ATOM     18  C   LIG    1       25.301 -20.626   4.519  0.00  0.00    +0.055 A 
ATOM     19  C   LIG    1       23.976 -21.013   4.359  0.00  0.00    +0.159 A 
ATOM     20  C   LIG    1       23.149 -21.209   5.459  0.00  0.00    +0.158 A 
ATOM     21  C   LIG    1       23.643 -21.039   6.744  0.00  0.00    +0.049 A 
ATOM     22  C   LIG    1       24.979 -20.663   6.914  0.00  0.00    +0.010 A 
BRANCH  19  23
ATOM     23  O   LIG    1       23.485 -21.191   3.097  0.00  0.00    -0.503 OA
ATOM     24  H   LIG    1       24.165 -21.733   2.648  0.00  0.00    +0.292 HD
ENDBRANCH  19  23
BRANCH  20  25
ATOM     25  O   LIG    1       21.848 -21.562   5.229  0.00  0.00    -0.503 OA
ATOM     26  H   LIG    1       21.439 -20.859   4.698  0.00  0.00    +0.292 HD
ENDBRANCH  20  25
ENDBRANCH  16  17
BRANCH  16  27
ATOM     27  O   LIG    1       28.103 -21.065   6.395  0.00  0.00    -0.386 OA
ATOM     28  H   LIG    1       27.533 -21.848   6.444  0.00  0.00    +0.210 HD
ENDBRANCH  16  27
ENDBRANCH  15  16
ENDBRANCH   1  15
TORSDOF 9
ENDMDL
MODEL 3
REMARK VINA RESULT:      -5.2      1.721      6.482
REMARK  Name = *****
REMARK                            x       y       z     vdW  Elec       q    Type
REMARK                         _______ _______ _______ _____ _____    ______ ____
ROOT
ATOM      1  N   LIG    1       22.744 -19.100   5.038  0.00  0.00    -0.310 NA
ATOM      2  H   LIG    1       22.017 -19.275   5.730  0.00  0.00    +0.122 HD
ENDROOT
BRANCH   1   4
ATOM      3  C   LIG    1       20.903 -18.311   3.627  0.00  0.00    +0.024 C 
ATOM      4  C   LIG    1       22.347 -18.044   4.083  0.00  0.00    +0.055 C 
BRANCH   4   5
ATOM      5  C   LIG    1       22.517 -16.633   4.703  0.00  0.00    +0.053 C 
BRANCH   5   6
ATOM      6  C   LIG    1       23.667 -15.826   4.142  0.00  0.00    -0.042 A 
ATOM      7  C   LIG    1       23.520 -14.458   3.887  0.00  0.00    +0.053 A 
ATOM      8  C   LIG    1       24.608 -13.774   3.379  0.00  0.00    +0.167 A 
ATOM      9  O   LIG    1       24.647 -12.452   3.081  0.00  0.00    -0.453 OA
ATOM     10  C   LIG    1       26.023 -12.311   2.664  0.00  0.00    +0.466 C 
ATOM     11  O   LIG    1       26.747 -13.560   2.643  0.00  0.00    -0.453 OA
ATOM     12  C   LIG    1       25.803 -14.412   3.127  0.00  0.00    +0.166 A 
ATOM     13  C   LIG    1       25.976 -15.750   3.353  0.00  0.00    +0.050 A 
ATOM     14  C   LIG    1       24.895 -16.471   3.866  0.00  0.00    +0.007 A 
ENDBRANCH   5   6
ENDBRANCH   4   5
ENDBRANCH   1   4
BRANCH   1  15
ATOM     15  C   LIG    1       23.190 -20.368   4.412  0.00  0.00    +0.117 C 
BRANCH  15  16
ATOM     16  C   LIG    1       23.926 -21.350   5.365  0.00  0.00    +0.158 C 
BRANCH  16  17
ATOM     17  C   LIG    1       25.337 -20.928   5.731  0.00  0.00    -0.014 A 
ATOM     18  C   LIG    1       25.999 -19.942   4.977  0.00  0.00    +0.055 A 
ATOM     19  C   LIG    1       27.311 -19.601   5.284  0.00  0.00    +0.159 A 
ATOM     20  C   LIG    1       27.996 -20.240   6.309  0.00  0.00    +0.158 A 
ATOM     21  C   LIG    1       27.372 -21.224   7.061  0.00  0.00    +0.049 A 
ATOM     22  C   LIG    1       26.047 -21.564   6.768  0.00  0.00    +0.010 A 
BRANCH  19  23
ATOM     23  O   LIG    1       27.930 -18.626   4.553  0.00  0.00    -0.503 OA
ATOM     24  H   LIG    1       27.853 -18.932   3.627  0.00  0.00    +0.292 HD
ENDBRANCH  19  23
BRANCH  20  25
ATOM     25  O   LIG    1       29.294 -19.874   6.539  0.00  0.00    -0.503 OA
ATOM     26  H   LIG    1       29.416 -18.977   6.188  0.00  0.00    +0.292 HD
ENDBRANCH  20  25
ENDBRANCH  16  17
BRANCH  16  27
ATOM     27  O   LIG    1       23.134 -21.521   6.548  0.00  0.00    -0.386 OA
ATOM     28  H   LIG    1       23.758 -21.702   7.268  0.00  0.00    +0.210 HD
ENDBRANCH  16  27
ENDBRANCH  15  16
ENDBRANCH   1  15
TORSDOF 9
ENDMDL
MODEL 4
REMARK VINA RESULT:      -4.8      1.627      2.291
REMARK  Name = *****
REMARK                            x       y       z     vdW  Elec       q    Type
REMARK                         _______ _______ _______ _____ _____    ______ ____
ROOT
ATOM      1  N   LIG    1       23.553 -18.913   3.591  0.00  0.00    -0.310 NA
ATOM      2  H   LIG    1       22.851 -18.957   2.855  0.00  0.00    +0.122 HD
ENDROOT
BRANCH   1   4
ATOM      3  C   LIG    1       21.659 -20.039   4.664  0.00  0.00    +0.024 C 
ATOM      4  C   LIG    1       23.159 -19.715   4.769  0.00  0.00    +0.055 C 
BRANCH   4   5
ATOM      5  C   LIG    1       24.028 -20.991   4.898  0.00  0.00    +0.053 C 
BRANCH   5   6
ATOM      6  C   LIG    1       25.415 -20.763   5.456  0.00  0.00    -0.042 A 
ATOM      7  C   LIG    1       26.246 -19.772   4.920  0.00  0.00    +0.053 A 
ATOM      8  C   LIG    1       27.500 -19.609   5.476  0.00  0.00    +0.167 A 
ATOM      9  O   LIG    1       28.428 -18.698   5.090  0.00  0.00    -0.453 OA
ATOM     10  C   LIG    1       29.474 -18.958   6.051  0.00  0.00    +0.466 C 
ATOM     11  O   LIG    1       29.185 -20.067   6.930  0.00  0.00    -0.453 OA
ATOM     12  C   LIG    1       27.929 -20.395   6.523  0.00  0.00    +0.166 A 
ATOM     13  C   LIG    1       27.148 -21.381   7.062  0.00  0.00    +0.050 A 
ATOM     14  C   LIG    1       25.874 -21.572   6.522  0.00  0.00    +0.007 A 
ENDBRANCH   5   6
ENDBRANCH   4   5
ENDBRANCH   1   4
BRANCH   1  15
ATOM     15  C   LIG    1       23.917 -17.508   3.890  0.00  0.00    +0.117 C 
BRANCH  15  16
ATOM     16  C   LIG    1       25.095 -16.940   3.051  0.00  0.00    +0.158 C 
BRANCH  16  17
ATOM     17  C   LIG    1       25.680 -15.646   3.588  0.00  0.00    -0.014 A 
ATOM     18  C   LIG    1       27.029 -15.327   3.350  0.00  0.00    +0.055 A 
ATOM     19  C   LIG    1       27.572 -14.168   3.892  0.00  0.00    +0.159 A 
ATOM     20  C   LIG    1       26.811 -13.328   4.695  0.00  0.00    +0.158 A 
ATOM     21  C   LIG    1       25.481 -13.625   4.956  0.00  0.00    +0.049 A 
ATOM     22  C   LIG    1       24.923 -14.782   4.403  0.00  0.00    +0.010 A 
BRANCH  19  23
ATOM     23  O   LIG    1       28.878 -13.864   3.632  0.00  0.00    -0.503 OA
ATOM     24  H   LIG    1       29.020 -13.007   4.081  0.00  0.00    +0.292 HD
ENDBRANCH  19  23
BRANCH  20  25
ATOM     25  O   LIG    1       27.416 -12.219   5.219  0.00  0.00    -0.503 OA
ATOM     26  H   LIG    1       26.731 -11.542   5.351  0.00  0.00    +0.292 HD
ENDBRANCH  20  25
ENDBRANCH  16  17
BRANCH  16  27
ATOM     27  O   LIG    1       26.114 -17.944   2.953  0.00  0.00    -0.386 OA
ATOM     28  H   LIG    1       25.757 -18.636   2.373  0.00  0.00    +0.210 HD
ENDBRANCH  16  27
ENDBRANCH  15  16
ENDBRANCH   1  15
TORSDOF 9
ENDMDL
MODEL 5
REMARK VINA RESULT:      -3.9      2.356      4.445
REMARK  Name = *****
REMARK                            x       y       z     vdW  Elec       q    Type
REMARK                         _______ _______ _______ _____ _____    ______ ____
ROOT
ATOM      1  N   LIG    1       27.955 -17.588   4.454  0.00  0.00    -0.310 NA
ATOM      2  H   LIG    1       27.035 -18.021   4.506  0.00  0.00    +0.122 HD
ENDROOT
BRANCH   1   4
ATOM      3  C   LIG    1       29.260 -17.800   6.517  0.00  0.00    +0.024 C 
ATOM      4  C   LIG    1       28.983 -18.406   5.131  0.00  0.00    +0.055 C 
BRANCH   4   5
ATOM      5  C   LIG    1       28.554 -19.893   5.215  0.00  0.00    +0.053 C 
BRANCH   5   6
ATOM      6  C   LIG    1       27.085 -20.116   5.497  0.00  0.00    -0.042 A 
ATOM      7  C   LIG    1       26.120 -19.830   4.523  0.00  0.00    +0.053 A 
ATOM      8  C   LIG    1       24.794 -20.060   4.839  0.00  0.00    +0.167 A 
ATOM      9  O   LIG    1       23.734 -19.848   4.021  0.00  0.00    -0.453 OA
ATOM     10  C   LIG    1       22.653 -20.316   4.855  0.00  0.00    +0.466 C 
ATOM     11  O   LIG    1       23.079 -20.716   6.176  0.00  0.00    -0.453 OA
ATOM     12  C   LIG    1       24.426 -20.551   6.072  0.00  0.00    +0.166 A 
ATOM     13  C   LIG    1       25.341 -20.829   7.050  0.00  0.00    +0.050 A 
ATOM     14  C   LIG    1       26.690 -20.608   6.762  0.00  0.00    +0.007 A 
ENDBRANCH   5   6
ENDBRANCH   4   5
ENDBRANCH   1   4
BRANCH   1  15
ATOM     15  C   LIG    1       27.897 -16.173   4.895  0.00  0.00    +0.117 C 
BRANCH  15  16
ATOM     16  C   LIG    1       27.742 -15.133   3.751  0.00  0.00    +0.158 C 
BRANCH  16  17
ATOM     17  C   LIG    1       26.540 -14.218   3.897  0.00  0.00    -0.014 A 
ATOM     18  C   LIG    1       25.746 -13.910   2.777  0.00  0.00    +0.055 A 
ATOM     19  C   LIG    1       24.680 -13.027   2.906  0.00  0.00    +0.159 A 
ATOM     20  C   LIG    1       24.400 -12.416   4.122  0.00  0.00    +0.158 A 
ATOM     21  C   LIG    1       25.173 -12.693   5.239  0.00  0.00    +0.049 A 
ATOM     22  C   LIG    1       26.240 -13.590   5.121  0.00  0.00    +0.010 A 
BRANCH  19  23
ATOM     23  O   LIG    1       23.908 -12.757   1.812  0.00  0.00    -0.503 OA
ATOM     24  H   LIG    1       23.381 -11.976   2.076  0.00  0.00    +0.292 HD
ENDBRANCH  19  23
BRANCH  20  25
ATOM     25  O   LIG    1       23.353 -11.536   4.171  0.00  0.00    -0.503 OA
ATOM     26  H   LIG    1       22.532 -12.046   4.069  0.00  0.00    +0.292 HD
ENDBRANCH  20  25
ENDBRANCH  16  17
BRANCH  16  27
ATOM     27  O   LIG    1       28.948 -14.362   3.666  0.00  0.00    -0.386 OA
ATOM     28  H   LIG    1       28.731 -13.480   4.007  0.00  0.00    +0.210 HD
ENDBRANCH  16  27
ENDBRANCH  15  16
ENDBRANCH   1  15
TORSDOF 9
ENDMDL
MODEL 6
REMARK VINA RESULT:      -3.5      1.725      6.097
REMARK  Name = *****
REMARK                            x       y       z     vdW  Elec       q    Type
REMARK                         _______ _______ _______ _____ _____    ______ ____
ROOT
ATOM      1  N   LIG    1       22.358 -18.997   5.528  0.00  0.00    -0.310 NA
ATOM      2  H   LIG    1       21.428 -19.061   5.939  0.00  0.00    +0.122 HD
ENDROOT
BRANCH   1   4
ATOM      3  C   LIG    1       21.288 -18.504   3.380  0.00  0.00    +0.024 C 
ATOM      4  C   LIG    1       22.382 -18.075   4.373  0.00  0.00    +0.055 C 
BRANCH   4   5
ATOM      5  C   LIG    1       22.222 -16.602   4.824  0.00  0.00    +0.053 C 
BRANCH   5   6
ATOM      6  C   LIG    1       23.361 -15.688   4.430  0.00  0.00    -0.042 A 
ATOM      7  C   LIG    1       24.520 -16.206   3.840  0.00  0.00    +0.053 A 
ATOM      8  C   LIG    1       25.524 -15.320   3.497  0.00  0.00    +0.167 A 
ATOM      9  O   LIG    1       26.704 -15.643   2.913  0.00  0.00    -0.453 OA
ATOM     10  C   LIG    1       27.290 -14.334   2.749  0.00  0.00    +0.466 C 
ATOM     11  O   LIG    1       26.488 -13.272   3.311  0.00  0.00    -0.453 OA
ATOM     12  C   LIG    1       25.397 -13.968   3.730  0.00  0.00    +0.166 A 
ATOM     13  C   LIG    1       24.285 -13.431   4.317  0.00  0.00    +0.050 A 
ATOM     14  C   LIG    1       23.252 -14.300   4.675  0.00  0.00    +0.007 A 
ENDBRANCH   5   6
ENDBRANCH   4   5
ENDBRANCH   1   4
BRANCH   1  15
ATOM     15  C   LIG    1       22.909 -20.346   5.259  0.00  0.00    +0.117 C 
BRANCH  15  16
ATOM     16  C   LIG    1       24.180 -20.371   4.365  0.00  0.00    +0.158 C 
BRANCH  16  17
ATOM     17  C   LIG    1       25.486 -20.257   5.130  0.00  0.00    -0.014 A 
ATOM     18  C   LIG    1       26.533 -19.462   4.629  0.00  0.00    +0.055 A 
ATOM     19  C   LIG    1       27.745 -19.407   5.306  0.00  0.00    +0.159 A 
ATOM     20  C   LIG    1       27.955 -20.149   6.461  0.00  0.00    +0.158 A 
ATOM     21  C   LIG    1       26.944 -20.950   6.972  0.00  0.00    +0.049 A 
ATOM     22  C   LIG    1       25.716 -21.002   6.303  0.00  0.00    +0.010 A 
BRANCH  19  23
ATOM     23  O   LIG    1       28.743 -18.613   4.814  0.00  0.00    -0.503 OA
ATOM     24  H   LIG    1       28.649 -18.681   3.843  0.00  0.00    +0.292 HD
ENDBRANCH  19  23
BRANCH  20  25
ATOM     25  O   LIG    1       29.181 -20.069   7.062  0.00  0.00    -0.503 OA
ATOM     26  H   LIG    1       29.354 -20.920   7.498  0.00  0.00    +0.292 HD
ENDBRANCH  20  25
ENDBRANCH  16  17
BRANCH  16  27
ATOM     27  O   LIG    1       24.166 -21.572   3.581  0.00  0.00    -0.386 OA
ATOM     28  H   LIG    1       24.924 -21.512   2.979  0.00  0.00    +0.210 HD
ENDBRANCH  16  27
ENDBRANCH  15  16
ENDBRANCH   1  15
TORSDOF 9
ENDMDL
