MODEL 1
REMARK VINA RESULT:      -5.1      0.000      0.000
REMARK  Name = *****
REMARK                            x       y       z     vdW  Elec       q    Type
REMARK                         _______ _______ _______ _____ _____    ______ ____
ROOT
ATOM      1  O   LIG    1       27.478 -15.268   3.683  0.00  0.00    -0.270 OA
ATOM      2  C   LIG    1       26.280 -15.312   3.457  0.00  0.00    +0.246 C 
ATOM      3  N   LIG    1       25.577 -16.492   3.285  0.00  0.00    -0.308 N 
ATOM      4  H   LIG    1       24.625 -16.455   2.951  0.00  0.00    +0.149 HD
ENDROOT
BRANCH   2   5
ATOM      5  C   LIG    1       25.481 -14.063   3.333  0.00  0.00    +0.055 A 
ATOM      6  C   LIG    1       24.733 -13.608   4.412  0.00  0.00    +0.123 A 
ATOM      7  N   LIG    1       23.960 -12.490   4.377  0.00  0.00    -0.263 NA
ATOM      8  C   LIG    1       23.921 -11.811   3.209  0.00  0.00    +0.111 A 
ATOM      9  C   LIG    1       24.625 -12.190   2.078  0.00  0.00    +0.020 A 
ATOM     10  C   LIG    1       25.415 -13.337   2.142  0.00  0.00    +0.016 A 
ENDBRANCH   2   5
BRANCH   3  11
ATOM     11  C   LIG    1       26.207 -17.804   3.374  0.00  0.00    +0.153 C 
BRANCH  11  12
ATOM     12  C   LIG    1       25.208 -18.937   3.629  0.00  0.00    +0.339 C 
BRANCH  12  13
ATOM     13  O   LIG    1       23.866 -18.442   3.597  0.00  0.00    -0.215 OA
BRANCH  13  14
ATOM     14  N   LIG    1       22.967 -19.156   4.424  0.00  0.00    +0.284 N 
ATOM     15  O   LIG    1       23.420 -20.093   5.082  0.00  0.00    -0.534 OA
ATOM     16  O   LIG    1       21.814 -18.738   4.340  0.00  0.00    +0.093 OA
ENDBRANCH  13  14
ENDBRANCH  12  13
ENDBRANCH  11  12
ENDBRANCH   3  11
TORSDOF 5
ENDMDL
MODEL 2
REMARK VINA RESULT:      -5.1      0.826      1.303
REMARK  Name = *****
REMARK                            x       y       z     vdW  Elec       q    Type
REMARK                         _______ _______ _______ _____ _____    ______ ____
ROOT
ATOM      1  O   LIG    1       27.417 -15.282   3.649  0.00  0.00    -0.270 OA
ATOM      2  C   LIG    1       26.214 -15.341   3.461  0.00  0.00    +0.246 C 
ATOM      3  N   LIG    1       25.521 -16.530   3.308  0.00  0.00    -0.308 N 
ATOM      4  H   LIG    1       24.558 -16.505   3.005  0.00  0.00    +0.149 HD
ENDROOT
BRANCH   2   5
ATOM      5  C   LIG    1       25.395 -14.102   3.366  0.00  0.00    +0.055 A 
ATOM      6  C   LIG    1       25.341 -13.397   2.170  0.00  0.00    +0.123 A 
ATOM      7  N   LIG    1       24.635 -12.247   2.003  0.00  0.00    -0.263 NA
ATOM      8  C   LIG    1       23.973 -11.775   3.083  0.00  0.00    +0.111 A 
ATOM      9  C   LIG    1       23.975 -12.403   4.318  0.00  0.00    +0.020 A 
ATOM     10  C   LIG    1       24.700 -13.584   4.460  0.00  0.00    +0.016 A 
ENDBRANCH   2   5
BRANCH   3  11
ATOM     11  C   LIG    1       26.170 -17.834   3.373  0.00  0.00    +0.153 C 
BRANCH  11  12
ATOM     12  C   LIG    1       25.181 -19.003   3.352  0.00  0.00    +0.339 C 
BRANCH  12  13
ATOM     13  O   LIG    1       23.880 -18.568   3.760  0.00  0.00    -0.215 OA
BRANCH  13  14
ATOM     14  N   LIG    1       23.161 -19.527   4.512  0.00  0.00    +0.284 N 
ATOM     15  O   LIG    1       23.431 -20.714   4.329  0.00  0.00    -0.534 OA
ATOM     16  O   LIG    1       22.319 -19.016   5.248  0.00  0.00    +0.093 OA
ENDBRANCH  13  14
ENDBRANCH  12  13
ENDBRANCH  11  12
ENDBRANCH   3  11
TORSDOF 5
ENDMDL
MODEL 3
REMARK VINA RESULT:      -5.1      1.410      1.427
REMARK  Name = *****
REMARK                            x       y       z     vdW  Elec       q    Type
REMARK                         _______ _______ _______ _____ _____    ______ ____
ROOT
ATOM      1  O   LIG    1       27.455 -15.291   3.672  0.00  0.00    -0.270 OA
ATOM      2  C   LIG    1       26.255 -15.322   3.457  0.00  0.00    +0.246 C 
ATOM      3  N   LIG    1       25.539 -16.494   3.280  0.00  0.00    -0.308 N 
ATOM      4  H   LIG    1       24.584 -16.445   2.956  0.00  0.00    +0.149 HD
ENDROOT
BRANCH   2   5
ATOM      5  C   LIG    1       25.466 -14.065   3.353  0.00  0.00    +0.055 A 
ATOM      6  C   LIG    1       24.753 -13.601   4.452  0.00  0.00    +0.123 A 
ATOM      7  N   LIG    1       23.991 -12.475   4.436  0.00  0.00    -0.263 NA
ATOM      8  C   LIG    1       23.928 -11.796   3.269  0.00  0.00    +0.111 A 
ATOM      9  C   LIG    1       24.597 -12.184   2.119  0.00  0.00    +0.020 A 
ATOM     10  C   LIG    1       25.376 -13.339   2.164  0.00  0.00    +0.016 A 
ENDBRANCH   2   5
BRANCH   3  11
ATOM     11  C   LIG    1       26.157 -17.813   3.350  0.00  0.00    +0.153 C 
BRANCH  11  12
ATOM     12  C   LIG    1       25.151 -18.939   3.605  0.00  0.00    +0.339 C 
BRANCH  12  13
ATOM     13  O   LIG    1       25.761 -20.000   4.345  0.00  0.00    -0.215 OA
BRANCH  13  14
ATOM     14  N   LIG    1       24.848 -20.781   5.093  0.00  0.00    +0.284 N 
ATOM     15  O   LIG    1       24.845 -20.641   6.316  0.00  0.00    -0.534 OA
ATOM     16  O   LIG    1       24.183 -21.537   4.386  0.00  0.00    +0.093 OA
ENDBRANCH  13  14
ENDBRANCH  12  13
ENDBRANCH  11  12
ENDBRANCH   3  11
TORSDOF 5
ENDMDL
MODEL 4
REMARK VINA RESULT:      -4.7      1.689      2.059
REMARK  Name = *****
REMARK                            x       y       z     vdW  Elec       q    Type
REMARK                         _______ _______ _______ _____ _____    ______ ____
ROOT
ATOM      1  O   LIG    1       27.409 -16.779   3.640  0.00  0.00    -0.270 OA
ATOM      2  C   LIG    1       26.218 -16.569   3.484  0.00  0.00    +0.246 C 
ATOM      3  N   LIG    1       25.264 -17.571   3.437  0.00  0.00    -0.308 N 
ATOM      4  H   LIG    1       24.322 -17.343   3.154  0.00  0.00    +0.149 HD
ENDROOT
BRANCH   2   5
ATOM      5  C   LIG    1       25.705 -15.183   3.313  0.00  0.00    +0.055 A 
ATOM      6  C   LIG    1       26.439 -14.257   2.582  0.00  0.00    +0.123 A 
ATOM      7  N   LIG    1       26.053 -12.967   2.395  0.00  0.00    -0.263 NA
ATOM      8  C   LIG    1       24.896 -12.584   2.979  0.00  0.00    +0.111 A 
ATOM      9  C   LIG    1       24.101 -13.432   3.734  0.00  0.00    +0.020 A 
ATOM     10  C   LIG    1       24.516 -14.752   3.904  0.00  0.00    +0.016 A 
ENDBRANCH   2   5
BRANCH   3  11
ATOM     11  C   LIG    1       25.596 -18.983   3.586  0.00  0.00    +0.153 C 
BRANCH  11  12
ATOM     12  C   LIG    1       24.364 -19.892   3.632  0.00  0.00    +0.339 C 
BRANCH  12  13
ATOM     13  O   LIG    1       24.568 -20.969   4.552  0.00  0.00    -0.215 OA
BRANCH  13  14
ATOM     14  N   LIG    1       24.135 -20.691   5.870  0.00  0.00    +0.284 N 
ATOM     15  O   LIG    1       24.997 -20.596   6.745  0.00  0.00    -0.534 OA
ATOM     16  O   LIG    1       22.912 -20.609   5.959  0.00  0.00    +0.093 OA
ENDBRANCH  13  14
ENDBRANCH  12  13
ENDBRANCH  11  12
ENDBRANCH   3  11
TORSDOF 5
ENDMDL
MODEL 5
REMARK VINA RESULT:      -4.6      5.019      6.158
REMARK  Name = *****
REMARK                            x       y       z     vdW  Elec       q    Type
REMARK                         _______ _______ _______ _____ _____    ______ ____
ROOT
ATOM      1  O   LIG    1       25.502 -19.141   3.780  0.00  0.00    -0.270 OA
ATOM      2  C   LIG    1       25.725 -20.005   4.612  0.00  0.00    +0.246 C 
ATOM      3  N   LIG    1       24.825 -21.008   4.934  0.00  0.00    -0.308 N 
ATOM      4  H   LIG    1       25.007 -21.596   5.733  0.00  0.00    +0.149 HD
ENDROOT
BRANCH   2   5
ATOM      5  C   LIG    1       27.008 -20.027   5.364  0.00  0.00    +0.055 A 
ATOM      6  C   LIG    1       27.237 -21.012   6.317  0.00  0.00    +0.123 A 
ATOM      7  N   LIG    1       28.371 -21.092   7.062  0.00  0.00    -0.263 NA
ATOM      8  C   LIG    1       29.305 -20.137   6.857  0.00  0.00    +0.111 A 
ATOM      9  C   LIG    1       29.164 -19.111   5.936  0.00  0.00    +0.020 A 
ATOM     10  C   LIG    1       27.994 -19.056   5.180  0.00  0.00    +0.016 A 
ENDBRANCH   2   5
BRANCH   3  11
ATOM     11  C   LIG    1       23.522 -21.132   4.292  0.00  0.00    +0.153 C 
BRANCH  11  12
ATOM     12  C   LIG    1       22.360 -20.717   5.199  0.00  0.00    +0.339 C 
BRANCH  12  13
ATOM     13  O   LIG    1       22.451 -19.328   5.529  0.00  0.00    -0.215 OA
BRANCH  13  14
ATOM     14  N   LIG    1       21.967 -18.462   4.520  0.00  0.00    +0.284 N 
ATOM     15  O   LIG    1       21.172 -18.928   3.703  0.00  0.00    -0.534 OA
ATOM     16  O   LIG    1       22.451 -17.334   4.592  0.00  0.00    +0.093 OA
ENDBRANCH  13  14
ENDBRANCH  12  13
ENDBRANCH  11  12
ENDBRANCH   3  11
TORSDOF 5
ENDMDL
MODEL 6
REMARK VINA RESULT:      -4.5      2.308      6.383
REMARK  Name = *****
REMARK                            x       y       z     vdW  Elec       q    Type
REMARK                         _______ _______ _______ _____ _____    ______ ____
ROOT
ATOM      1  O   LIG    1       21.393 -17.405   4.378  0.00  0.00    -0.270 OA
ATOM      2  C   LIG    1       22.602 -17.562   4.412  0.00  0.00    +0.246 C 
ATOM      3  N   LIG    1       23.510 -16.517   4.383  0.00  0.00    -0.308 N 
ATOM      4  H   LIG    1       24.492 -16.719   4.260  0.00  0.00    +0.149 HD
ENDROOT
BRANCH   2   5
ATOM      5  C   LIG    1       23.193 -18.926   4.471  0.00  0.00    +0.055 A 
ATOM      6  C   LIG    1       24.286 -19.243   3.674  0.00  0.00    +0.123 A 
ATOM      7  N   LIG    1       24.873 -20.470   3.652  0.00  0.00    -0.263 NA
ATOM      8  C   LIG    1       24.332 -21.420   4.445  0.00  0.00    +0.111 A 
ATOM      9  C   LIG    1       23.237 -21.201   5.267  0.00  0.00    +0.020 A 
ATOM     10  C   LIG    1       22.659 -19.933   5.276  0.00  0.00    +0.016 A 
ENDBRANCH   2   5
BRANCH   3  11
ATOM     11  C   LIG    1       23.101 -15.119   4.325  0.00  0.00    +0.153 C 
BRANCH  11  12
ATOM     12  C   LIG    1       24.120 -14.219   3.618  0.00  0.00    +0.339 C 
BRANCH  12  13
ATOM     13  O   LIG    1       25.448 -14.532   4.047  0.00  0.00    -0.215 OA
BRANCH  13  14
ATOM     14  N   LIG    1       26.255 -15.119   3.043  0.00  0.00    +0.284 N 
ATOM     15  O   LIG    1       26.697 -14.380   2.163  0.00  0.00    -0.534 OA
ATOM     16  O   LIG    1       26.380 -16.334   3.187  0.00  0.00    +0.093 OA
ENDBRANCH  13  14
ENDBRANCH  12  13
ENDBRANCH  11  12
ENDBRANCH   3  11
TORSDOF 5
ENDMDL
MODEL 7
REMARK VINA RESULT:      -4.3      5.101      6.448
REMARK  Name = *****
REMARK                            x       y       z     vdW  Elec       q    Type
REMARK                         _______ _______ _______ _____ _____    ______ ____
ROOT
ATOM      1  O   LIG    1       24.617 -20.938   6.826  0.00  0.00    -0.270 OA
ATOM      2  C   LIG    1       25.371 -20.872   5.870  0.00  0.00    +0.246 C 
ATOM      3  N   LIG    1       24.986 -21.157   4.571  0.00  0.00    -0.308 N 
ATOM      4  H   LIG    1       25.691 -21.231   3.852  0.00  0.00    +0.149 HD
ENDROOT
BRANCH   2   5
ATOM      5  C   LIG    1       26.796 -20.487   6.049  0.00  0.00    +0.055 A 
ATOM      6  C   LIG    1       27.346 -19.482   5.263  0.00  0.00    +0.123 A 
ATOM      7  N   LIG    1       28.643 -19.082   5.346  0.00  0.00    -0.263 NA
ATOM      8  C   LIG    1       29.425 -19.727   6.241  0.00  0.00    +0.111 A 
ATOM      9  C   LIG    1       28.969 -20.747   7.062  0.00  0.00    +0.020 A 
ATOM     10  C   LIG    1       27.634 -21.132   6.961  0.00  0.00    +0.016 A 
ENDBRANCH   2   5
BRANCH   3  11
ATOM     11  C   LIG    1       23.626 -21.550   4.221  0.00  0.00    +0.153 C 
BRANCH  11  12
ATOM     12  C   LIG    1       22.555 -20.760   4.979  0.00  0.00    +0.339 C 
BRANCH  12  13
ATOM     13  O   LIG    1       22.037 -19.705   4.163  0.00  0.00    -0.215 OA
BRANCH  13  14
ATOM     14  N   LIG    1       22.795 -18.511   4.215  0.00  0.00    +0.284 N 
ATOM     15  O   LIG    1       23.936 -18.539   3.752  0.00  0.00    -0.534 OA
ATOM     16  O   LIG    1       22.190 -17.591   4.762  0.00  0.00    +0.093 OA
ENDBRANCH  13  14
ENDBRANCH  12  13
ENDBRANCH  11  12
ENDBRANCH   3  11
TORSDOF 5
ENDMDL
MODEL 8
REMARK VINA RESULT:      -4.3      2.327      2.876
REMARK  Name = *****
REMARK                            x       y       z     vdW  Elec       q    Type
REMARK                         _______ _______ _______ _____ _____    ______ ____
ROOT
ATOM      1  O   LIG    1       27.246 -17.084   3.655  0.00  0.00    -0.270 OA
ATOM      2  C   LIG    1       26.072 -16.815   3.464  0.00  0.00    +0.246 C 
ATOM      3  N   LIG    1       25.090 -17.772   3.270  0.00  0.00    -0.308 N 
ATOM      4  H   LIG    1       24.172 -17.482   2.967  0.00  0.00    +0.149 HD
ENDROOT
BRANCH   2   5
ATOM      5  C   LIG    1       25.612 -15.401   3.411  0.00  0.00    +0.055 A 
ATOM      6  C   LIG    1       26.408 -14.436   2.806  0.00  0.00    +0.123 A 
ATOM      7  N   LIG    1       26.073 -13.120   2.733  0.00  0.00    -0.263 NA
ATOM      8  C   LIG    1       24.904 -12.754   3.304  0.00  0.00    +0.111 A 
ATOM      9  C   LIG    1       24.049 -13.642   3.937  0.00  0.00    +0.020 A 
ATOM     10  C   LIG    1       24.413 -14.986   3.992  0.00  0.00    +0.016 A 
ENDBRANCH   2   5
BRANCH   3  11
ATOM     11  C   LIG    1       25.369 -19.202   3.290  0.00  0.00    +0.153 C 
BRANCH  11  12
ATOM     12  C   LIG    1       24.914 -19.888   4.583  0.00  0.00    +0.339 C 
BRANCH  12  13
ATOM     13  O   LIG    1       25.898 -20.827   5.026  0.00  0.00    -0.215 OA
BRANCH  13  14
ATOM     14  N   LIG    1       26.841 -20.289   5.933  0.00  0.00    +0.284 N 
ATOM     15  O   LIG    1       27.979 -20.076   5.513  0.00  0.00    -0.534 OA
ATOM     16  O   LIG    1       26.377 -20.133   7.061  0.00  0.00    +0.093 OA
ENDBRANCH  13  14
ENDBRANCH  12  13
ENDBRANCH  11  12
ENDBRANCH   3  11
TORSDOF 5
ENDMDL
MODEL 9
REMARK VINA RESULT:      -4.3      2.121      2.939
REMARK  Name = *****
REMARK                            x       y       z     vdW  Elec       q    Type
REMARK                         _______ _______ _______ _____ _____    ______ ____
ROOT
ATOM      1  O   LIG    1       22.493 -15.124   5.463  0.00  0.00    -0.270 OA
ATOM      2  C   LIG    1       23.170 -15.559   4.546  0.00  0.00    +0.246 C 
ATOM      3  N   LIG    1       23.070 -16.855   4.070  0.00  0.00    -0.308 N 
ATOM      4  H   LIG    1       23.760 -17.195   3.416  0.00  0.00    +0.149 HD
ENDROOT
BRANCH   2   5
ATOM      5  C   LIG    1       24.184 -14.702   3.874  0.00  0.00    +0.055 A 
ATOM      6  C   LIG    1       23.835 -13.432   3.433  0.00  0.00    +0.123 A 
ATOM      7  N   LIG    1       24.693 -12.594   2.792  0.00  0.00    -0.263 NA
ATOM      8  C   LIG    1       25.944 -13.054   2.569  0.00  0.00    +0.111 A 
ATOM      9  C   LIG    1       26.381 -14.308   2.964  0.00  0.00    +0.020 A 
ATOM     10  C   LIG    1       25.484 -15.145   3.625  0.00  0.00    +0.016 A 
ENDBRANCH   2   5
BRANCH   3  11
ATOM     11  C   LIG    1       22.128 -17.824   4.615  0.00  0.00    +0.153 C 
BRANCH  11  12
ATOM     12  C   LIG    1       22.748 -19.206   4.847  0.00  0.00    +0.339 C 
BRANCH  12  13
ATOM     13  O   LIG    1       23.503 -19.616   3.702  0.00  0.00    -0.215 OA
BRANCH  13  14
ATOM     14  N   LIG    1       24.904 -19.595   3.897  0.00  0.00    +0.284 N 
ATOM     15  O   LIG    1       25.523 -18.615   3.482  0.00  0.00    -0.534 OA
ATOM     16  O   LIG    1       25.320 -20.612   4.449  0.00  0.00    +0.093 OA
ENDBRANCH  13  14
ENDBRANCH  12  13
ENDBRANCH  11  12
ENDBRANCH   3  11
TORSDOF 5
ENDMDL
