MODEL 1
REMARK VINA RESULT:      -8.9      0.000      0.000
REMARK  Name = *****
REMARK                            x       y       z     vdW  Elec       q    Type
REMARK                         _______ _______ _______ _____ _____    ______ ____
ROOT
ATOM      1  C   LIG    1       25.158 -28.332   6.773  0.00  0.00    +0.080 C 
ENDROOT
BRANCH   1   3
ATOM      2  C   LIG    1       25.999 -28.777   9.064  0.00  0.00    +0.234 C 
ATOM      3  N   LIG    1       24.935 -28.631   8.197  0.00  0.00    -0.310 N 
ATOM      4  H   LIG    1       23.994 -28.853   8.499  0.00  0.00    +0.149 HD
ATOM      5  O   LIG    1       27.169 -28.593   8.728  0.00  0.00    -0.274 OA
BRANCH   2   6
ATOM      6  C   LIG    1       25.632 -29.119  10.517  0.00  0.00    +0.163 C 
BRANCH   6   9
ATOM      7  N   LIG    1       23.570 -31.651  10.077  0.00  0.00    -0.283 N 
ATOM      8  C   LIG    1       24.919 -31.716  10.338  0.00  0.00    +0.303 C 
ATOM      9  N   LIG    1       25.706 -30.635  10.591  0.00  0.00    -0.288 N 
ATOM     10  H   LIG    1       26.641 -30.963  10.331  0.00  0.00    +0.151 HD
ATOM     11  O   LIG    1       25.505 -32.805  10.262  0.00  0.00    -0.253 OA
ATOM     12  C   LIG    1       23.160 -32.677   9.110  0.00  0.00    +0.134 C 
BRANCH   7  13
ATOM     13  C   LIG    1       22.747 -30.438  10.119  0.00  0.00    +0.165 C 
BRANCH  13  17
ATOM     14  C   LIG    1       21.483 -28.732  13.000  0.00  0.00    +0.081 A 
ATOM     15  S   LIG    1       20.472 -30.071  13.362  0.00  0.00    -0.080 S 
ATOM     16  C   LIG    1       21.371 -31.022  12.249  0.00  0.00    +0.071 A 
ATOM     17  C   LIG    1       22.188 -30.198  11.495  0.00  0.00    +0.066 A 
ATOM     18  N   LIG    1       22.356 -28.924  12.034  0.00  0.00    -0.247 NA
BRANCH  14  20
ATOM     19  C   LIG    1       22.440 -26.518  13.302  0.00  0.00    +0.014 C 
ATOM     20  C   LIG    1       21.386 -27.491  13.829  0.00  0.00    +0.038 C 
ATOM     21  C   LIG    1       19.967 -26.921  13.817  0.00  0.00    +0.014 C 
ENDBRANCH  14  20
ENDBRANCH  13  17
ENDBRANCH   7  13
ENDBRANCH   6   9
BRANCH   6  22
ATOM     22  C   LIG    1       26.600 -28.330  11.513  0.00  0.00    +0.012 C 
ATOM     23  C   LIG    1       27.814 -29.068  12.176  0.00  0.00    +0.009 C 
ATOM     24  C   LIG    1       25.879 -27.725  12.730  0.00  0.00    +0.009 C 
ENDBRANCH   6  22
ENDBRANCH   2   6
ENDBRANCH   1   3
BRANCH   1  25
ATOM     25  C   LIG    1       24.733 -26.877   6.457  0.00  0.00    +0.056 C 
BRANCH  25  26
ATOM     26  C   LIG    1       25.735 -25.719   6.658  0.00  0.00    +0.137 C 
BRANCH  26  27
ATOM     27  O   LIG    1       26.733 -25.847   5.637  0.00  0.00    -0.390 OA
ATOM     28  H   LIG    1       27.606 -25.769   6.061  0.00  0.00    +0.210 HD
ENDBRANCH  26  27
BRANCH  26  29
ATOM     29  C   LIG    1       25.281 -24.215   6.760  0.00  0.00    +0.109 C 
BRANCH  29  30
ATOM     30  N   LIG    1       26.309 -23.396   7.432  0.00  0.00    -0.276 N 
ATOM     31  H   LIG    1       27.200 -23.397   7.052  0.00  0.00    +0.152 HD
ATOM     32  C   LIG    1       26.285 -22.295   8.171  0.00  0.00    +0.401 C 
ATOM     33  O   LIG    1       25.343 -21.926   8.943  0.00  0.00    -0.227 OA
BRANCH  32  34
ATOM     34  O   LIG    1       27.370 -21.553   7.939  0.00  0.00    -0.445 OA
BRANCH  34  35
ATOM     35  C   LIG    1       27.435 -20.744   6.746  0.00  0.00    +0.278 C 
BRANCH  35  36
ATOM     36  C   LIG    1       28.752 -20.020   6.752  0.00  0.00    +0.046 A 
ATOM     37  S   LIG    1       30.001 -20.415   7.868  0.00  0.00    -0.077 S 
ATOM     38  C   LIG    1       31.055 -19.328   7.061  0.00  0.00    +0.156 A 
ATOM     39  N   LIG    1       30.497 -18.571   6.146  0.00  0.00    -0.255 NA
ATOM     40  C   LIG    1       29.175 -18.946   5.993  0.00  0.00    +0.125 A 
ENDBRANCH  35  36
ENDBRANCH  34  35
ENDBRANCH  32  34
ENDBRANCH  29  30
BRANCH  29  41
ATOM     41  C   LIG    1       24.743 -23.648   5.365  0.00  0.00    +0.060 C 
BRANCH  41  42
ATOM     42  C   LIG    1       24.315 -22.178   5.296  0.00  0.00    -0.045 A 
ATOM     43  C   LIG    1       23.300 -21.692   6.119  0.00  0.00    +0.003 A 
ATOM     44  C   LIG    1       22.654 -20.475   5.905  0.00  0.00    +0.000 A 
ATOM     45  C   LIG    1       23.059 -19.660   4.869  0.00  0.00    +0.000 A 
ATOM     46  C   LIG    1       24.141 -20.056   4.087  0.00  0.00    +0.000 A 
ATOM     47  C   LIG    1       24.760 -21.309   4.287  0.00  0.00    +0.003 A 
ENDBRANCH  41  42
ENDBRANCH  29  41
ENDBRANCH  26  29
ENDBRANCH  25  26
ENDBRANCH   1  25
BRANCH   1  48
ATOM     48  C   LIG    1       24.776 -29.572   5.927  0.00  0.00    +0.057 C 
BRANCH  48  49
ATOM     49  C   LIG    1       25.582 -30.866   5.814  0.00  0.00    -0.046 A 
ATOM     50  C   LIG    1       26.095 -31.631   6.870  0.00  0.00    +0.003 A 
ATOM     51  C   LIG    1       26.774 -32.831   6.715  0.00  0.00    +0.000 A 
ATOM     52  C   LIG    1       26.974 -33.323   5.447  0.00  0.00    +0.000 A 
ATOM     53  C   LIG    1       26.452 -32.623   4.364  0.00  0.00    +0.000 A 
ATOM     54  C   LIG    1       25.733 -31.437   4.549  0.00  0.00    +0.003 A 
ENDBRANCH  48  49
ENDBRANCH   1  48
TORSDOF 19
ENDMDL
MODEL 2
REMARK VINA RESULT:      -8.6      1.654      2.195
REMARK  Name = *****
REMARK                            x       y       z     vdW  Elec       q    Type
REMARK                         _______ _______ _______ _____ _____    ______ ____
ROOT
ATOM      1  C   LIG    1       25.088 -27.812   6.518  0.00  0.00    +0.080 C 
ENDROOT
BRANCH   1   3
ATOM      2  C   LIG    1       25.927 -28.574   8.726  0.00  0.00    +0.234 C 
ATOM      3  N   LIG    1       24.870 -28.378   7.860  0.00  0.00    -0.310 N 
ATOM      4  H   LIG    1       23.950 -28.739   8.084  0.00  0.00    +0.149 HD
ATOM      5  O   LIG    1       27.079 -28.223   8.470  0.00  0.00    -0.274 OA
BRANCH   2   6
ATOM      6  C   LIG    1       25.568 -29.201  10.083  0.00  0.00    +0.163 C 
BRANCH   6   9
ATOM      7  N   LIG    1       23.480 -31.742   9.889  0.00  0.00    -0.283 N 
ATOM      8  C   LIG    1       24.840 -31.769   9.683  0.00  0.00    +0.303 C 
ATOM      9  N   LIG    1       25.664 -30.701   9.856  0.00  0.00    -0.288 N 
ATOM     10  H   LIG    1       26.462 -30.923   9.253  0.00  0.00    +0.151 HD
ATOM     11  O   LIG    1       25.370 -32.793   9.228  0.00  0.00    -0.253 OA
ATOM     12  C   LIG    1       22.776 -32.614   8.941  0.00  0.00    +0.134 C 
BRANCH   7  13
ATOM     13  C   LIG    1       22.715 -30.606  10.413  0.00  0.00    +0.165 C 
BRANCH  13  17
ATOM     14  C   LIG    1       19.364 -31.693  11.041  0.00  0.00    +0.081 A 
ATOM     15  S   LIG    1       19.906 -32.625  12.378  0.00  0.00    -0.080 S 
ATOM     16  C   LIG    1       21.404 -31.785  12.326  0.00  0.00    +0.071 A 
ATOM     17  C   LIG    1       21.485 -31.061  11.149  0.00  0.00    +0.066 A 
ATOM     18  N   LIG    1       20.261 -30.895  10.504  0.00  0.00    -0.247 NA
BRANCH  14  20
ATOM     19  C   LIG    1       17.098 -31.236  11.794  0.00  0.00    +0.014 C 
ATOM     20  C   LIG    1       17.928 -31.768  10.627  0.00  0.00    +0.038 C 
ATOM     21  C   LIG    1       17.687 -31.021   9.315  0.00  0.00    +0.014 C 
ENDBRANCH  14  20
ENDBRANCH  13  17
ENDBRANCH   7  13
ENDBRANCH   6   9
BRANCH   6  22
ATOM     22  C   LIG    1       26.526 -28.609  11.216  0.00  0.00    +0.012 C 
ATOM     23  C   LIG    1       27.676 -29.493  11.811  0.00  0.00    +0.009 C 
ATOM     24  C   LIG    1       25.782 -28.144  12.478  0.00  0.00    +0.009 C 
ENDBRANCH   6  22
ENDBRANCH   2   6
ENDBRANCH   1   3
BRANCH   1  25
ATOM     25  C   LIG    1       24.670 -26.321   6.490  0.00  0.00    +0.056 C 
BRANCH  25  26
ATOM     26  C   LIG    1       25.720 -25.220   6.753  0.00  0.00    +0.137 C 
BRANCH  26  27
ATOM     27  O   LIG    1       26.800 -25.445   5.838  0.00  0.00    -0.390 OA
ATOM     28  H   LIG    1       27.625 -25.486   6.355  0.00  0.00    +0.210 HD
ENDBRANCH  26  27
BRANCH  26  29
ATOM     29  C   LIG    1       25.355 -23.688   6.764  0.00  0.00    +0.109 C 
BRANCH  29  30
ATOM     30  N   LIG    1       26.404 -22.899   7.440  0.00  0.00    -0.276 N 
ATOM     31  H   LIG    1       27.242 -22.778   6.972  0.00  0.00    +0.152 HD
ATOM     32  C   LIG    1       26.400 -21.921   8.336  0.00  0.00    +0.401 C 
ATOM     33  O   LIG    1       25.533 -21.739   9.250  0.00  0.00    -0.227 OA
BRANCH  32  34
ATOM     34  O   LIG    1       27.404 -21.073   8.106  0.00  0.00    -0.445 OA
BRANCH  34  35
ATOM     35  C   LIG    1       28.533 -21.507   7.319  0.00  0.00    +0.278 C 
BRANCH  35  36
ATOM     36  C   LIG    1       29.761 -20.829   7.862  0.00  0.00    +0.046 A 
ATOM     37  S   LIG    1       30.237 -19.260   7.340  0.00  0.00    -0.077 S 
ATOM     38  C   LIG    1       31.477 -19.251   8.527  0.00  0.00    +0.156 A 
ATOM     39  N   LIG    1       31.672 -20.388   9.152  0.00  0.00    -0.255 NA
ATOM     40  C   LIG    1       30.711 -21.297   8.748  0.00  0.00    +0.125 A 
ENDBRANCH  35  36
ENDBRANCH  34  35
ENDBRANCH  32  34
ENDBRANCH  29  30
BRANCH  29  41
ATOM     41  C   LIG    1       24.908 -23.160   5.323  0.00  0.00    +0.060 C 
BRANCH  41  42
ATOM     42  C   LIG    1       24.378 -21.727   5.208  0.00  0.00    -0.045 A 
ATOM     43  C   LIG    1       23.268 -21.315   5.943  0.00  0.00    +0.003 A 
ATOM     44  C   LIG    1       22.553 -20.151   5.669  0.00  0.00    +0.000 A 
ATOM     45  C   LIG    1       22.976 -19.312   4.660  0.00  0.00    +0.000 A 
ATOM     46  C   LIG    1       24.143 -19.627   3.969  0.00  0.00    +0.000 A 
ATOM     47  C   LIG    1       24.836 -20.830   4.228  0.00  0.00    +0.003 A 
ENDBRANCH  41  42
ENDBRANCH  29  41
ENDBRANCH  26  29
ENDBRANCH  25  26
ENDBRANCH   1  25
BRANCH   1  48
ATOM     48  C   LIG    1       24.697 -28.865   5.452  0.00  0.00    +0.057 C 
BRANCH  48  49
ATOM     49  C   LIG    1       24.926 -30.372   5.551  0.00  0.00    -0.046 A 
ATOM     50  C   LIG    1       26.160 -31.033   5.601  0.00  0.00    +0.003 A 
ATOM     51  C   LIG    1       26.314 -32.405   5.748  0.00  0.00    +0.000 A 
ATOM     52  C   LIG    1       25.192 -33.192   5.847  0.00  0.00    +0.000 A 
ATOM     53  C   LIG    1       23.941 -32.585   5.842  0.00  0.00    +0.000 A 
ATOM     54  C   LIG    1       23.813 -31.195   5.737  0.00  0.00    +0.003 A 
ENDBRANCH  48  49
ENDBRANCH   1  48
TORSDOF 19
ENDMDL
MODEL 3
REMARK VINA RESULT:      -7.1      2.401      6.107
REMARK  Name = *****
REMARK                            x       y       z     vdW  Elec       q    Type
REMARK                         _______ _______ _______ _____ _____    ______ ____
ROOT
ATOM      1  C   LIG    1       25.520 -24.063   6.595  0.00  0.00    +0.080 C 
ENDROOT
BRANCH   1   3
ATOM      2  C   LIG    1       26.253 -26.421   6.341  0.00  0.00    +0.234 C 
ATOM      3  N   LIG    1       25.618 -25.448   7.087  0.00  0.00    -0.310 N 
ATOM      4  H   LIG    1       25.099 -25.699   7.921  0.00  0.00    +0.149 HD
ATOM      5  O   LIG    1       26.833 -26.182   5.281  0.00  0.00    -0.274 OA
BRANCH   2   6
ATOM      6  C   LIG    1       26.258 -27.831   6.952  0.00  0.00    +0.163 C 
BRANCH   6   9
ATOM      7  N   LIG    1       26.730 -29.657   9.653  0.00  0.00    -0.283 N 
ATOM      8  C   LIG    1       26.551 -28.294   9.594  0.00  0.00    +0.303 C 
ATOM      9  N   LIG    1       26.279 -27.604   8.455  0.00  0.00    -0.288 N 
ATOM     10  H   LIG    1       26.611 -26.659   8.671  0.00  0.00    +0.151 HD
ATOM     11  O   LIG    1       26.724 -27.610  10.613  0.00  0.00    -0.253 OA
ATOM     12  C   LIG    1       27.730 -30.024  10.663  0.00  0.00    +0.134 C 
BRANCH   7  13
ATOM     13  C   LIG    1       26.568 -30.592   8.535  0.00  0.00    +0.165 C 
BRANCH  13  17
ATOM     14  C   LIG    1       23.258 -31.655   9.382  0.00  0.00    +0.081 A 
ATOM     15  S   LIG    1       23.294 -32.812   8.115  0.00  0.00    -0.080 S 
ATOM     16  C   LIG    1       24.993 -32.590   7.992  0.00  0.00    +0.071 A 
ATOM     17  C   LIG    1       25.365 -31.475   8.723  0.00  0.00    +0.066 A 
ATOM     18  N   LIG    1       24.398 -31.046   9.629  0.00  0.00    -0.247 NA
BRANCH  14  20
ATOM     19  C   LIG    1       21.744 -32.775  10.920  0.00  0.00    +0.014 C 
ATOM     20  C   LIG    1       22.001 -31.467  10.172  0.00  0.00    +0.038 C 
ATOM     21  C   LIG    1       22.094 -30.247  11.088  0.00  0.00    +0.014 C 
ENDBRANCH  14  20
ENDBRANCH  13  17
ENDBRANCH   7  13
ENDBRANCH   6   9
BRANCH   6  22
ATOM     22  C   LIG    1       25.012 -28.660   6.395  0.00  0.00    +0.012 C 
ATOM     23  C   LIG    1       25.246 -29.877   5.433  0.00  0.00    +0.009 C 
ATOM     24  C   LIG    1       24.000 -27.810   5.609  0.00  0.00    +0.009 C 
ENDBRANCH   6  22
ENDBRANCH   2   6
ENDBRANCH   1   3
BRANCH   1  25
ATOM     25  C   LIG    1       26.643 -23.194   7.213  0.00  0.00    +0.056 C 
BRANCH  25  26
ATOM     26  C   LIG    1       26.317 -21.787   7.759  0.00  0.00    +0.137 C 
BRANCH  26  27
ATOM     27  O   LIG    1       26.522 -21.830   9.178  0.00  0.00    -0.390 OA
ATOM     28  H   LIG    1       25.821 -22.385   9.563  0.00  0.00    +0.210 HD
ENDBRANCH  26  27
BRANCH  26  29
ATOM     29  C   LIG    1       26.974 -20.480   7.177  0.00  0.00    +0.109 C 
BRANCH  29  30
ATOM     30  N   LIG    1       28.035 -19.977   8.072  0.00  0.00    -0.276 N 
ATOM     31  H   LIG    1       28.025 -20.281   8.991  0.00  0.00    +0.152 HD
ATOM     32  C   LIG    1       29.281 -19.559   7.894  0.00  0.00    +0.401 C 
ATOM     33  O   LIG    1       29.741 -18.979   6.858  0.00  0.00    -0.227 OA
BRANCH  32  34
ATOM     34  O   LIG    1       30.042 -19.902   8.935  0.00  0.00    -0.445 OA
BRANCH  34  35
ATOM     35  C   LIG    1       31.436 -19.528   8.949  0.00  0.00    +0.278 C 
BRANCH  35  36
ATOM     36  C   LIG    1       31.544 -18.177   9.600  0.00  0.00    +0.046 A 
ATOM     37  S   LIG    1       30.689 -17.793  11.042  0.00  0.00    -0.077 S 
ATOM     38  C   LIG    1       31.510 -16.288  11.118  0.00  0.00    +0.156 A 
ATOM     39  N   LIG    1       32.231 -15.981  10.066  0.00  0.00    -0.255 NA
ATOM     40  C   LIG    1       32.224 -17.048   9.186  0.00  0.00    +0.125 A 
ENDBRANCH  35  36
ENDBRANCH  34  35
ENDBRANCH  32  34
ENDBRANCH  29  30
BRANCH  29  41
ATOM     41  C   LIG    1       27.379 -20.638   5.638  0.00  0.00    +0.060 C 
BRANCH  41  42
ATOM     42  C   LIG    1       26.905 -19.568   4.650  0.00  0.00    -0.045 A 
ATOM     43  C   LIG    1       27.623 -18.385   4.480  0.00  0.00    +0.003 A 
ATOM     44  C   LIG    1       27.105 -17.256   3.847  0.00  0.00    +0.000 A 
ATOM     45  C   LIG    1       25.841 -17.301   3.298  0.00  0.00    +0.000 A 
ATOM     46  C   LIG    1       25.129 -18.495   3.348  0.00  0.00    +0.000 A 
ATOM     47  C   LIG    1       25.647 -19.620   4.027  0.00  0.00    +0.003 A 
ENDBRANCH  41  42
ENDBRANCH  29  41
ENDBRANCH  26  29
ENDBRANCH  25  26
ENDBRANCH   1  25
BRANCH   1  48
ATOM     48  C   LIG    1       24.028 -23.658   6.510  0.00  0.00    +0.057 C 
BRANCH  48  49
ATOM     49  C   LIG    1       23.491 -22.283   6.117  0.00  0.00    -0.046 A 
ATOM     50  C   LIG    1       22.892 -21.930   4.901  0.00  0.00    +0.003 A 
ATOM     51  C   LIG    1       22.368 -20.677   4.614  0.00  0.00    +0.000 A 
ATOM     52  C   LIG    1       22.434 -19.694   5.573  0.00  0.00    +0.000 A 
ATOM     53  C   LIG    1       22.983 -20.001   6.814  0.00  0.00    +0.000 A 
ATOM     54  C   LIG    1       23.466 -21.285   7.093  0.00  0.00    +0.003 A 
ENDBRANCH  48  49
ENDBRANCH   1  48
TORSDOF 19
ENDMDL
MODEL 4
REMARK VINA RESULT:      -7.0      2.840     11.418
REMARK  Name = *****
REMARK                            x       y       z     vdW  Elec       q    Type
REMARK                         _______ _______ _______ _____ _____    ______ ____
ROOT
ATOM      1  C   LIG    1       25.642 -23.499   6.820  0.00  0.00    +0.080 C 
ENDROOT
BRANCH   1   3
ATOM      2  C   LIG    1       26.923 -21.542   7.649  0.00  0.00    +0.234 C 
ATOM      3  N   LIG    1       26.763 -22.549   6.719  0.00  0.00    -0.310 N 
ATOM      4  H   LIG    1       27.337 -22.571   5.884  0.00  0.00    +0.149 HD
ATOM      5  O   LIG    1       26.204 -21.425   8.642  0.00  0.00    -0.274 OA
BRANCH   2   6
ATOM      6  C   LIG    1       28.113 -20.600   7.412  0.00  0.00    +0.163 C 
BRANCH   6   9
ATOM      7  N   LIG    1       30.992 -19.963   8.884  0.00  0.00    -0.283 N 
ATOM      8  C   LIG    1       30.493 -21.197   8.536  0.00  0.00    +0.303 C 
ATOM      9  N   LIG    1       29.332 -21.393   7.856  0.00  0.00    -0.288 N 
ATOM     10  H   LIG    1       29.064 -22.344   8.123  0.00  0.00    +0.151 HD
ATOM     11  O   LIG    1       31.072 -22.222   8.924  0.00  0.00    -0.253 OA
ATOM     12  C   LIG    1       31.685 -20.009  10.177  0.00  0.00    +0.134 C 
BRANCH   7  13
ATOM     13  C   LIG    1       30.416 -18.669   8.506  0.00  0.00    +0.165 C 
BRANCH  13  17
ATOM     14  C   LIG    1       31.760 -16.657  11.142  0.00  0.00    +0.081 A 
ATOM     15  S   LIG    1       32.989 -16.082  10.091  0.00  0.00    -0.080 S 
ATOM     16  C   LIG    1       32.107 -16.708   8.756  0.00  0.00    +0.071 A 
ATOM     17  C   LIG    1       31.096 -17.532   9.218  0.00  0.00    +0.066 A 
ATOM     18  N   LIG    1       30.813 -17.372  10.573  0.00  0.00    -0.247 NA
BRANCH  14  20
ATOM     19  C   LIG    1       31.717 -17.543  13.406  0.00  0.00    +0.014 C 
ATOM     20  C   LIG    1       31.778 -16.256  12.584  0.00  0.00    +0.038 C 
ATOM     21  C   LIG    1       32.990 -15.382  12.905  0.00  0.00    +0.014 C 
ENDBRANCH  14  20
ENDBRANCH  13  17
ENDBRANCH   7  13
ENDBRANCH   6   9
BRANCH   6  22
ATOM     22  C   LIG    1       28.119 -20.116   5.890  0.00  0.00    +0.012 C 
ATOM     23  C   LIG    1       28.977 -18.875   5.464  0.00  0.00    +0.009 C 
ATOM     24  C   LIG    1       26.726 -19.754   5.348  0.00  0.00    +0.009 C 
ENDBRANCH   6  22
ENDBRANCH   2   6
ENDBRANCH   1   3
BRANCH   1  25
ATOM     25  C   LIG    1       26.158 -24.894   7.251  0.00  0.00    +0.056 C 
BRANCH  25  26
ATOM     26  C   LIG    1       25.719 -26.154   6.474  0.00  0.00    +0.137 C 
BRANCH  26  27
ATOM     27  O   LIG    1       26.354 -26.095   5.190  0.00  0.00    -0.390 OA
ATOM     28  H   LIG    1       26.340 -26.991   4.809  0.00  0.00    +0.210 HD
ENDBRANCH  26  27
BRANCH  26  29
ATOM     29  C   LIG    1       25.867 -27.606   7.064  0.00  0.00    +0.109 C 
BRANCH  29  30
ATOM     30  N   LIG    1       26.269 -27.562   8.483  0.00  0.00    -0.276 N 
ATOM     31  H   LIG    1       25.906 -26.849   9.028  0.00  0.00    +0.152 HD
ATOM     32  C   LIG    1       26.653 -28.470   9.370  0.00  0.00    +0.401 C 
ATOM     33  O   LIG    1       27.284 -29.547   9.121  0.00  0.00    -0.227 OA
BRANCH  32  34
ATOM     34  O   LIG    1       26.214 -28.149  10.588  0.00  0.00    -0.445 OA
BRANCH  34  35
ATOM     35  C   LIG    1       27.162 -27.970  11.661  0.00  0.00    +0.278 C 
BRANCH  35  36
ATOM     36  C   LIG    1       26.879 -29.015  12.705  0.00  0.00    +0.046 A 
ATOM     37  S   LIG    1       27.387 -28.827  14.338  0.00  0.00    -0.077 S 
ATOM     38  C   LIG    1       26.529 -30.253  14.759  0.00  0.00    +0.156 A 
ATOM     39  N   LIG    1       26.049 -30.945  13.753  0.00  0.00    -0.255 NA
ATOM     40  C   LIG    1       26.276 -30.251  12.579  0.00  0.00    +0.125 A 
ENDBRANCH  35  36
ENDBRANCH  34  35
ENDBRANCH  32  34
ENDBRANCH  29  30
BRANCH  29  41
ATOM     41  C   LIG    1       24.606 -28.529   6.727  0.00  0.00    +0.060 C 
BRANCH  41  42
ATOM     42  C   LIG    1       24.853 -30.008   6.409  0.00  0.00    -0.045 A 
ATOM     43  C   LIG    1       24.714 -30.983   7.396  0.00  0.00    +0.003 A 
ATOM     44  C   LIG    1       25.210 -32.279   7.271  0.00  0.00    +0.000 A 
ATOM     45  C   LIG    1       25.824 -32.665   6.098  0.00  0.00    +0.000 A 
ATOM     46  C   LIG    1       25.889 -31.758   5.044  0.00  0.00    +0.000 A 
ATOM     47  C   LIG    1       25.420 -30.435   5.197  0.00  0.00    +0.003 A 
ENDBRANCH  41  42
ENDBRANCH  29  41
ENDBRANCH  26  29
ENDBRANCH  25  26
ENDBRANCH   1  25
BRANCH   1  48
ATOM     48  C   LIG    1       24.649 -23.239   5.660  0.00  0.00    +0.057 C 
BRANCH  48  49
ATOM     49  C   LIG    1       23.960 -21.912   5.347  0.00  0.00    -0.046 A 
ATOM     50  C   LIG    1       23.307 -21.069   6.256  0.00  0.00    +0.003 A 
ATOM     51  C   LIG    1       22.744 -19.843   5.929  0.00  0.00    +0.000 A 
ATOM     52  C   LIG    1       22.816 -19.404   4.628  0.00  0.00    +0.000 A 
ATOM     53  C   LIG    1       23.488 -20.183   3.692  0.00  0.00    +0.000 A 
ATOM     54  C   LIG    1       24.084 -21.396   4.055  0.00  0.00    +0.003 A 
ENDBRANCH  48  49
ENDBRANCH   1  48
TORSDOF 19
ENDMDL
MODEL 5
REMARK VINA RESULT:      -6.6      2.732      6.716
REMARK  Name = *****
REMARK                            x       y       z     vdW  Elec       q    Type
REMARK                         _______ _______ _______ _____ _____    ______ ____
ROOT
ATOM      1  C   LIG    1       25.677 -24.283   6.506  0.00  0.00    +0.080 C 
ENDROOT
BRANCH   1   3
ATOM      2  C   LIG    1       26.353 -26.667   6.373  0.00  0.00    +0.234 C 
ATOM      3  N   LIG    1       25.671 -25.660   7.026  0.00  0.00    -0.310 N 
ATOM      4  H   LIG    1       25.053 -25.878   7.800  0.00  0.00    +0.149 HD
ATOM      5  O   LIG    1       27.057 -26.468   5.382  0.00  0.00    -0.274 OA
BRANCH   2   6
ATOM      6  C   LIG    1       26.241 -28.064   7.002  0.00  0.00    +0.163 C 
BRANCH   6   9
ATOM      7  N   LIG    1       26.764 -29.826   9.737  0.00  0.00    -0.283 N 
ATOM      8  C   LIG    1       26.513 -28.476   9.655  0.00  0.00    +0.303 C 
ATOM      9  N   LIG    1       26.224 -27.816   8.501  0.00  0.00    -0.288 N 
ATOM     10  H   LIG    1       26.501 -26.853   8.710  0.00  0.00    +0.151 HD
ATOM     11  O   LIG    1       26.632 -27.770  10.667  0.00  0.00    -0.253 OA
ATOM     12  C   LIG    1       27.765 -30.125  10.768  0.00  0.00    +0.134 C 
BRANCH   7  13
ATOM     13  C   LIG    1       26.671 -30.783   8.630  0.00  0.00    +0.165 C 
BRANCH  13  17
ATOM     14  C   LIG    1       23.468 -32.068   9.574  0.00  0.00    +0.081 A 
ATOM     15  S   LIG    1       23.489 -33.136   8.230  0.00  0.00    -0.080 S 
ATOM     16  C   LIG    1       25.166 -32.819   8.034  0.00  0.00    +0.071 A 
ATOM     17  C   LIG    1       25.525 -31.738   8.819  0.00  0.00    +0.066 A 
ATOM     18  N   LIG    1       24.590 -31.420   9.802  0.00  0.00    -0.247 NA
BRANCH  14  20
ATOM     19  C   LIG    1       22.593 -32.701  11.752  0.00  0.00    +0.014 C 
ATOM     20  C   LIG    1       22.249 -31.998  10.439  0.00  0.00    +0.038 C 
ATOM     21  C   LIG    1       21.778 -30.556  10.624  0.00  0.00    +0.014 C 
ENDBRANCH  14  20
ENDBRANCH  13  17
ENDBRANCH   7  13
ENDBRANCH   6   9
BRANCH   6  22
ATOM     22  C   LIG    1       24.962 -28.817   6.411  0.00  0.00    +0.012 C 
ATOM     23  C   LIG    1       25.146 -30.085   5.507  0.00  0.00    +0.009 C 
ATOM     24  C   LIG    1       24.060 -27.923   5.544  0.00  0.00    +0.009 C 
ENDBRANCH   6  22
ENDBRANCH   2   6
ENDBRANCH   1   3
BRANCH   1  25
ATOM     25  C   LIG    1       26.720 -23.427   7.266  0.00  0.00    +0.056 C 
BRANCH  25  26
ATOM     26  C   LIG    1       26.473 -21.917   7.476  0.00  0.00    +0.137 C 
BRANCH  26  27
ATOM     27  O   LIG    1       26.266 -21.718   8.880  0.00  0.00    -0.390 OA
ATOM     28  H   LIG    1       26.214 -20.759   9.041  0.00  0.00    +0.210 HD
ENDBRANCH  26  27
BRANCH  26  29
ATOM     29  C   LIG    1       27.458 -20.815   6.931  0.00  0.00    +0.109 C 
BRANCH  29  30
ATOM     30  N   LIG    1       26.967 -20.249   5.659  0.00  0.00    -0.276 N 
ATOM     31  H   LIG    1       26.058 -20.458   5.398  0.00  0.00    +0.152 HD
ATOM     32  C   LIG    1       27.255 -19.167   4.949  0.00  0.00    +0.401 C 
ATOM     33  O   LIG    1       28.386 -18.585   4.888  0.00  0.00    -0.227 OA
BRANCH  32  34
ATOM     34  O   LIG    1       26.160 -18.696   4.350  0.00  0.00    -0.445 OA
BRANCH  34  35
ATOM     35  C   LIG    1       26.292 -17.916   3.143  0.00  0.00    +0.278 C 
BRANCH  35  36
ATOM     36  C   LIG    1       25.929 -16.494   3.472  0.00  0.00    +0.046 A 
ATOM     37  S   LIG    1       27.117 -15.253   3.570  0.00  0.00    -0.077 S 
ATOM     38  C   LIG    1       25.872 -14.088   3.765  0.00  0.00    +0.156 A 
ATOM     39  N   LIG    1       24.665 -14.571   3.939  0.00  0.00    -0.255 NA
ATOM     40  C   LIG    1       24.705 -15.947   3.802  0.00  0.00    +0.125 A 
ENDBRANCH  35  36
ENDBRANCH  34  35
ENDBRANCH  32  34
ENDBRANCH  29  30
BRANCH  29  41
ATOM     41  C   LIG    1       27.860 -19.752   8.055  0.00  0.00    +0.060 C 
BRANCH  41  42
ATOM     42  C   LIG    1       29.342 -19.398   8.221  0.00  0.00    -0.045 A 
ATOM     43  C   LIG    1       29.745 -18.418   9.127  0.00  0.00    +0.003 A 
ATOM     44  C   LIG    1       31.010 -17.834   9.115  0.00  0.00    +0.000 A 
ATOM     45  C   LIG    1       31.954 -18.268   8.208  0.00  0.00    +0.000 A 
ATOM     46  C   LIG    1       31.632 -19.319   7.355  0.00  0.00    +0.000 A 
ATOM     47  C   LIG    1       30.334 -19.876   7.348  0.00  0.00    +0.003 A 
ENDBRANCH  41  42
ENDBRANCH  29  41
ENDBRANCH  26  29
ENDBRANCH  25  26
ENDBRANCH   1  25
BRANCH   1  48
ATOM     48  C   LIG    1       24.222 -23.848   6.202  0.00  0.00    +0.057 C 
BRANCH  48  49
ATOM     49  C   LIG    1       23.760 -22.434   5.852  0.00  0.00    -0.046 A 
ATOM     50  C   LIG    1       23.218 -21.486   6.729  0.00  0.00    +0.003 A 
ATOM     51  C   LIG    1       22.866 -20.192   6.370  0.00  0.00    +0.000 A 
ATOM     52  C   LIG    1       23.047 -19.791   5.068  0.00  0.00    +0.000 A 
ATOM     53  C   LIG    1       23.619 -20.679   4.163  0.00  0.00    +0.000 A 
ATOM     54  C   LIG    1       24.006 -21.965   4.560  0.00  0.00    +0.003 A 
ENDBRANCH  48  49
ENDBRANCH   1  48
TORSDOF 19
ENDMDL
MODEL 6
REMARK VINA RESULT:      -6.6      3.293      8.701
REMARK  Name = *****
REMARK                            x       y       z     vdW  Elec       q    Type
REMARK                         _______ _______ _______ _____ _____    ______ ____
ROOT
ATOM      1  C   LIG    1       26.033 -29.403   9.418  0.00  0.00    +0.080 C 
ENDROOT
BRANCH   1   3
ATOM      2  C   LIG    1       24.678 -29.110   7.360  0.00  0.00    +0.234 C 
ATOM      3  N   LIG    1       25.913 -29.258   7.957  0.00  0.00    -0.310 N 
ATOM      4  H   LIG    1       26.743 -29.397   7.392  0.00  0.00    +0.149 HD
ATOM      5  O   LIG    1       23.630 -29.013   7.999  0.00  0.00    -0.274 OA
BRANCH   2   6
ATOM      6  C   LIG    1       24.688 -29.000   5.827  0.00  0.00    +0.163 C 
BRANCH   6   9
ATOM      7  N   LIG    1       25.843 -25.916   5.746  0.00  0.00    -0.283 N 
ATOM      8  C   LIG    1       26.554 -27.073   5.528  0.00  0.00    +0.303 C 
ATOM      9  N   LIG    1       26.005 -28.317   5.495  0.00  0.00    -0.288 N 
ATOM     10  H   LIG    1       26.795 -28.925   5.729  0.00  0.00    +0.151 HD
ATOM     11  O   LIG    1       27.788 -27.024   5.435  0.00  0.00    -0.253 OA
ATOM     12  C   LIG    1       26.631 -24.936   6.504  0.00  0.00    +0.134 C 
BRANCH   7  13
ATOM     13  C   LIG    1       24.386 -25.817   5.883  0.00  0.00    +0.165 C 
BRANCH  13  17
ATOM     14  C   LIG    1       23.911 -22.288   5.532  0.00  0.00    +0.081 A 
ATOM     15  S   LIG    1       22.414 -22.396   6.365  0.00  0.00    -0.080 S 
ATOM     16  C   LIG    1       22.844 -23.977   6.883  0.00  0.00    +0.071 A 
ATOM     17  C   LIG    1       23.953 -24.407   6.177  0.00  0.00    +0.066 A 
ATOM     18  N   LIG    1       24.639 -23.384   5.526  0.00  0.00    -0.247 NA
BRANCH  14  20
ATOM     19  C   LIG    1       23.099 -20.082   4.915  0.00  0.00    +0.014 C 
ATOM     20  C   LIG    1       24.337 -20.977   4.951  0.00  0.00    +0.038 C 
ATOM     21  C   LIG    1       25.505 -20.374   5.731  0.00  0.00    +0.014 C 
ENDBRANCH  14  20
ENDBRANCH  13  17
ENDBRANCH   7  13
ENDBRANCH   6   9
BRANCH   6  22
ATOM     22  C   LIG    1       24.479 -30.448   5.185  0.00  0.00    +0.012 C 
ATOM     23  C   LIG    1       23.838 -31.598   6.035  0.00  0.00    +0.009 C 
ATOM     24  C   LIG    1       25.778 -31.097   4.680  0.00  0.00    +0.009 C 
ENDBRANCH   6  22
ENDBRANCH   2   6
ENDBRANCH   1   3
BRANCH   1  25
ATOM     25  C   LIG    1       26.750 -28.171  10.022  0.00  0.00    +0.056 C 
BRANCH  25  26
ATOM     26  C   LIG    1       27.135 -28.159  11.518  0.00  0.00    +0.137 C 
BRANCH  26  27
ATOM     27  O   LIG    1       27.348 -26.789  11.884  0.00  0.00    -0.390 OA
ATOM     28  H   LIG    1       26.653 -26.539  12.519  0.00  0.00    +0.210 HD
ENDBRANCH  26  27
BRANCH  26  29
ATOM     29  C   LIG    1       26.262 -28.866  12.622  0.00  0.00    +0.109 C 
BRANCH  29  30
ATOM     30  N   LIG    1       27.099 -29.709  13.498  0.00  0.00    -0.276 N 
ATOM     31  H   LIG    1       27.355 -30.581  13.166  0.00  0.00    +0.152 HD
ATOM     32  C   LIG    1       27.986 -29.464  14.454  0.00  0.00    +0.401 C 
ATOM     33  O   LIG    1       27.986 -28.467  15.245  0.00  0.00    -0.227 OA
BRANCH  32  34
ATOM     34  O   LIG    1       28.958 -30.378  14.434  0.00  0.00    -0.445 OA
BRANCH  34  35
ATOM     35  C   LIG    1       30.093 -30.226  15.312  0.00  0.00    +0.278 C 
BRANCH  35  36
ATOM     36  C   LIG    1       31.176 -29.517  14.548  0.00  0.00    +0.046 A 
ATOM     37  S   LIG    1       31.836 -28.022  15.084  0.00  0.00    -0.077 S 
ATOM     38  C   LIG    1       33.003 -28.096  13.828  0.00  0.00    +0.156 A 
ATOM     39  N   LIG    1       32.825 -29.049  12.944  0.00  0.00    -0.255 NA
ATOM     40  C   LIG    1       31.762 -29.840  13.340  0.00  0.00    +0.125 A 
ENDBRANCH  35  36
ENDBRANCH  34  35
ENDBRANCH  32  34
ENDBRANCH  29  30
BRANCH  29  41
ATOM     41  C   LIG    1       25.283 -27.845  13.367  0.00  0.00    +0.060 C 
BRANCH  41  42
ATOM     42  C   LIG    1       23.805 -27.834  12.965  0.00  0.00    -0.045 A 
ATOM     43  C   LIG    1       22.980 -26.763  13.308  0.00  0.00    +0.003 A 
ATOM     44  C   LIG    1       21.589 -26.817  13.252  0.00  0.00    +0.000 A 
ATOM     45  C   LIG    1       20.967 -27.954  12.782  0.00  0.00    +0.000 A 
ATOM     46  C   LIG    1       21.753 -29.009  12.327  0.00  0.00    +0.000 A 
ATOM     47  C   LIG    1       23.161 -28.960  12.426  0.00  0.00    +0.003 A 
ENDBRANCH  41  42
ENDBRANCH  29  41
ENDBRANCH  26  29
ENDBRANCH  25  26
ENDBRANCH   1  25
BRANCH   1  48
ATOM     48  C   LIG    1       26.362 -30.878   9.757  0.00  0.00    +0.057 C 
BRANCH  48  49
ATOM     49  C   LIG    1       25.382 -31.913  10.308  0.00  0.00    -0.046 A 
ATOM     50  C   LIG    1       25.052 -32.125  11.653  0.00  0.00    +0.003 A 
ATOM     51  C   LIG    1       24.111 -33.044  12.099  0.00  0.00    +0.000 A 
ATOM     52  C   LIG    1       23.448 -33.816  11.175  0.00  0.00    +0.000 A 
ATOM     53  C   LIG    1       23.709 -33.620   9.823  0.00  0.00    +0.000 A 
ATOM     54  C   LIG    1       24.631 -32.657   9.397  0.00  0.00    +0.003 A 
ENDBRANCH  48  49
ENDBRANCH   1  48
TORSDOF 19
ENDMDL
MODEL 7
REMARK VINA RESULT:      -6.4      1.859      2.944
REMARK  Name = *****
REMARK                            x       y       z     vdW  Elec       q    Type
REMARK                         _______ _______ _______ _____ _____    ______ ____
ROOT
ATOM      1  C   LIG    1       25.000 -28.377   6.468  0.00  0.00    +0.080 C 
ENDROOT
BRANCH   1   3
ATOM      2  C   LIG    1       25.839 -28.814   8.763  0.00  0.00    +0.234 C 
ATOM      3  N   LIG    1       24.776 -28.655   7.897  0.00  0.00    -0.310 N 
ATOM      4  H   LIG    1       23.831 -28.852   8.205  0.00  0.00    +0.149 HD
ATOM      5  O   LIG    1       27.012 -28.660   8.420  0.00  0.00    -0.274 OA
BRANCH   2   6
ATOM      6  C   LIG    1       25.470 -29.130  10.220  0.00  0.00    +0.163 C 
BRANCH   6   9
ATOM      7  N   LIG    1       23.416 -31.691   9.938  0.00  0.00    -0.283 N 
ATOM      8  C   LIG    1       24.777 -31.737  10.136  0.00  0.00    +0.303 C 
ATOM      9  N   LIG    1       25.563 -30.643  10.326  0.00  0.00    -0.288 N 
ATOM     10  H   LIG    1       26.488 -30.969  10.030  0.00  0.00    +0.151 HD
ATOM     11  O   LIG    1       25.369 -32.822  10.059  0.00  0.00    -0.253 OA
ATOM     12  C   LIG    1       22.972 -32.744   9.017  0.00  0.00    +0.134 C 
BRANCH   7  13
ATOM     13  C   LIG    1       22.583 -30.485   9.991  0.00  0.00    +0.165 C 
BRANCH  13  17
ATOM     14  C   LIG    1       21.349 -28.836  12.917  0.00  0.00    +0.081 A 
ATOM     15  S   LIG    1       20.255 -30.128  13.197  0.00  0.00    -0.080 S 
ATOM     16  C   LIG    1       21.125 -31.080  12.062  0.00  0.00    +0.071 A 
ATOM     17  C   LIG    1       22.005 -30.273  11.364  0.00  0.00    +0.066 A 
ATOM     18  N   LIG    1       22.233 -29.036  11.963  0.00  0.00    -0.247 NA
BRANCH  14  20
ATOM     19  C   LIG    1       22.319 -26.630  13.244  0.00  0.00    +0.014 C 
ATOM     20  C   LIG    1       21.302 -27.628  13.799  0.00  0.00    +0.038 C 
ATOM     21  C   LIG    1       19.885 -27.064  13.899  0.00  0.00    +0.014 C 
ENDBRANCH  14  20
ENDBRANCH  13  17
ENDBRANCH   7  13
ENDBRANCH   6   9
BRANCH   6  22
ATOM     22  C   LIG    1       26.423 -28.308  11.204  0.00  0.00    +0.012 C 
ATOM     23  C   LIG    1       27.753 -28.952  11.728  0.00  0.00    +0.009 C 
ATOM     24  C   LIG    1       25.737 -27.865  12.507  0.00  0.00    +0.009 C 
ENDBRANCH   6  22
ENDBRANCH   2   6
ENDBRANCH   1   3
BRANCH   1  25
ATOM     25  C   LIG    1       24.504 -26.954   6.114  0.00  0.00    +0.056 C 
BRANCH  25  26
ATOM     26  C   LIG    1       25.029 -25.735   6.902  0.00  0.00    +0.137 C 
BRANCH  26  27
ATOM     27  O   LIG    1       26.179 -26.175   7.637  0.00  0.00    -0.390 OA
ATOM     28  H   LIG    1       26.956 -25.709   7.282  0.00  0.00    +0.210 HD
ENDBRANCH  26  27
BRANCH  26  29
ATOM     29  C   LIG    1       25.347 -24.355   6.213  0.00  0.00    +0.109 C 
BRANCH  29  30
ATOM     30  N   LIG    1       24.280 -23.371   6.483  0.00  0.00    -0.276 N 
ATOM     31  H   LIG    1       24.472 -22.441   6.294  0.00  0.00    +0.152 HD
ATOM     32  C   LIG    1       22.955 -23.419   6.507  0.00  0.00    +0.401 C 
ATOM     33  O   LIG    1       22.243 -24.427   6.819  0.00  0.00    -0.227 OA
BRANCH  32  34
ATOM     34  O   LIG    1       22.438 -22.269   6.072  0.00  0.00    -0.445 OA
BRANCH  34  35
ATOM     35  C   LIG    1       22.948 -21.021   6.587  0.00  0.00    +0.278 C 
BRANCH  35  36
ATOM     36  C   LIG    1       23.462 -20.219   5.424  0.00  0.00    +0.046 A 
ATOM     37  S   LIG    1       25.100 -20.315   4.907  0.00  0.00    -0.077 S 
ATOM     38  C   LIG    1       24.723 -19.324   3.557  0.00  0.00    +0.156 A 
ATOM     39  N   LIG    1       23.525 -18.789   3.563  0.00  0.00    -0.255 NA
ATOM     40  C   LIG    1       22.817 -19.277   4.646  0.00  0.00    +0.125 A 
ENDBRANCH  35  36
ENDBRANCH  34  35
ENDBRANCH  32  34
ENDBRANCH  29  30
BRANCH  29  41
ATOM     41  C   LIG    1       26.839 -23.860   6.504  0.00  0.00    +0.060 C 
BRANCH  41  42
ATOM     42  C   LIG    1       27.032 -22.574   7.314  0.00  0.00    -0.045 A 
ATOM     43  C   LIG    1       26.077 -22.167   8.244  0.00  0.00    +0.003 A 
ATOM     44  C   LIG    1       26.028 -20.883   8.784  0.00  0.00    +0.000 A 
ATOM     45  C   LIG    1       26.997 -19.962   8.443  0.00  0.00    +0.000 A 
ATOM     46  C   LIG    1       28.032 -20.357   7.601  0.00  0.00    +0.000 A 
ATOM     47  C   LIG    1       28.049 -21.648   7.029  0.00  0.00    +0.003 A 
ENDBRANCH  41  42
ENDBRANCH  29  41
ENDBRANCH  26  29
ENDBRANCH  25  26
ENDBRANCH   1  25
BRANCH   1  48
ATOM     48  C   LIG    1       24.694 -29.656   5.649  0.00  0.00    +0.057 C 
BRANCH  48  49
ATOM     49  C   LIG    1       25.555 -30.916   5.594  0.00  0.00    -0.046 A 
ATOM     50  C   LIG    1       26.138 -31.583   6.679  0.00  0.00    +0.003 A 
ATOM     51  C   LIG    1       26.868 -32.760   6.581  0.00  0.00    +0.000 A 
ATOM     52  C   LIG    1       27.049 -33.328   5.343  0.00  0.00    +0.000 A 
ATOM     53  C   LIG    1       26.459 -32.729   4.235  0.00  0.00    +0.000 A 
ATOM     54  C   LIG    1       25.691 -31.566   4.365  0.00  0.00    +0.003 A 
ENDBRANCH  48  49
ENDBRANCH   1  48
TORSDOF 19
ENDMDL
MODEL 8
REMARK VINA RESULT:      -6.3      3.139      7.670
REMARK  Name = *****
REMARK                            x       y       z     vdW  Elec       q    Type
REMARK                         _______ _______ _______ _____ _____    ______ ____
ROOT
ATOM      1  C   LIG    1       23.264 -29.563  11.473  0.00  0.00    +0.080 C 
ENDROOT
BRANCH   1   3
ATOM      2  C   LIG    1       22.349 -31.192  13.107  0.00  0.00    +0.234 C 
ATOM      3  N   LIG    1       22.329 -30.640  11.842  0.00  0.00    -0.310 N 
ATOM      4  H   LIG    1       21.760 -31.052  11.111  0.00  0.00    +0.149 HD
ATOM      5  O   LIG    1       23.076 -30.778  14.009  0.00  0.00    -0.274 OA
BRANCH   2   6
ATOM      6  C   LIG    1       21.343 -32.328  13.353  0.00  0.00    +0.163 C 
BRANCH   6   9
ATOM      7  N   LIG    1       18.239 -32.153  12.264  0.00  0.00    -0.283 N 
ATOM      8  C   LIG    1       19.371 -32.359  11.510  0.00  0.00    +0.303 C 
ATOM      9  N   LIG    1       20.621 -32.503  12.027  0.00  0.00    -0.288 N 
ATOM     10  H   LIG    1       21.227 -32.227  11.248  0.00  0.00    +0.151 HD
ATOM     11  O   LIG    1       19.296 -32.334  10.274  0.00  0.00    -0.253 OA
ATOM     12  C   LIG    1       17.285 -31.278  11.570  0.00  0.00    +0.134 C 
BRANCH   7  13
ATOM     13  C   LIG    1       18.173 -32.147  13.728  0.00  0.00    +0.165 C 
BRANCH  13  17
ATOM     14  C   LIG    1       18.192 -28.623  14.352  0.00  0.00    +0.081 A 
ATOM     15  S   LIG    1       16.479 -28.621  14.456  0.00  0.00    -0.080 S 
ATOM     16  C   LIG    1       16.508 -30.335  14.573  0.00  0.00    +0.071 A 
ATOM     17  C   LIG    1       17.773 -30.797  14.258  0.00  0.00    +0.066 A 
ATOM     18  N   LIG    1       18.757 -29.810  14.286  0.00  0.00    -0.247 NA
BRANCH  14  20
ATOM     19  C   LIG    1       20.110 -27.426  13.457  0.00  0.00    +0.014 C 
ATOM     20  C   LIG    1       18.936 -27.327  14.430  0.00  0.00    +0.038 C 
ATOM     21  C   LIG    1       18.014 -26.138  14.157  0.00  0.00    +0.014 C 
ENDBRANCH  14  20
ENDBRANCH  13  17
ENDBRANCH   7  13
ENDBRANCH   6   9
BRANCH   6  22
ATOM     22  C   LIG    1       22.114 -33.617  13.896  0.00  0.00    +0.012 C 
ATOM     23  C   LIG    1       22.417 -33.762  15.428  0.00  0.00    +0.009 C 
ATOM     24  C   LIG    1       23.501 -33.824  13.265  0.00  0.00    +0.009 C 
ENDBRANCH   6  22
ENDBRANCH   2   6
ENDBRANCH   1   3
BRANCH   1  25
ATOM     25  C   LIG    1       24.490 -30.148  10.732  0.00  0.00    +0.056 C 
BRANCH  25  26
ATOM     26  C   LIG    1       24.305 -30.853   9.370  0.00  0.00    +0.137 C 
BRANCH  26  27
ATOM     27  O   LIG    1       22.915 -30.756   9.034  0.00  0.00    -0.390 OA
ATOM     28  H   LIG    1       22.588 -29.899   9.361  0.00  0.00    +0.210 HD
ENDBRANCH  26  27
BRANCH  26  29
ATOM     29  C   LIG    1       25.174 -30.493   8.106  0.00  0.00    +0.109 C 
BRANCH  29  30
ATOM     30  N   LIG    1       25.257 -29.031   7.920  0.00  0.00    -0.276 N 
ATOM     31  H   LIG    1       25.845 -28.539   8.511  0.00  0.00    +0.152 HD
ATOM     32  C   LIG    1       25.093 -28.214   6.889  0.00  0.00    +0.401 C 
ATOM     33  O   LIG    1       24.313 -28.396   5.900  0.00  0.00    -0.227 OA
BRANCH  32  34
ATOM     34  O   LIG    1       25.931 -27.179   6.975  0.00  0.00    -0.445 OA
BRANCH  34  35
ATOM     35  C   LIG    1       25.969 -26.206   5.910  0.00  0.00    +0.278 C 
BRANCH  35  36
ATOM     36  C   LIG    1       25.173 -25.009   6.352  0.00  0.00    +0.046 A 
ATOM     37  S   LIG    1       25.931 -23.588   6.956  0.00  0.00    -0.077 S 
ATOM     38  C   LIG    1       24.405 -22.802   6.996  0.00  0.00    +0.156 A 
ATOM     39  N   LIG    1       23.366 -23.568   6.765  0.00  0.00    -0.255 NA
ATOM     40  C   LIG    1       23.805 -24.836   6.427  0.00  0.00    +0.125 A 
ENDBRANCH  35  36
ENDBRANCH  34  35
ENDBRANCH  32  34
ENDBRANCH  29  30
BRANCH  29  41
ATOM     41  C   LIG    1       26.566 -31.278   8.083  0.00  0.00    +0.060 C 
BRANCH  41  42
ATOM     42  C   LIG    1       26.829 -32.255   6.933  0.00  0.00    -0.045 A 
ATOM     43  C   LIG    1       27.948 -33.087   6.944  0.00  0.00    +0.003 A 
ATOM     44  C   LIG    1       28.414 -33.763   5.819  0.00  0.00    +0.000 A 
ATOM     45  C   LIG    1       27.719 -33.673   4.631  0.00  0.00    +0.000 A 
ATOM     46  C   LIG    1       26.535 -32.941   4.600  0.00  0.00    +0.000 A 
ATOM     47  C   LIG    1       26.095 -32.226   5.735  0.00  0.00    +0.003 A 
ENDBRANCH  41  42
ENDBRANCH  29  41
ENDBRANCH  26  29
ENDBRANCH  25  26
ENDBRANCH   1  25
BRANCH   1  48
ATOM     48  C   LIG    1       23.331 -28.532  12.627  0.00  0.00    +0.057 C 
BRANCH  48  49
ATOM     49  C   LIG    1       24.471 -27.549  12.889  0.00  0.00    -0.046 A 
ATOM     50  C   LIG    1       25.776 -27.622  12.383  0.00  0.00    +0.003 A 
ATOM     51  C   LIG    1       26.762 -26.669  12.606  0.00  0.00    +0.000 A 
ATOM     52  C   LIG    1       26.463 -25.572  13.378  0.00  0.00    +0.000 A 
ATOM     53  C   LIG    1       25.171 -25.430  13.874  0.00  0.00    +0.000 A 
ATOM     54  C   LIG    1       24.182 -26.382  13.599  0.00  0.00    +0.003 A 
ENDBRANCH  48  49
ENDBRANCH   1  48
TORSDOF 19
ENDMDL
MODEL 9
REMARK VINA RESULT:      -6.2      2.786     10.168
REMARK  Name = *****
REMARK                            x       y       z     vdW  Elec       q    Type
REMARK                         _______ _______ _______ _____ _____    ______ ____
ROOT
ATOM      1  C   LIG    1       26.648 -29.872   9.492  0.00  0.00    +0.080 C 
ENDROOT
BRANCH   1   3
ATOM      2  C   LIG    1       25.003 -29.225   7.751  0.00  0.00    +0.234 C 
ATOM      3  N   LIG    1       26.305 -29.515   8.106  0.00  0.00    -0.310 N 
ATOM      4  H   LIG    1       27.020 -29.612   7.394  0.00  0.00    +0.149 HD
ATOM      5  O   LIG    1       24.081 -29.169   8.566  0.00  0.00    -0.274 OA
BRANCH   2   6
ATOM      6  C   LIG    1       24.774 -28.898   6.267  0.00  0.00    +0.163 C 
BRANCH   6   9
ATOM      7  N   LIG    1       25.781 -25.779   5.933  0.00  0.00    -0.283 N 
ATOM      8  C   LIG    1       26.533 -26.917   5.753  0.00  0.00    +0.303 C 
ATOM      9  N   LIG    1       26.040 -28.182   5.826  0.00  0.00    -0.288 N 
ATOM     10  H   LIG    1       26.868 -28.740   6.057  0.00  0.00    +0.151 HD
ATOM     11  O   LIG    1       27.758 -26.821   5.595  0.00  0.00    -0.253 OA
ATOM     12  C   LIG    1       26.559 -24.719   6.587  0.00  0.00    +0.134 C 
BRANCH   7  13
ATOM     13  C   LIG    1       24.330 -25.734   6.137  0.00  0.00    +0.165 C 
BRANCH  13  17
ATOM     14  C   LIG    1       23.863 -22.229   5.590  0.00  0.00    +0.081 A 
ATOM     15  S   LIG    1       22.264 -22.335   6.204  0.00  0.00    -0.080 S 
ATOM     16  C   LIG    1       22.635 -23.888   6.837  0.00  0.00    +0.071 A 
ATOM     17  C   LIG    1       23.840 -24.323   6.313  0.00  0.00    +0.066 A 
ATOM     18  N   LIG    1       24.599 -23.310   5.730  0.00  0.00    -0.247 NA
BRANCH  14  20
ATOM     19  C   LIG    1       23.162 -19.970   5.026  0.00  0.00    +0.014 C 
ATOM     20  C   LIG    1       24.351 -20.930   5.028  0.00  0.00    +0.038 C 
ATOM     21  C   LIG    1       25.559 -20.405   5.804  0.00  0.00    +0.014 C 
ENDBRANCH  14  20
ENDBRANCH  13  17
ENDBRANCH   7  13
ENDBRANCH   6   9
BRANCH   6  22
ATOM     22  C   LIG    1       24.424 -30.238   5.471  0.00  0.00    +0.012 C 
ATOM     23  C   LIG    1       23.720 -31.428   6.210  0.00  0.00    +0.009 C 
ATOM     24  C   LIG    1       25.647 -30.922   4.837  0.00  0.00    +0.009 C 
ENDBRANCH   6  22
ENDBRANCH   2   6
ENDBRANCH   1   3
BRANCH   1  25
ATOM     25  C   LIG    1       26.138 -31.296   9.822  0.00  0.00    +0.056 C 
BRANCH  25  26
ATOM     26  C   LIG    1       25.125 -31.506  10.969  0.00  0.00    +0.137 C 
BRANCH  26  27
ATOM     27  O   LIG    1       25.876 -31.547  12.189  0.00  0.00    -0.390 OA
ATOM     28  H   LIG    1       25.290 -31.884  12.889  0.00  0.00    +0.210 HD
ENDBRANCH  26  27
BRANCH  26  29
ATOM     29  C   LIG    1       23.863 -30.585  11.163  0.00  0.00    +0.109 C 
BRANCH  29  30
ATOM     30  N   LIG    1       22.619 -31.319  10.857  0.00  0.00    -0.276 N 
ATOM     31  H   LIG    1       21.790 -30.956  11.200  0.00  0.00    +0.152 HD
ATOM     32  C   LIG    1       22.229 -32.117   9.872  0.00  0.00    +0.401 C 
ATOM     33  O   LIG    1       22.973 -32.891   9.189  0.00  0.00    -0.227 OA
BRANCH  32  34
ATOM     34  O   LIG    1       20.930 -31.946   9.620  0.00  0.00    -0.445 OA
BRANCH  34  35
ATOM     35  C   LIG    1       20.152 -31.071  10.463  0.00  0.00    +0.278 C 
BRANCH  35  36
ATOM     36  C   LIG    1       19.037 -31.881  11.063  0.00  0.00    +0.046 A 
ATOM     37  S   LIG    1       19.315 -33.425  11.771  0.00  0.00    -0.077 S 
ATOM     38  C   LIG    1       17.683 -33.466  12.301  0.00  0.00    +0.156 A 
ATOM     39  N   LIG    1       16.912 -32.510  11.841  0.00  0.00    -0.255 NA
ATOM     40  C   LIG    1       17.681 -31.622  11.109  0.00  0.00    +0.125 A 
ENDBRANCH  35  36
ENDBRANCH  34  35
ENDBRANCH  32  34
ENDBRANCH  29  30
BRANCH  29  41
ATOM     41  C   LIG    1       23.886 -29.809  12.561  0.00  0.00    +0.060 C 
BRANCH  41  42
ATOM     42  C   LIG    1       23.004 -28.566  12.715  0.00  0.00    -0.045 A 
ATOM     43  C   LIG    1       23.524 -27.382  13.237  0.00  0.00    +0.003 A 
ATOM     44  C   LIG    1       22.732 -26.328  13.688  0.00  0.00    +0.000 A 
ATOM     45  C   LIG    1       21.360 -26.406  13.571  0.00  0.00    +0.000 A 
ATOM     46  C   LIG    1       20.801 -27.523  12.957  0.00  0.00    +0.000 A 
ATOM     47  C   LIG    1       21.611 -28.603  12.541  0.00  0.00    +0.003 A 
ENDBRANCH  41  42
ENDBRANCH  29  41
ENDBRANCH  26  29
ENDBRANCH  25  26
ENDBRANCH   1  25
BRANCH   1  48
ATOM     48  C   LIG    1       26.461 -28.629  10.398  0.00  0.00    +0.057 C 
BRANCH  48  49
ATOM     49  C   LIG    1       27.112 -28.404  11.761  0.00  0.00    -0.046 A 
ATOM     50  C   LIG    1       26.797 -27.401  12.688  0.00  0.00    +0.003 A 
ATOM     51  C   LIG    1       27.382 -27.274  13.941  0.00  0.00    +0.000 A 
ATOM     52  C   LIG    1       28.345 -28.179  14.319  0.00  0.00    +0.000 A 
ATOM     53  C   LIG    1       28.669 -29.218  13.454  0.00  0.00    +0.000 A 
ATOM     54  C   LIG    1       28.034 -29.350  12.213  0.00  0.00    +0.003 A 
ENDBRANCH  48  49
ENDBRANCH   1  48
TORSDOF 19
ENDMDL
