MODEL 1
REMARK VINA RESULT:      -8.5      0.000      0.000
REMARK  Name = *****
REMARK                            x       y       z     vdW  Elec       q    Type
REMARK                         _______ _______ _______ _____ _____    ______ ____
ROOT
ATOM      1  C   LIG    1       25.517 -30.606   5.304  0.00  0.00    +0.007 C 
ENDROOT
BRANCH   1   2
ATOM      2  C   LIG    1       24.458 -29.727   5.942  0.00  0.00    +0.041 C 
BRANCH   2   3
ATOM      3  C   LIG    1       25.123 -28.587   6.663  0.00  0.00    +0.232 C 
BRANCH   3   4
ATOM      4  O   LIG    1       24.424 -27.401   6.274  0.00  0.00    -0.465 OA
BRANCH   4   5
ATOM      5  C   LIG    1       25.122 -26.633   5.399  0.00  0.00    +0.312 C 
ATOM      6  O   LIG    1       26.259 -26.844   5.003  0.00  0.00    -0.251 OA
BRANCH   5   7
ATOM      7  C   LIG    1       24.315 -25.434   4.996  0.00  0.00    +0.171 C 
BRANCH   7   8
ATOM      8  C   LIG    1       25.241 -24.256   5.224  0.00  0.00    +0.145 C 
BRANCH   8   9
ATOM      9  N   LIG    1       25.122 -23.480   6.565  0.00  0.00    +0.247 N 
ATOM     10  C   LIG    1       25.930 -22.084   6.459  0.00  0.00    +0.102 C 
ATOM     11  C   LIG    1       25.013 -21.050   5.846  0.00  0.00    +0.008 A 
ATOM     12  C   LIG    1       23.676 -21.027   6.233  0.00  0.00    -0.030 A 
ATOM     13  C   LIG    1       22.787 -20.177   5.597  0.00  0.00    +0.053 A 
ATOM     14  C   LIG    1       23.176 -19.305   4.569  0.00  0.00    +0.162 A 
ATOM     15  C   LIG    1       24.521 -19.357   4.106  0.00  0.00    +0.162 A 
ATOM     16  C   LIG    1       23.158 -21.964   7.273  0.00  0.00    +0.086 C 
ATOM     17  C   LIG    1       25.420 -20.220   4.789  0.00  0.00    +0.059 A 
ATOM     18  C   LIG    1       23.612 -23.367   6.952  0.00  0.00    +0.138 C 
ATOM     19  C   LIG    1       25.749 -24.401   7.606  0.00  0.00    +0.193 C 
BRANCH  14  20
ATOM     20  O   LIG    1       22.062 -18.540   4.291  0.00  0.00    -0.491 OA
ATOM     21  C   LIG    1       22.179 -17.161   4.440  0.00  0.00    +0.277 C 
ENDBRANCH  14  20
BRANCH  15  22
ATOM     22  O   LIG    1       25.212 -18.749   3.069  0.00  0.00    -0.491 OA
ATOM     23  C   LIG    1       25.686 -17.442   3.248  0.00  0.00    +0.277 C 
ENDBRANCH  15  22
BRANCH  10  24
ATOM     24  C   LIG    1       26.625 -21.641   7.800  0.00  0.00    +0.095 C 
BRANCH  24  25
ATOM     25  C   LIG    1       28.001 -20.992   7.688  0.00  0.00    -0.038 A 
ATOM     26  C   LIG    1       29.077 -21.436   8.479  0.00  0.00    +0.053 A 
ATOM     27  C   LIG    1       30.363 -20.863   8.378  0.00  0.00    +0.162 A 
ATOM     28  C   LIG    1       30.560 -19.747   7.543  0.00  0.00    +0.162 A 
ATOM     29  C   LIG    1       29.488 -19.296   6.767  0.00  0.00    +0.050 A 
ATOM     30  C   LIG    1       28.227 -19.905   6.838  0.00  0.00    +0.007 A 
BRANCH  28  31
ATOM     31  O   LIG    1       31.804 -19.160   7.484  0.00  0.00    -0.491 OA
ATOM     32  C   LIG    1       31.944 -17.944   8.233  0.00  0.00    +0.277 C 
ENDBRANCH  28  31
BRANCH  27  33
ATOM     33  O   LIG    1       31.440 -21.340   9.088  0.00  0.00    -0.491 OA
ATOM     34  C   LIG    1       31.894 -22.647   8.735  0.00  0.00    +0.277 C 
ENDBRANCH  27  33
ENDBRANCH  24  25
ENDBRANCH  10  24
ENDBRANCH   8   9
ENDBRANCH   7   8
ENDBRANCH   5   7
ENDBRANCH   4   5
ENDBRANCH   3   4
ENDBRANCH   2   3
ENDBRANCH   1   2
BRANCH   1  35
ATOM     35  C   LIG    1       25.368 -31.980   5.819  0.00  0.00    +0.041 C 
BRANCH  35  36
ATOM     36  C   LIG    1       26.147 -32.105   7.168  0.00  0.00    +0.232 C 
BRANCH  36  37
ATOM     37  O   LIG    1       25.350 -32.578   8.197  0.00  0.00    -0.465 OA
BRANCH  37  38
ATOM     38  C   LIG    1       24.873 -31.656   8.916  0.00  0.00    +0.312 C 
ATOM     39  O   LIG    1       25.766 -30.903   9.586  0.00  0.00    -0.251 OA
BRANCH  38  40
ATOM     40  C   LIG    1       23.463 -31.474   9.013  0.00  0.00    +0.171 C 
BRANCH  40  41
ATOM     41  C   LIG    1       23.028 -30.462  10.048  0.00  0.00    +0.145 C 
BRANCH  41  43
ATOM     42  C   LIG    1       22.594 -29.825  12.684  0.00  0.00    +0.102 C 
ATOM     43  N   LIG    1       22.462 -30.908  11.426  0.00  0.00    +0.247 N 
ATOM     44  C   LIG    1       21.018 -31.291  11.065  0.00  0.00    +0.193 C 
ATOM     45  C   LIG    1       22.898 -32.237  12.036  0.00  0.00    +0.138 C 
ATOM     46  C   LIG    1       24.304 -32.279  12.545  0.00  0.00    +0.086 C 
ATOM     47  C   LIG    1       24.821 -31.017  13.195  0.00  0.00    -0.030 A 
ATOM     48  C   LIG    1       26.218 -31.073  13.562  0.00  0.00    +0.053 A 
ATOM     49  C   LIG    1       26.978 -29.931  13.905  0.00  0.00    +0.162 A 
ATOM     50  C   LIG    1       26.186 -28.694  14.090  0.00  0.00    +0.162 A 
ATOM     51  C   LIG    1       24.744 -28.680  13.803  0.00  0.00    +0.059 A 
ATOM     52  C   LIG    1       24.060 -29.813  13.257  0.00  0.00    +0.008 A 
BRANCH  50  53
ATOM     53  O   LIG    1       26.850 -27.509  14.389  0.00  0.00    -0.491 OA
ATOM     54  C   LIG    1       26.903 -26.419  13.442  0.00  0.00    +0.277 C 
ENDBRANCH  50  53
BRANCH  49  55
ATOM     55  O   LIG    1       28.447 -29.968  13.604  0.00  0.00    -0.491 OA
ATOM     56  C   LIG    1       29.193 -29.565  12.214  0.00  0.00    +0.277 C 
ENDBRANCH  49  55
BRANCH  42  57
ATOM     57  C   LIG    1       21.811 -28.460  12.465  0.00  0.00    +0.095 C 
BRANCH  57  61
ATOM     58  C   LIG    1       18.028 -27.417  14.503  0.00  0.00    +0.162 A 
ATOM     59  C   LIG    1       18.405 -28.734  14.362  0.00  0.00    +0.162 A 
ATOM     60  C   LIG    1       19.757 -28.963  14.009  0.00  0.00    +0.053 A 
ATOM     61  C   LIG    1       20.582 -28.070  13.318  0.00  0.00    -0.038 A 
ATOM     62  C   LIG    1       20.194 -26.749  13.457  0.00  0.00    +0.007 A 
ATOM     63  C   LIG    1       18.952 -26.435  14.064  0.00  0.00    +0.050 A 
BRANCH  58  65
ATOM     64  C   LIG    1       15.775 -26.661  14.205  0.00  0.00    +0.277 C 
ATOM     65  O   LIG    1       16.881 -26.926  15.068  0.00  0.00    -0.491 OA
ENDBRANCH  58  65
BRANCH  59  66
ATOM     66  O   LIG    1       17.693 -29.906  14.476  0.00  0.00    -0.491 OA
ATOM     67  C   LIG    1       16.848 -30.350  13.410  0.00  0.00    +0.277 C 
ENDBRANCH  59  66
ENDBRANCH  57  61
ENDBRANCH  42  57
ENDBRANCH  41  43
ENDBRANCH  40  41
ENDBRANCH  38  40
ENDBRANCH  37  38
ENDBRANCH  36  37
ENDBRANCH  35  36
ENDBRANCH   1  35
TORSDOF 26
ENDMDL
MODEL 2
REMARK VINA RESULT:      -7.5      1.785      4.375
REMARK  Name = *****
REMARK                            x       y       z     vdW  Elec       q    Type
REMARK                         _______ _______ _______ _____ _____    ______ ____
ROOT
ATOM      1  C   LIG    1       25.841 -28.321   8.458  0.00  0.00    +0.007 C 
ENDROOT
BRANCH   1   2
ATOM      2  C   LIG    1       24.978 -29.184   7.558  0.00  0.00    +0.041 C 
BRANCH   2   3
ATOM      3  C   LIG    1       25.246 -28.831   6.121  0.00  0.00    +0.232 C 
BRANCH   3   4
ATOM      4  O   LIG    1       24.448 -27.679   5.834  0.00  0.00    -0.465 OA
BRANCH   4   5
ATOM      5  C   LIG    1       25.153 -26.671   5.260  0.00  0.00    +0.312 C 
ATOM      6  O   LIG    1       26.342 -26.695   4.977  0.00  0.00    -0.251 OA
BRANCH   5   7
ATOM      7  C   LIG    1       24.275 -25.473   5.048  0.00  0.00    +0.171 C 
BRANCH   7   8
ATOM      8  C   LIG    1       25.196 -24.284   5.241  0.00  0.00    +0.145 C 
BRANCH   8   9
ATOM      9  N   LIG    1       25.081 -23.477   6.563  0.00  0.00    +0.247 N 
ATOM     10  C   LIG    1       25.864 -22.071   6.412  0.00  0.00    +0.102 C 
ATOM     11  C   LIG    1       24.922 -21.069   5.785  0.00  0.00    +0.008 A 
ATOM     12  C   LIG    1       23.590 -21.059   6.190  0.00  0.00    -0.030 A 
ATOM     13  C   LIG    1       22.678 -20.239   5.545  0.00  0.00    +0.053 A 
ATOM     14  C   LIG    1       23.039 -19.387   4.490  0.00  0.00    +0.162 A 
ATOM     15  C   LIG    1       24.378 -19.428   4.011  0.00  0.00    +0.162 A 
ATOM     16  C   LIG    1       23.101 -21.977   7.260  0.00  0.00    +0.086 C 
ATOM     17  C   LIG    1       25.300 -20.258   4.703  0.00  0.00    +0.059 A 
ATOM     18  C   LIG    1       23.574 -23.380   6.968  0.00  0.00    +0.138 C 
ATOM     19  C   LIG    1       25.737 -24.361   7.618  0.00  0.00    +0.193 C 
BRANCH  14  20
ATOM     20  O   LIG    1       21.908 -18.648   4.209  0.00  0.00    -0.491 OA
ATOM     21  C   LIG    1       21.888 -17.322   4.632  0.00  0.00    +0.277 C 
ENDBRANCH  14  20
BRANCH  15  22
ATOM     22  O   LIG    1       25.044 -18.834   2.950  0.00  0.00    -0.491 OA
ATOM     23  C   LIG    1       26.115 -17.971   3.222  0.00  0.00    +0.277 C 
ENDBRANCH  15  22
BRANCH  10  24
ATOM     24  C   LIG    1       26.568 -21.583   7.732  0.00  0.00    +0.095 C 
BRANCH  24  25
ATOM     25  C   LIG    1       27.927 -20.905   7.584  0.00  0.00    -0.038 A 
ATOM     26  C   LIG    1       29.085 -21.475   8.145  0.00  0.00    +0.053 A 
ATOM     27  C   LIG    1       30.355 -20.876   8.004  0.00  0.00    +0.162 A 
ATOM     28  C   LIG    1       30.461 -19.619   7.379  0.00  0.00    +0.162 A 
ATOM     29  C   LIG    1       29.309 -19.045   6.833  0.00  0.00    +0.050 A 
ATOM     30  C   LIG    1       28.061 -19.674   6.935  0.00  0.00    +0.007 A 
BRANCH  28  31
ATOM     31  O   LIG    1       31.695 -19.014   7.287  0.00  0.00    -0.491 OA
ATOM     32  C   LIG    1       32.019 -18.116   8.358  0.00  0.00    +0.277 C 
ENDBRANCH  28  31
BRANCH  27  33
ATOM     33  O   LIG    1       31.504 -21.463   8.480  0.00  0.00    -0.491 OA
ATOM     34  C   LIG    1       31.361 -22.246   9.665  0.00  0.00    +0.277 C 
ENDBRANCH  27  33
ENDBRANCH  24  25
ENDBRANCH  10  24
ENDBRANCH   8   9
ENDBRANCH   7   8
ENDBRANCH   5   7
ENDBRANCH   4   5
ENDBRANCH   3   4
ENDBRANCH   2   3
ENDBRANCH   1   2
BRANCH   1  35
ATOM     35  C   LIG    1       26.762 -29.192   9.213  0.00  0.00    +0.041 C 
BRANCH  35  36
ATOM     36  C   LIG    1       25.928 -30.272   9.976  0.00  0.00    +0.232 C 
BRANCH  36  37
ATOM     37  O   LIG    1       26.636 -30.846  11.019  0.00  0.00    -0.465 OA
BRANCH  37  38
ATOM     38  C   LIG    1       26.230 -30.475  12.156  0.00  0.00    +0.312 C 
ATOM     39  O   LIG    1       27.140 -30.492  13.147  0.00  0.00    -0.251 OA
BRANCH  38  40
ATOM     40  C   LIG    1       24.869 -30.096  12.346  0.00  0.00    +0.171 C 
BRANCH  40  41
ATOM     41  C   LIG    1       23.975 -31.199  12.863  0.00  0.00    +0.145 C 
BRANCH  41  43
ATOM     42  C   LIG    1       22.260 -31.841  14.911  0.00  0.00    +0.102 C 
ATOM     43  N   LIG    1       23.790 -31.441  14.389  0.00  0.00    +0.247 N 
ATOM     44  C   LIG    1       24.859 -32.509  14.671  0.00  0.00    +0.193 C 
ATOM     45  C   LIG    1       24.259 -30.389  15.390  0.00  0.00    +0.138 C 
ATOM     46  C   LIG    1       23.437 -29.140  15.439  0.00  0.00    +0.086 C 
ATOM     47  C   LIG    1       21.947 -29.307  15.258  0.00  0.00    -0.030 A 
ATOM     48  C   LIG    1       21.217 -28.061  15.197  0.00  0.00    +0.053 A 
ATOM     49  C   LIG    1       19.881 -27.965  14.744  0.00  0.00    +0.162 A 
ATOM     50  C   LIG    1       19.196 -29.264  14.555  0.00  0.00    +0.162 A 
ATOM     51  C   LIG    1       19.933 -30.527  14.716  0.00  0.00    +0.059 A 
ATOM     52  C   LIG    1       21.341 -30.566  14.972  0.00  0.00    +0.008 A 
BRANCH  50  53
ATOM     53  O   LIG    1       17.892 -29.273  14.073  0.00  0.00    -0.491 OA
ATOM     54  C   LIG    1       17.345 -30.435  13.410  0.00  0.00    +0.277 C 
ENDBRANCH  50  53
BRANCH  49  55
ATOM     55  O   LIG    1       19.468 -26.679  14.091  0.00  0.00    -0.491 OA
ATOM     56  C   LIG    1       17.971 -26.049  13.983  0.00  0.00    +0.277 C 
ENDBRANCH  49  55
BRANCH  42  57
ATOM     57  C   LIG    1       21.697 -33.204  14.320  0.00  0.00    +0.095 C 
BRANCH  57  61
ATOM     58  C   LIG    1       19.159 -32.885  10.713  0.00  0.00    +0.162 A 
ATOM     59  C   LIG    1       20.452 -32.413  10.700  0.00  0.00    +0.162 A 
ATOM     60  C   LIG    1       21.287 -32.847  11.758  0.00  0.00    +0.053 A 
ATOM     61  C   LIG    1       20.855 -33.253  13.025  0.00  0.00    -0.038 A 
ATOM     62  C   LIG    1       19.552 -33.720  13.032  0.00  0.00    +0.007 A 
ATOM     63  C   LIG    1       18.734 -33.560  11.885  0.00  0.00    +0.050 A 
BRANCH  58  65
ATOM     64  C   LIG    1       17.719 -31.549   9.343  0.00  0.00    +0.277 C 
ATOM     65  O   LIG    1       18.234 -32.830   9.705  0.00  0.00    -0.491 OA
ENDBRANCH  58  65
BRANCH  59  66
ATOM     66  O   LIG    1       21.103 -31.552   9.846  0.00  0.00    -0.491 OA
ATOM     67  C   LIG    1       22.473 -31.770   9.499  0.00  0.00    +0.277 C 
ENDBRANCH  59  66
ENDBRANCH  57  61
ENDBRANCH  42  57
ENDBRANCH  41  43
ENDBRANCH  40  41
ENDBRANCH  38  40
ENDBRANCH  37  38
ENDBRANCH  36  37
ENDBRANCH  35  36
ENDBRANCH   1  35
TORSDOF 26
ENDMDL
MODEL 3
REMARK VINA RESULT:      -6.7      1.350      2.259
REMARK  Name = *****
REMARK                            x       y       z     vdW  Elec       q    Type
REMARK                         _______ _______ _______ _____ _____    ______ ____
ROOT
ATOM      1  C   LIG    1       25.658 -30.096   5.194  0.00  0.00    +0.007 C 
ENDROOT
BRANCH   1   2
ATOM      2  C   LIG    1       24.483 -29.342   5.789  0.00  0.00    +0.041 C 
BRANCH   2   3
ATOM      3  C   LIG    1       24.995 -28.264   6.706  0.00  0.00    +0.232 C 
BRANCH   3   4
ATOM      4  O   LIG    1       24.430 -27.037   6.240  0.00  0.00    -0.465 OA
BRANCH   4   5
ATOM      5  C   LIG    1       25.268 -26.335   5.435  0.00  0.00    +0.312 C 
ATOM      6  O   LIG    1       26.440 -26.599   5.211  0.00  0.00    -0.251 OA
BRANCH   5   7
ATOM      7  C   LIG    1       24.567 -25.135   4.869  0.00  0.00    +0.171 C 
BRANCH   7   8
ATOM      8  C   LIG    1       25.472 -23.967   5.209  0.00  0.00    +0.145 C 
BRANCH   8   9
ATOM      9  N   LIG    1       25.246 -23.235   6.560  0.00  0.00    +0.247 N 
ATOM     10  C   LIG    1       25.857 -21.741   6.479  0.00  0.00    +0.102 C 
ATOM     11  C   LIG    1       24.811 -20.832   5.877  0.00  0.00    +0.008 A 
ATOM     12  C   LIG    1       23.482 -20.997   6.257  0.00  0.00    -0.030 A 
ATOM     13  C   LIG    1       22.488 -20.265   5.631  0.00  0.00    +0.053 A 
ATOM     14  C   LIG    1       22.758 -19.333   4.617  0.00  0.00    +0.162 A 
ATOM     15  C   LIG    1       24.098 -19.195   4.160  0.00  0.00    +0.162 A 
ATOM     16  C   LIG    1       23.092 -22.010   7.281  0.00  0.00    +0.086 C 
ATOM     17  C   LIG    1       25.104 -19.939   4.834  0.00  0.00    +0.059 A 
ATOM     18  C   LIG    1       23.733 -23.334   6.942  0.00  0.00    +0.138 C 
ATOM     19  C   LIG    1       25.989 -24.079   7.591  0.00  0.00    +0.193 C 
BRANCH  14  20
ATOM     20  O   LIG    1       21.551 -18.722   4.345  0.00  0.00    -0.491 OA
ATOM     21  C   LIG    1       21.558 -17.342   4.166  0.00  0.00    +0.277 C 
ENDBRANCH  14  20
BRANCH  15  22
ATOM     22  O   LIG    1       24.702 -18.483   3.135  0.00  0.00    -0.491 OA
ATOM     23  C   LIG    1       26.086 -18.262   3.190  0.00  0.00    +0.277 C 
ENDBRANCH  15  22
BRANCH  10  24
ATOM     24  C   LIG    1       26.482 -21.229   7.829  0.00  0.00    +0.095 C 
BRANCH  24  25
ATOM     25  C   LIG    1       27.761 -20.403   7.733  0.00  0.00    -0.038 A 
ATOM     26  C   LIG    1       28.181 -19.857   6.505  0.00  0.00    +0.053 A 
ATOM     27  C   LIG    1       29.350 -19.073   6.398  0.00  0.00    +0.162 A 
ATOM     28  C   LIG    1       30.182 -18.915   7.522  0.00  0.00    +0.162 A 
ATOM     29  C   LIG    1       29.773 -19.467   8.740  0.00  0.00    +0.050 A 
ATOM     30  C   LIG    1       28.584 -20.202   8.845  0.00  0.00    +0.007 A 
BRANCH  28  31
ATOM     31  O   LIG    1       31.347 -18.191   7.401  0.00  0.00    -0.491 OA
ATOM     32  C   LIG    1       31.982 -17.841   8.639  0.00  0.00    +0.277 C 
ENDBRANCH  28  31
BRANCH  27  33
ATOM     33  O   LIG    1       29.727 -18.471   5.220  0.00  0.00    -0.491 OA
ATOM     34  C   LIG    1       28.876 -17.426   4.751  0.00  0.00    +0.277 C 
ENDBRANCH  27  33
ENDBRANCH  24  25
ENDBRANCH  10  24
ENDBRANCH   8   9
ENDBRANCH   7   8
ENDBRANCH   5   7
ENDBRANCH   4   5
ENDBRANCH   3   4
ENDBRANCH   2   3
ENDBRANCH   1   2
BRANCH   1  35
ATOM     35  C   LIG    1       25.484 -31.536   5.462  0.00  0.00    +0.041 C 
BRANCH  35  36
ATOM     36  C   LIG    1       26.452 -31.958   6.614  0.00  0.00    +0.232 C 
BRANCH  36  37
ATOM     37  O   LIG    1       25.796 -32.620   7.639  0.00  0.00    -0.465 OA
BRANCH  37  38
ATOM     38  C   LIG    1       25.805 -31.977   8.726  0.00  0.00    +0.312 C 
ATOM     39  O   LIG    1       26.869 -32.178   9.527  0.00  0.00    -0.251 OA
BRANCH  38  40
ATOM     40  C   LIG    1       24.718 -31.122   9.067  0.00  0.00    +0.171 C 
BRANCH  40  41
ATOM     41  C   LIG    1       24.922 -30.315  10.328  0.00  0.00    +0.145 C 
BRANCH  41  43
ATOM     42  C   LIG    1       23.550 -29.706  12.629  0.00  0.00    +0.102 C 
ATOM     43  N   LIG    1       24.382 -30.811  11.701  0.00  0.00    +0.247 N 
ATOM     44  C   LIG    1       23.561 -32.044  11.290  0.00  0.00    +0.193 C 
ATOM     45  C   LIG    1       25.322 -31.491  12.690  0.00  0.00    +0.138 C 
ATOM     46  C   LIG    1       26.317 -30.590  13.352  0.00  0.00    +0.086 C 
ATOM     47  C   LIG    1       25.841 -29.199  13.695  0.00  0.00    -0.030 A 
ATOM     48  C   LIG    1       26.872 -28.335  14.224  0.00  0.00    +0.053 A 
ATOM     49  C   LIG    1       26.731 -26.933  14.333  0.00  0.00    +0.162 A 
ATOM     50  C   LIG    1       25.361 -26.427  14.087  0.00  0.00    +0.162 A 
ATOM     51  C   LIG    1       24.297 -27.340  13.642  0.00  0.00    +0.059 A 
ATOM     52  C   LIG    1       24.544 -28.718  13.343  0.00  0.00    +0.008 A 
BRANCH  50  53
ATOM     53  O   LIG    1       25.131 -25.057  14.133  0.00  0.00    -0.491 OA
ATOM     54  C   LIG    1       25.012 -24.357  15.392  0.00  0.00    +0.277 C 
ENDBRANCH  50  53
BRANCH  49  55
ATOM     55  O   LIG    1       27.978 -26.107  14.226  0.00  0.00    -0.491 OA
ATOM     56  C   LIG    1       28.181 -24.545  14.640  0.00  0.00    +0.277 C 
ENDBRANCH  49  55
BRANCH  42  57
ATOM     57  C   LIG    1       22.217 -29.154  11.962  0.00  0.00    +0.095 C 
BRANCH  57  61
ATOM     58  C   LIG    1       18.599 -29.256  14.503  0.00  0.00    +0.162 A 
ATOM     59  C   LIG    1       19.382 -28.125  14.448  0.00  0.00    +0.162 A 
ATOM     60  C   LIG    1       20.309 -28.057  13.380  0.00  0.00    +0.053 A 
ATOM     61  C   LIG    1       20.864 -29.151  12.710  0.00  0.00    -0.038 A 
ATOM     62  C   LIG    1       20.076 -30.286  12.774  0.00  0.00    +0.007 A 
ATOM     63  C   LIG    1       18.950 -30.321  13.635  0.00  0.00    +0.050 A 
BRANCH  58  65
ATOM     64  C   LIG    1       16.305 -28.723  14.936  0.00  0.00    +0.277 C 
ATOM     65  O   LIG    1       17.478 -29.468  15.260  0.00  0.00    -0.491 OA
ENDBRANCH  58  65
BRANCH  59  66
ATOM     66  O   LIG    1       19.460 -27.026  15.274  0.00  0.00    -0.491 OA
ATOM     67  C   LIG    1       20.667 -26.263  15.356  0.00  0.00    +0.277 C 
ENDBRANCH  59  66
ENDBRANCH  57  61
ENDBRANCH  42  57
ENDBRANCH  41  43
ENDBRANCH  40  41
ENDBRANCH  38  40
ENDBRANCH  37  38
ENDBRANCH  36  37
ENDBRANCH  35  36
ENDBRANCH   1  35
TORSDOF 26
ENDMDL
MODEL 4
REMARK VINA RESULT:      -6.6      1.889     12.798
REMARK  Name = *****
REMARK                            x       y       z     vdW  Elec       q    Type
REMARK                         _______ _______ _______ _____ _____    ______ ____
ROOT
ATOM      1  C   LIG    1       25.298 -29.375   7.086  0.00  0.00    +0.007 C 
ENDROOT
BRANCH   1   2
ATOM      2  C   LIG    1       24.851 -30.025   5.790  0.00  0.00    +0.041 C 
BRANCH   2   3
ATOM      3  C   LIG    1       25.710 -31.230   5.514  0.00  0.00    +0.232 C 
BRANCH   3   4
ATOM      4  O   LIG    1       25.302 -32.237   6.444  0.00  0.00    -0.465 OA
BRANCH   4   5
ATOM      5  C   LIG    1       26.334 -32.752   7.159  0.00  0.00    +0.312 C 
ATOM      6  O   LIG    1       27.522 -32.640   6.892  0.00  0.00    -0.251 OA
BRANCH   5   7
ATOM      7  C   LIG    1       25.819 -33.535   8.332  0.00  0.00    +0.171 C 
BRANCH   7   8
ATOM      8  C   LIG    1       25.427 -32.484   9.351  0.00  0.00    +0.145 C 
BRANCH   8   9
ATOM      9  N   LIG    1       23.931 -32.379   9.756  0.00  0.00    +0.247 N 
ATOM     10  C   LIG    1       23.771 -32.683  11.335  0.00  0.00    +0.102 C 
ATOM     11  C   LIG    1       24.007 -31.396  12.092  0.00  0.00    +0.008 A 
ATOM     12  C   LIG    1       23.486 -30.212  11.578  0.00  0.00    -0.030 A 
ATOM     13  C   LIG    1       23.791 -29.003  12.180  0.00  0.00    +0.053 A 
ATOM     14  C   LIG    1       24.607 -28.909  13.319  0.00  0.00    +0.162 A 
ATOM     15  C   LIG    1       25.208 -30.095  13.824  0.00  0.00    +0.162 A 
ATOM     16  C   LIG    1       22.662 -30.208  10.334  0.00  0.00    +0.086 C 
ATOM     17  C   LIG    1       24.861 -31.326  13.204  0.00  0.00    +0.059 A 
ATOM     18  C   LIG    1       23.368 -31.006   9.264  0.00  0.00    +0.138 C 
ATOM     19  C   LIG    1       23.224 -33.439   8.918  0.00  0.00    +0.193 C 
BRANCH  14  20
ATOM     20  O   LIG    1       24.564 -27.582  13.694  0.00  0.00    -0.491 OA
ATOM     21  C   LIG    1       23.430 -26.854  13.347  0.00  0.00    +0.277 C 
ENDBRANCH  14  20
BRANCH  15  22
ATOM     22  O   LIG    1       26.130 -30.362  14.826  0.00  0.00    -0.491 OA
ATOM     23  C   LIG    1       27.452 -30.658  14.467  0.00  0.00    +0.277 C 
ENDBRANCH  15  22
BRANCH  10  24
ATOM     24  C   LIG    1       22.445 -33.440  11.713  0.00  0.00    +0.095 C 
BRANCH  24  25
ATOM     25  C   LIG    1       21.296 -32.600  12.259  0.00  0.00    -0.038 A 
ATOM     26  C   LIG    1       20.146 -32.354  11.483  0.00  0.00    +0.053 A 
ATOM     27  C   LIG    1       19.062 -31.596  11.975  0.00  0.00    +0.162 A 
ATOM     28  C   LIG    1       19.168 -30.974  13.233  0.00  0.00    +0.162 A 
ATOM     29  C   LIG    1       20.315 -31.205  14.000  0.00  0.00    +0.050 A 
ATOM     30  C   LIG    1       21.364 -32.002  13.521  0.00  0.00    +0.007 A 
BRANCH  28  31
ATOM     31  O   LIG    1       18.128 -30.194  13.689  0.00  0.00    -0.491 OA
ATOM     32  C   LIG    1       18.471 -29.258  14.722  0.00  0.00    +0.277 C 
ENDBRANCH  28  31
BRANCH  27  33
ATOM     33  O   LIG    1       17.903 -31.416  11.257  0.00  0.00    -0.491 OA
ATOM     34  C   LIG    1       18.042 -31.413   9.836  0.00  0.00    +0.277 C 
ENDBRANCH  27  33
ENDBRANCH  24  25
ENDBRANCH  10  24
ENDBRANCH   8   9
ENDBRANCH   7   8
ENDBRANCH   5   7
ENDBRANCH   4   5
ENDBRANCH   3   4
ENDBRANCH   2   3
ENDBRANCH   1   2
BRANCH   1  35
ATOM     35  C   LIG    1       24.990 -27.934   7.025  0.00  0.00    +0.041 C 
BRANCH  35  36
ATOM     36  C   LIG    1       24.341 -27.610   5.641  0.00  0.00    +0.232 C 
BRANCH  36  37
ATOM     37  O   LIG    1       24.035 -26.266   5.502  0.00  0.00    -0.465 OA
BRANCH  37  38
ATOM     38  C   LIG    1       25.031 -25.564   5.172  0.00  0.00    +0.312 C 
ATOM     39  O   LIG    1       25.861 -26.102   4.258  0.00  0.00    -0.251 OA
BRANCH  38  40
ATOM     40  C   LIG    1       25.249 -24.293   5.778  0.00  0.00    +0.171 C 
BRANCH  40  41
ATOM     41  C   LIG    1       24.556 -23.140   5.089  0.00  0.00    +0.145 C 
BRANCH  41  43
ATOM     42  C   LIG    1       24.972 -20.476   5.617  0.00  0.00    +0.102 C 
ATOM     43  N   LIG    1       24.109 -21.877   5.880  0.00  0.00    +0.247 N 
ATOM     44  C   LIG    1       22.620 -21.784   5.512  0.00  0.00    +0.193 C 
ATOM     45  C   LIG    1       23.959 -21.940   7.396  0.00  0.00    +0.138 C 
ATOM     46  C   LIG    1       25.240 -22.027   8.164  0.00  0.00    +0.086 C 
ATOM     47  C   LIG    1       26.408 -21.241   7.617  0.00  0.00    -0.030 A 
ATOM     48  C   LIG    1       27.648 -21.453   8.328  0.00  0.00    +0.053 A 
ATOM     49  C   LIG    1       28.909 -21.062   7.824  0.00  0.00    +0.162 A 
ATOM     50  C   LIG    1       28.856 -20.205   6.617  0.00  0.00    +0.162 A 
ATOM     51  C   LIG    1       27.571 -19.920   5.961  0.00  0.00    +0.059 A 
ATOM     52  C   LIG    1       26.341 -20.514   6.391  0.00  0.00    +0.008 A 
BRANCH  50  53
ATOM     53  O   LIG    1       30.047 -19.802   6.024  0.00  0.00    -0.491 OA
ATOM     54  C   LIG    1       30.956 -18.904   6.700  0.00  0.00    +0.277 C 
ENDBRANCH  50  53
BRANCH  49  55
ATOM     55  O   LIG    1       30.098 -21.877   8.240  0.00  0.00    -0.491 OA
ATOM     56  C   LIG    1       31.292 -21.452   9.263  0.00  0.00    +0.277 C 
ENDBRANCH  49  55
BRANCH  42  57
ATOM     57  C   LIG    1       24.912 -19.934   4.125  0.00  0.00    +0.095 C 
BRANCH  57  61
ATOM     58  C   LIG    1       24.896 -15.538   3.649  0.00  0.00    +0.162 A 
ATOM     59  C   LIG    1       26.052 -16.257   3.447  0.00  0.00    +0.162 A 
ATOM     60  C   LIG    1       25.899 -17.656   3.291  0.00  0.00    +0.053 A 
ATOM     61  C   LIG    1       24.848 -18.424   3.801  0.00  0.00    -0.038 A 
ATOM     62  C   LIG    1       23.691 -17.694   4.009  0.00  0.00    +0.007 A 
ATOM     63  C   LIG    1       23.716 -16.279   3.906  0.00  0.00    +0.050 A 
BRANCH  58  65
ATOM     64  C   LIG    1       23.525 -13.631   4.118  0.00  0.00    +0.277 C 
ATOM     65  O   LIG    1       24.728 -14.180   3.582  0.00  0.00    -0.491 OA
ENDBRANCH  58  65
BRANCH  59  66
ATOM     66  O   LIG    1       27.372 -15.871   3.392  0.00  0.00    -0.491 OA
ATOM     67  C   LIG    1       27.798 -14.649   4.003  0.00  0.00    +0.277 C 
ENDBRANCH  59  66
ENDBRANCH  57  61
ENDBRANCH  42  57
ENDBRANCH  41  43
ENDBRANCH  40  41
ENDBRANCH  38  40
ENDBRANCH  37  38
ENDBRANCH  36  37
ENDBRANCH  35  36
ENDBRANCH   1  35
TORSDOF 26
ENDMDL
MODEL 5
REMARK VINA RESULT:      -6.4      2.203     11.663
REMARK  Name = *****
REMARK                            x       y       z     vdW  Elec       q    Type
REMARK                         _______ _______ _______ _____ _____    ______ ____
ROOT
ATOM      1  C   LIG    1       25.381 -29.540   5.794  0.00  0.00    +0.007 C 
ENDROOT
BRANCH   1   2
ATOM      2  C   LIG    1       24.075 -30.053   6.370  0.00  0.00    +0.041 C 
BRANCH   2   3
ATOM      3  C   LIG    1       23.745 -31.384   5.750  0.00  0.00    +0.232 C 
BRANCH   3   4
ATOM      4  O   LIG    1       24.451 -32.368   6.510  0.00  0.00    -0.465 OA
BRANCH   4   5
ATOM      5  C   LIG    1       23.633 -33.163   7.245  0.00  0.00    +0.312 C 
ATOM      6  O   LIG    1       22.487 -33.478   6.958  0.00  0.00    -0.251 OA
BRANCH   5   7
ATOM      7  C   LIG    1       24.315 -33.585   8.514  0.00  0.00    +0.171 C 
BRANCH   7   8
ATOM      8  C   LIG    1       24.076 -32.439   9.476  0.00  0.00    +0.145 C 
BRANCH   8   9
ATOM      9  N   LIG    1       25.265 -31.959  10.353  0.00  0.00    +0.247 N 
ATOM     10  C   LIG    1       25.152 -30.366  10.600  0.00  0.00    +0.102 C 
ATOM     11  C   LIG    1       24.253 -30.134  11.793  0.00  0.00    +0.008 A 
ATOM     12  C   LIG    1       24.368 -30.980  12.892  0.00  0.00    -0.030 A 
ATOM     13  C   LIG    1       23.476 -30.870  13.945  0.00  0.00    +0.053 A 
ATOM     14  C   LIG    1       22.445 -29.919  13.969  0.00  0.00    +0.162 A 
ATOM     15  C   LIG    1       22.261 -29.088  12.829  0.00  0.00    +0.162 A 
ATOM     16  C   LIG    1       25.393 -32.064  12.928  0.00  0.00    +0.086 C 
ATOM     17  C   LIG    1       23.203 -29.202  11.771  0.00  0.00    +0.059 A 
ATOM     18  C   LIG    1       25.337 -32.846  11.638  0.00  0.00    +0.138 C 
ATOM     19  C   LIG    1       26.511 -32.303   9.543  0.00  0.00    +0.193 C 
BRANCH  14  20
ATOM     20  O   LIG    1       21.868 -30.030  15.217  0.00  0.00    -0.491 OA
ATOM     21  C   LIG    1       20.726 -30.818  15.327  0.00  0.00    +0.277 C 
ENDBRANCH  14  20
BRANCH  15  22
ATOM     22  O   LIG    1       21.311 -28.146  12.460  0.00  0.00    -0.491 OA
ATOM     23  C   LIG    1       21.039 -27.084  13.334  0.00  0.00    +0.277 C 
ENDBRANCH  15  22
BRANCH  10  24
ATOM     24  C   LIG    1       26.538 -29.625  10.660  0.00  0.00    +0.095 C 
BRANCH  24  25
ATOM     25  C   LIG    1       26.800 -28.739  11.874  0.00  0.00    -0.038 A 
ATOM     26  C   LIG    1       26.456 -27.373  11.862  0.00  0.00    +0.053 A 
ATOM     27  C   LIG    1       26.671 -26.540  12.981  0.00  0.00    +0.162 A 
ATOM     28  C   LIG    1       27.345 -27.052  14.105  0.00  0.00    +0.162 A 
ATOM     29  C   LIG    1       27.700 -28.405  14.114  0.00  0.00    +0.050 A 
ATOM     30  C   LIG    1       27.436 -29.235  13.016  0.00  0.00    +0.007 A 
BRANCH  28  31
ATOM     31  O   LIG    1       27.598 -26.223  15.176  0.00  0.00    -0.491 OA
ATOM     32  C   LIG    1       28.227 -24.976  14.850  0.00  0.00    +0.277 C 
ENDBRANCH  28  31
BRANCH  27  33
ATOM     33  O   LIG    1       26.268 -25.225  13.008  0.00  0.00    -0.491 OA
ATOM     34  C   LIG    1       25.073 -24.953  13.740  0.00  0.00    +0.277 C 
ENDBRANCH  27  33
ENDBRANCH  24  25
ENDBRANCH  10  24
ENDBRANCH   8   9
ENDBRANCH   7   8
ENDBRANCH   5   7
ENDBRANCH   4   5
ENDBRANCH   3   4
ENDBRANCH   2   3
ENDBRANCH   1   2
BRANCH   1  35
ATOM     35  C   LIG    1       25.113 -28.306   5.032  0.00  0.00    +0.041 C 
BRANCH  35  36
ATOM     36  C   LIG    1       24.346 -27.299   5.949  0.00  0.00    +0.232 C 
BRANCH  36  37
ATOM     37  O   LIG    1       24.441 -25.994   5.495  0.00  0.00    -0.465 OA
BRANCH  37  38
ATOM     38  C   LIG    1       25.292 -25.310   6.130  0.00  0.00    +0.312 C 
ATOM     39  O   LIG    1       25.866 -25.912   7.189  0.00  0.00    -0.251 OA
BRANCH  38  40
ATOM     40  C   LIG    1       25.581 -23.972   5.736  0.00  0.00    +0.171 C 
BRANCH  40  41
ATOM     41  C   LIG    1       24.379 -23.177   5.280  0.00  0.00    +0.145 C 
BRANCH  41  43
ATOM     42  C   LIG    1       24.810 -20.498   5.712  0.00  0.00    +0.102 C 
ATOM     43  N   LIG    1       23.938 -21.883   6.022  0.00  0.00    +0.247 N 
ATOM     44  C   LIG    1       22.450 -21.795   5.647  0.00  0.00    +0.193 C 
ATOM     45  C   LIG    1       23.783 -21.889   7.540  0.00  0.00    +0.138 C 
ATOM     46  C   LIG    1       25.061 -21.956   8.315  0.00  0.00    +0.086 C 
ATOM     47  C   LIG    1       26.235 -21.197   7.742  0.00  0.00    -0.030 A 
ATOM     48  C   LIG    1       27.472 -21.391   8.465  0.00  0.00    +0.053 A 
ATOM     49  C   LIG    1       28.737 -21.026   7.951  0.00  0.00    +0.162 A 
ATOM     50  C   LIG    1       28.693 -20.214   6.714  0.00  0.00    +0.162 A 
ATOM     51  C   LIG    1       27.412 -19.945   6.043  0.00  0.00    +0.059 A 
ATOM     52  C   LIG    1       26.177 -20.515   6.491  0.00  0.00    +0.008 A 
BRANCH  50  53
ATOM     53  O   LIG    1       29.888 -19.840   6.110  0.00  0.00    -0.491 OA
ATOM     54  C   LIG    1       30.737 -18.824   6.691  0.00  0.00    +0.277 C 
ENDBRANCH  50  53
BRANCH  49  55
ATOM     55  O   LIG    1       29.920 -21.832   8.401  0.00  0.00    -0.491 OA
ATOM     56  C   LIG    1       31.266 -21.300   9.148  0.00  0.00    +0.277 C 
ENDBRANCH  49  55
BRANCH  42  57
ATOM     57  C   LIG    1       24.758 -20.010   4.200  0.00  0.00    +0.095 C 
BRANCH  57  61
ATOM     58  C   LIG    1       24.765 -15.635   3.563  0.00  0.00    +0.162 A 
ATOM     59  C   LIG    1       25.917 -16.368   3.385  0.00  0.00    +0.162 A 
ATOM     60  C   LIG    1       25.756 -17.770   3.281  0.00  0.00    +0.053 A 
ATOM     61  C   LIG    1       24.701 -18.513   3.821  0.00  0.00    -0.038 A 
ATOM     62  C   LIG    1       23.549 -17.769   4.005  0.00  0.00    +0.007 A 
ATOM     63  C   LIG    1       23.582 -16.360   3.850  0.00  0.00    +0.050 A 
BRANCH  58  65
ATOM     64  C   LIG    1       23.946 -13.594   4.510  0.00  0.00    +0.277 C 
ATOM     65  O   LIG    1       24.604 -14.280   3.447  0.00  0.00    -0.491 OA
ENDBRANCH  58  65
BRANCH  59  66
ATOM     66  O   LIG    1       27.239 -15.991   3.313  0.00  0.00    -0.491 OA
ATOM     67  C   LIG    1       27.702 -14.829   4.008  0.00  0.00    +0.277 C 
ENDBRANCH  59  66
ENDBRANCH  57  61
ENDBRANCH  42  57
ENDBRANCH  41  43
ENDBRANCH  40  41
ENDBRANCH  38  40
ENDBRANCH  37  38
ENDBRANCH  36  37
ENDBRANCH  35  36
ENDBRANCH   1  35
TORSDOF 26
ENDMDL
MODEL 6
REMARK VINA RESULT:      -6.3      2.073     12.611
REMARK  Name = *****
REMARK                            x       y       z     vdW  Elec       q    Type
REMARK                         _______ _______ _______ _____ _____    ______ ____
ROOT
ATOM      1  C   LIG    1       25.097 -29.880   5.563  0.00  0.00    +0.007 C 
ENDROOT
BRANCH   1   2
ATOM      2  C   LIG    1       24.355 -30.742   6.567  0.00  0.00    +0.041 C 
BRANCH   2   3
ATOM      3  C   LIG    1       25.027 -32.085   6.664  0.00  0.00    +0.232 C 
BRANCH   3   4
ATOM      4  O   LIG    1       25.547 -32.180   7.993  0.00  0.00    -0.465 OA
BRANCH   4   5
ATOM      5  C   LIG    1       24.920 -33.119   8.745  0.00  0.00    +0.312 C 
ATOM      6  O   LIG    1       23.884 -33.700   8.455  0.00  0.00    -0.251 OA
BRANCH   5   7
ATOM      7  C   LIG    1       25.655 -33.332  10.036  0.00  0.00    +0.171 C 
BRANCH   7   8
ATOM      8  C   LIG    1       24.578 -33.286  11.102  0.00  0.00    +0.145 C 
BRANCH   8   9
ATOM      9  N   LIG    1       24.422 -31.980  11.929  0.00  0.00    +0.247 N 
ATOM     10  C   LIG    1       23.248 -31.069  11.292  0.00  0.00    +0.102 C 
ATOM     11  C   LIG    1       21.928 -31.525  11.870  0.00  0.00    +0.008 A 
ATOM     12  C   LIG    1       21.867 -31.855  13.221  0.00  0.00    -0.030 A 
ATOM     13  C   LIG    1       20.706 -32.394  13.750  0.00  0.00    +0.053 A 
ATOM     14  C   LIG    1       19.555 -32.617  12.979  0.00  0.00    +0.162 A 
ATOM     15  C   LIG    1       19.611 -32.354  11.581  0.00  0.00    +0.162 A 
ATOM     16  C   LIG    1       23.061 -31.713  14.105  0.00  0.00    +0.086 C 
ATOM     17  C   LIG    1       20.805 -31.779  11.067  0.00  0.00    +0.059 A 
ATOM     18  C   LIG    1       24.255 -32.353  13.438  0.00  0.00    +0.138 C 
ATOM     19  C   LIG    1       25.776 -31.286  11.822  0.00  0.00    +0.193 C 
BRANCH  14  20
ATOM     20  O   LIG    1       18.586 -33.027  13.871  0.00  0.00    -0.491 OA
ATOM     21  C   LIG    1       18.568 -32.416  15.122  0.00  0.00    +0.277 C 
ENDBRANCH  14  20
BRANCH  15  22
ATOM     22  O   LIG    1       18.738 -32.554  10.523  0.00  0.00    -0.491 OA
ATOM     23  C   LIG    1       18.005 -31.463  10.035  0.00  0.00    +0.277 C 
ENDBRANCH  15  22
BRANCH  10  24
ATOM     24  C   LIG    1       23.513 -29.521  11.386  0.00  0.00    +0.095 C 
BRANCH  24  25
ATOM     25  C   LIG    1       22.664 -28.729  12.375  0.00  0.00    -0.038 A 
ATOM     26  C   LIG    1       23.244 -28.130  13.510  0.00  0.00    +0.053 A 
ATOM     27  C   LIG    1       22.481 -27.376  14.427  0.00  0.00    +0.162 A 
ATOM     28  C   LIG    1       21.084 -27.305  14.271  0.00  0.00    +0.162 A 
ATOM     29  C   LIG    1       20.504 -27.911  13.152  0.00  0.00    +0.050 A 
ATOM     30  C   LIG    1       21.279 -28.615  12.220  0.00  0.00    +0.007 A 
BRANCH  28  31
ATOM     31  O   LIG    1       20.336 -26.610  15.196  0.00  0.00    -0.491 OA
ATOM     32  C   LIG    1       18.929 -26.887  15.179  0.00  0.00    +0.277 C 
ENDBRANCH  28  31
BRANCH  27  33
ATOM     33  O   LIG    1       23.049 -26.722  15.495  0.00  0.00    -0.491 OA
ATOM     34  C   LIG    1       24.209 -25.941  15.205  0.00  0.00    +0.277 C 
ENDBRANCH  27  33
ENDBRANCH  24  25
ENDBRANCH  10  24
ENDBRANCH   8   9
ENDBRANCH   7   8
ENDBRANCH   5   7
ENDBRANCH   4   5
ENDBRANCH   3   4
ENDBRANCH   2   3
ENDBRANCH   1   2
BRANCH   1  35
ATOM     35  C   LIG    1       24.262 -28.710   5.232  0.00  0.00    +0.041 C 
BRANCH  35  36
ATOM     36  C   LIG    1       24.678 -27.513   6.147  0.00  0.00    +0.232 C 
BRANCH  36  37
ATOM     37  O   LIG    1       24.158 -26.307   5.708  0.00  0.00    -0.465 OA
BRANCH  37  38
ATOM     38  C   LIG    1       25.025 -25.560   5.174  0.00  0.00    +0.312 C 
ATOM     39  O   LIG    1       25.677 -26.072   4.113  0.00  0.00    -0.251 OA
BRANCH  38  40
ATOM     40  C   LIG    1       25.292 -24.268   5.711  0.00  0.00    +0.171 C 
BRANCH  40  41
ATOM     41  C   LIG    1       24.522 -23.143   5.058  0.00  0.00    +0.145 C 
BRANCH  41  43
ATOM     42  C   LIG    1       24.920 -20.485   5.625  0.00  0.00    +0.102 C 
ATOM     43  N   LIG    1       24.069 -21.896   5.870  0.00  0.00    +0.247 N 
ATOM     44  C   LIG    1       22.577 -21.810   5.512  0.00  0.00    +0.193 C 
ATOM     45  C   LIG    1       23.929 -21.983   7.387  0.00  0.00    +0.138 C 
ATOM     46  C   LIG    1       25.214 -22.072   8.146  0.00  0.00    +0.086 C 
ATOM     47  C   LIG    1       26.373 -21.268   7.605  0.00  0.00    -0.030 A 
ATOM     48  C   LIG    1       27.618 -21.482   8.306  0.00  0.00    +0.053 A 
ATOM     49  C   LIG    1       28.874 -21.073   7.801  0.00  0.00    +0.162 A 
ATOM     50  C   LIG    1       28.807 -20.198   6.608  0.00  0.00    +0.162 A 
ATOM     51  C   LIG    1       27.517 -19.913   5.963  0.00  0.00    +0.059 A 
ATOM     52  C   LIG    1       26.294 -20.523   6.391  0.00  0.00    +0.008 A 
BRANCH  50  53
ATOM     53  O   LIG    1       29.992 -19.777   6.015  0.00  0.00    -0.491 OA
ATOM     54  C   LIG    1       30.881 -18.855   6.685  0.00  0.00    +0.277 C 
ENDBRANCH  50  53
BRANCH  49  55
ATOM     55  O   LIG    1       30.071 -21.884   8.199  0.00  0.00    -0.491 OA
ATOM     56  C   LIG    1       31.156 -21.558   9.368  0.00  0.00    +0.277 C 
ENDBRANCH  49  55
BRANCH  42  57
ATOM     57  C   LIG    1       24.848 -19.920   4.141  0.00  0.00    +0.095 C 
BRANCH  57  61
ATOM     58  C   LIG    1       24.718 -15.520   3.725  0.00  0.00    +0.162 A 
ATOM     59  C   LIG    1       25.872 -16.214   3.438  0.00  0.00    +0.162 A 
ATOM     60  C   LIG    1       25.735 -17.614   3.274  0.00  0.00    +0.053 A 
ATOM     61  C   LIG    1       24.734 -18.408   3.842  0.00  0.00    -0.038 A 
ATOM     62  C   LIG    1       23.580 -17.703   4.135  0.00  0.00    +0.007 A 
ATOM     63  C   LIG    1       23.572 -16.287   4.049  0.00  0.00    +0.050 A 
BRANCH  58  65
ATOM     64  C   LIG    1       24.192 -13.575   2.429  0.00  0.00    +0.277 C 
ATOM     65  O   LIG    1       24.521 -14.165   3.687  0.00  0.00    -0.491 OA
ENDBRANCH  58  65
BRANCH  59  66
ATOM     66  O   LIG    1       27.178 -15.801   3.302  0.00  0.00    -0.491 OA
ATOM     67  C   LIG    1       27.648 -14.637   3.989  0.00  0.00    +0.277 C 
ENDBRANCH  59  66
ENDBRANCH  57  61
ENDBRANCH  42  57
ENDBRANCH  41  43
ENDBRANCH  40  41
ENDBRANCH  38  40
ENDBRANCH  37  38
ENDBRANCH  36  37
ENDBRANCH  35  36
ENDBRANCH   1  35
TORSDOF 26
ENDMDL
MODEL 7
REMARK VINA RESULT:      -5.9      1.770      2.336
REMARK  Name = *****
REMARK                            x       y       z     vdW  Elec       q    Type
REMARK                         _______ _______ _______ _____ _____    ______ ____
ROOT
ATOM      1  C   LIG    1       25.190 -28.974   7.570  0.00  0.00    +0.007 C 
ENDROOT
BRANCH   1   2
ATOM      2  C   LIG    1       24.024 -28.583   6.681  0.00  0.00    +0.041 C 
BRANCH   2   3
ATOM      3  C   LIG    1       24.514 -28.391   5.272  0.00  0.00    +0.232 C 
BRANCH   3   4
ATOM      4  O   LIG    1       24.493 -26.982   5.026  0.00  0.00    -0.465 OA
BRANCH   4   5
ATOM      5  C   LIG    1       25.731 -26.450   4.866  0.00  0.00    +0.312 C 
ATOM      6  O   LIG    1       26.791 -27.014   5.091  0.00  0.00    -0.251 OA
BRANCH   5   7
ATOM      7  C   LIG    1       25.632 -25.025   4.405  0.00  0.00    +0.171 C 
BRANCH   7   8
ATOM      8  C   LIG    1       24.379 -24.493   5.071  0.00  0.00    +0.145 C 
BRANCH   8   9
ATOM      9  N   LIG    1       24.531 -23.740   6.422  0.00  0.00    +0.247 N 
ATOM     10  C   LIG    1       25.536 -22.487   6.237  0.00  0.00    +0.102 C 
ATOM     11  C   LIG    1       24.736 -21.307   5.735  0.00  0.00    +0.008 A 
ATOM     12  C   LIG    1       23.469 -21.083   6.267  0.00  0.00    -0.030 A 
ATOM     13  C   LIG    1       22.664 -20.087   5.739  0.00  0.00    +0.053 A 
ATOM     14  C   LIG    1       23.075 -19.264   4.679  0.00  0.00    +0.162 A 
ATOM     15  C   LIG    1       24.336 -19.516   4.071  0.00  0.00    +0.162 A 
ATOM     16  C   LIG    1       22.922 -21.950   7.352  0.00  0.00    +0.086 C 
ATOM     17  C   LIG    1       25.154 -20.527   4.646  0.00  0.00    +0.059 A 
ATOM     18  C   LIG    1       23.109 -23.399   6.974  0.00  0.00    +0.138 C 
ATOM     19  C   LIG    1       25.111 -24.774   7.382  0.00  0.00    +0.193 C 
BRANCH  14  20
ATOM     20  O   LIG    1       22.074 -18.326   4.531  0.00  0.00    -0.491 OA
ATOM     21  C   LIG    1       20.919 -18.722   3.862  0.00  0.00    +0.277 C 
ENDBRANCH  14  20
BRANCH  15  22
ATOM     22  O   LIG    1       25.000 -19.000   2.968  0.00  0.00    -0.491 OA
ATOM     23  C   LIG    1       25.980 -18.018   3.168  0.00  0.00    +0.277 C 
ENDBRANCH  15  22
BRANCH  10  24
ATOM     24  C   LIG    1       26.432 -22.192   7.496  0.00  0.00    +0.095 C 
BRANCH  24  25
ATOM     25  C   LIG    1       27.685 -21.350   7.275  0.00  0.00    -0.038 A 
ATOM     26  C   LIG    1       28.830 -21.531   8.074  0.00  0.00    +0.053 A 
ATOM     27  C   LIG    1       30.006 -20.777   7.874  0.00  0.00    +0.162 A 
ATOM     28  C   LIG    1       30.009 -19.740   6.923  0.00  0.00    +0.162 A 
ATOM     29  C   LIG    1       28.868 -19.549   6.138  0.00  0.00    +0.050 A 
ATOM     30  C   LIG    1       27.722 -20.338   6.311  0.00  0.00    +0.007 A 
BRANCH  28  31
ATOM     31  O   LIG    1       31.142 -18.973   6.765  0.00  0.00    -0.491 OA
ATOM     32  C   LIG    1       31.514 -18.186   7.906  0.00  0.00    +0.277 C 
ENDBRANCH  28  31
BRANCH  27  33
ATOM     33  O   LIG    1       31.155 -20.999   8.597  0.00  0.00    -0.491 OA
ATOM     34  C   LIG    1       31.204 -22.222   9.333  0.00  0.00    +0.277 C 
ENDBRANCH  27  33
ENDBRANCH  24  25
ENDBRANCH  10  24
ENDBRANCH   8   9
ENDBRANCH   7   8
ENDBRANCH   5   7
ENDBRANCH   4   5
ENDBRANCH   3   4
ENDBRANCH   2   3
ENDBRANCH   1   2
BRANCH   1  35
ATOM     35  C   LIG    1       25.451 -30.416   7.405  0.00  0.00    +0.041 C 
BRANCH  35  36
ATOM     36  C   LIG    1       25.957 -30.999   8.764  0.00  0.00    +0.232 C 
BRANCH  36  37
ATOM     37  O   LIG    1       24.924 -31.233   9.656  0.00  0.00    -0.465 OA
BRANCH  37  38
ATOM     38  C   LIG    1       25.013 -32.353  10.233  0.00  0.00    +0.312 C 
ATOM     39  O   LIG    1       25.107 -33.429   9.430  0.00  0.00    -0.251 OA
BRANCH  38  40
ATOM     40  C   LIG    1       24.982 -32.435  11.655  0.00  0.00    +0.171 C 
BRANCH  40  41
ATOM     41  C   LIG    1       24.883 -31.102  12.361  0.00  0.00    +0.145 C 
BRANCH  41  43
ATOM     42  C   LIG    1       24.106 -29.473  14.432  0.00  0.00    +0.102 C 
ATOM     43  N   LIG    1       24.380 -31.002  13.830  0.00  0.00    +0.247 N 
ATOM     44  C   LIG    1       23.138 -31.906  13.801  0.00  0.00    +0.193 C 
ATOM     45  C   LIG    1       25.142 -31.708  14.947  0.00  0.00    +0.138 C 
ATOM     46  C   LIG    1       26.462 -31.101  15.306  0.00  0.00    +0.086 C 
ATOM     47  C   LIG    1       26.545 -29.594  15.257  0.00  0.00    -0.030 A 
ATOM     48  C   LIG    1       27.869 -29.068  15.498  0.00  0.00    +0.053 A 
ATOM     49  C   LIG    1       28.238 -27.733  15.214  0.00  0.00    +0.162 A 
ATOM     50  C   LIG    1       27.110 -26.838  14.870  0.00  0.00    +0.162 A 
ATOM     51  C   LIG    1       25.749 -27.375  14.724  0.00  0.00    +0.059 A 
ATOM     52  C   LIG    1       25.463 -28.775  14.817  0.00  0.00    +0.008 A 
BRANCH  50  53
ATOM     53  O   LIG    1       27.378 -25.515  14.536  0.00  0.00    -0.491 OA
ATOM     54  C   LIG    1       26.447 -24.457  14.855  0.00  0.00    +0.277 C 
ENDBRANCH  50  53
BRANCH  49  55
ATOM     55  O   LIG    1       29.671 -27.480  14.850  0.00  0.00    -0.491 OA
ATOM     56  C   LIG    1       31.003 -28.155  15.500  0.00  0.00    +0.277 C 
ENDBRANCH  49  55
BRANCH  42  57
ATOM     57  C   LIG    1       22.976 -28.656  13.671  0.00  0.00    +0.095 C 
BRANCH  57  61
ATOM     58  C   LIG    1       19.566 -31.033  12.161  0.00  0.00    +0.162 A 
ATOM     59  C   LIG    1       19.646 -30.694  13.493  0.00  0.00    +0.162 A 
ATOM     60  C   LIG    1       20.567 -29.672  13.825  0.00  0.00    +0.053 A 
ATOM     61  C   LIG    1       21.714 -29.339  13.097  0.00  0.00    -0.038 A 
ATOM     62  C   LIG    1       21.631 -29.688  11.760  0.00  0.00    +0.007 A 
ATOM     63  C   LIG    1       20.560 -30.497  11.303  0.00  0.00    +0.050 A 
BRANCH  58  65
ATOM     64  C   LIG    1       17.273 -31.286  11.519  0.00  0.00    +0.277 C 
ATOM     65  O   LIG    1       18.608 -31.790  11.541  0.00  0.00    -0.491 OA
ENDBRANCH  58  65
BRANCH  59  66
ATOM     66  O   LIG    1       19.001 -31.191  14.603  0.00  0.00    -0.491 OA
ATOM     67  C   LIG    1       19.147 -32.566  14.973  0.00  0.00    +0.277 C 
ENDBRANCH  59  66
ENDBRANCH  57  61
ENDBRANCH  42  57
ENDBRANCH  41  43
ENDBRANCH  40  41
ENDBRANCH  38  40
ENDBRANCH  37  38
ENDBRANCH  36  37
ENDBRANCH  35  36
ENDBRANCH   1  35
TORSDOF 26
ENDMDL
