MODEL 1
REMARK VINA RESULT:      -8.2      0.000      0.000
REMARK  Name = *****
REMARK                            x       y       z     vdW  Elec       q    Type
REMARK                         _______ _______ _______ _____ _____    ______ ____
ROOT
ATOM      1  C   LIG    1       25.693 -27.546   6.847  0.00  0.00    +0.210 A 
ATOM      2  N   LIG    1       25.074 -26.361   7.192  0.00  0.00    -0.187 NA
ATOM      3  C   LIG    1       25.737 -25.467   6.493  0.00  0.00    +0.259 A 
ATOM      4  O   LIG    1       26.768 -26.014   5.784  0.00  0.00    -0.333 OA
ATOM      5  N   LIG    1       26.726 -27.383   6.007  0.00  0.00    -0.055 NA
ENDROOT
BRANCH   1   8
ATOM      6  C   LIG    1       26.572 -28.478   9.498  0.00  0.00    +0.046 C 
ATOM      7  C   LIG    1       25.677 -29.333   8.621  0.00  0.00    -0.008 C 
ATOM      8  C   LIG    1       25.257 -28.857   7.345  0.00  0.00    +0.112 C 
ATOM      9  C   LIG    1       24.429 -29.674   6.542  0.00  0.00    +0.300 C 
ATOM     10 CL   LIG    1       23.952 -29.191   4.929  0.00  0.00    -0.009 Cl
ATOM     11  N   LIG    1       24.005 -30.932   7.004  0.00  0.00    -0.156 NA
ATOM     12  O   LIG    1       23.245 -31.670   6.280  0.00  0.00    -0.619 OA
ATOM     13  C   LIG    1       24.417 -31.402   8.252  0.00  0.00    +0.212 C 
ATOM     14  C   LIG    1       23.914 -32.767   8.627  0.00  0.00    +0.125 C 
ATOM     15  C   LIG    1       25.263 -30.613   9.047  0.00  0.00    +0.112 C 
ATOM     16 CL   LIG    1       25.802 -31.246  10.573  0.00  0.00    -0.077 Cl
ENDBRANCH   1   8
BRANCH   3  17
ATOM     17  C   LIG    1       25.526 -24.029   6.339  0.00  0.00    +0.050 A 
ATOM     18  C   LIG    1       26.011 -23.110   7.286  0.00  0.00    +0.101 A 
ATOM     19  C   LIG    1       25.799 -21.733   7.104  0.00  0.00    +0.318 A 
ATOM     20  C   LIG    1       25.106 -21.253   6.004  0.00  0.00    +0.237 A 
ATOM     21  C   LIG    1       24.634 -22.164   5.060  0.00  0.00    +0.166 A 
ATOM     22  C   LIG    1       24.836 -23.537   5.215  0.00  0.00    +0.062 A 
BRANCH  19  23
ATOM     23  N   LIG    1       26.311 -20.827   8.110  0.00  0.00    +0.084 N 
ATOM     24  O   LIG    1       25.850 -20.938   9.247  0.00  0.00    -0.576 OA
ATOM     25  O   LIG    1       27.240 -20.068   7.777  0.00  0.00    +0.042 OA
ENDBRANCH  19  23
BRANCH  20  26
ATOM     26  O   LIG    1       24.847 -19.926   5.825  0.00  0.00    -0.499 OA
ATOM     27  H   LIG    1       24.867 -19.776   4.858  0.00  0.00    +0.292 HD
ENDBRANCH  20  26
BRANCH  21  28
ATOM     28  O   LIG    1       23.959 -21.654   3.984  0.00  0.00    -0.503 OA
ATOM     29  H   LIG    1       24.553 -21.064   3.485  0.00  0.00    +0.292 HD
ENDBRANCH  21  28
ENDBRANCH   3  17
TORSDOF 5
ENDMDL
MODEL 2
REMARK VINA RESULT:      -7.9      2.182      2.710
REMARK  Name = *****
REMARK                            x       y       z     vdW  Elec       q    Type
REMARK                         _______ _______ _______ _____ _____    ______ ____
ROOT
ATOM      1  C   LIG    1       25.260 -28.136   6.950  0.00  0.00    +0.210 A 
ATOM      2  N   LIG    1       25.982 -26.963   7.024  0.00  0.00    -0.187 NA
ATOM      3  C   LIG    1       25.135 -26.064   6.573  0.00  0.00    +0.259 A 
ATOM      4  O   LIG    1       23.954 -26.615   6.166  0.00  0.00    -0.333 OA
ATOM      5  N   LIG    1       24.034 -27.976   6.430  0.00  0.00    -0.055 NA
ENDROOT
BRANCH   1   8
ATOM      6  C   LIG    1       25.087 -30.488   5.188  0.00  0.00    +0.046 C 
ATOM      7  C   LIG    1       25.698 -30.586   6.572  0.00  0.00    -0.008 C 
ATOM      8  C   LIG    1       25.779 -29.432   7.404  0.00  0.00    +0.112 C 
ATOM      9  C   LIG    1       26.346 -29.549   8.694  0.00  0.00    +0.300 C 
ATOM     10 CL   LIG    1       26.395 -28.194   9.801  0.00  0.00    -0.009 Cl
ATOM     11  N   LIG    1       26.847 -30.783   9.143  0.00  0.00    -0.156 NA
ATOM     12  O   LIG    1       27.371 -30.888  10.309  0.00  0.00    -0.619 OA
ATOM     13  C   LIG    1       26.766 -31.916   8.332  0.00  0.00    +0.212 C 
ATOM     14  C   LIG    1       27.317 -33.180   8.930  0.00  0.00    +0.125 C 
ATOM     15  C   LIG    1       26.179 -31.820   7.061  0.00  0.00    +0.112 C 
ATOM     16 CL   LIG    1       26.045 -33.258   6.094  0.00  0.00    -0.077 Cl
ENDBRANCH   1   8
BRANCH   3  17
ATOM     17  C   LIG    1       25.249 -24.611   6.474  0.00  0.00    +0.050 A 
ATOM     18  C   LIG    1       25.888 -23.854   7.471  0.00  0.00    +0.101 A 
ATOM     19  C   LIG    1       25.988 -22.459   7.341  0.00  0.00    +0.318 A 
ATOM     20  C   LIG    1       25.456 -21.801   6.244  0.00  0.00    +0.237 A 
ATOM     21  C   LIG    1       24.831 -22.552   5.250  0.00  0.00    +0.166 A 
ATOM     22  C   LIG    1       24.723 -23.940   5.354  0.00  0.00    +0.062 A 
BRANCH  19  23
ATOM     23  N   LIG    1       26.650 -21.722   8.398  0.00  0.00    +0.084 N 
ATOM     24  O   LIG    1       27.881 -21.683   8.364  0.00  0.00    -0.576 OA
ATOM     25  O   LIG    1       25.928 -21.111   9.207  0.00  0.00    +0.042 OA
ENDBRANCH  19  23
BRANCH  20  26
ATOM     26  O   LIG    1       25.499 -20.443   6.114  0.00  0.00    -0.499 OA
ATOM     27  H   LIG    1       26.118 -20.264   5.376  0.00  0.00    +0.292 HD
ENDBRANCH  20  26
BRANCH  21  28
ATOM     28  O   LIG    1       24.322 -21.869   4.178  0.00  0.00    -0.503 OA
ATOM     29  H   LIG    1       23.349 -21.902   4.212  0.00  0.00    +0.292 HD
ENDBRANCH  21  28
ENDBRANCH   3  17
TORSDOF 5
ENDMDL
MODEL 3
REMARK VINA RESULT:      -7.2      6.217      8.415
REMARK  Name = *****
REMARK                            x       y       z     vdW  Elec       q    Type
REMARK                         _______ _______ _______ _____ _____    ______ ____
ROOT
ATOM      1  C   LIG    1       26.496 -20.309   5.861  0.00  0.00    +0.210 A 
ATOM      2  N   LIG    1       27.113 -20.283   7.095  0.00  0.00    -0.187 NA
ATOM      3  C   LIG    1       28.317 -19.835   6.815  0.00  0.00    +0.259 A 
ATOM      4  O   LIG    1       28.505 -19.639   5.476  0.00  0.00    -0.333 OA
ATOM      5  N   LIG    1       27.300 -19.936   4.854  0.00  0.00    -0.055 NA
ENDROOT
BRANCH   1   8
ATOM      6  C   LIG    1       25.442 -22.714   7.192  0.00  0.00    +0.046 C 
ATOM      7  C   LIG    1       24.562 -21.862   6.298  0.00  0.00    -0.008 C 
ATOM      8  C   LIG    1       25.092 -20.696   5.671  0.00  0.00    +0.112 C 
ATOM      9  C   LIG    1       24.255 -19.921   4.836  0.00  0.00    +0.300 C 
ATOM     10 CL   LIG    1       24.864 -18.531   3.964  0.00  0.00    -0.009 Cl
ATOM     11  N   LIG    1       22.910 -20.280   4.643  0.00  0.00    -0.156 NA
ATOM     12  O   LIG    1       22.148 -19.571   3.894  0.00  0.00    -0.619 OA
ATOM     13  C   LIG    1       22.389 -21.422   5.254  0.00  0.00    +0.212 C 
ATOM     14  C   LIG    1       20.945 -21.713   4.957  0.00  0.00    +0.125 C 
ATOM     15  C   LIG    1       23.217 -22.217   6.062  0.00  0.00    +0.112 C 
ATOM     16 CL   LIG    1       22.556 -23.662   6.766  0.00  0.00    -0.077 Cl
ENDBRANCH   1   8
BRANCH   3  17
ATOM     17  C   LIG    1       29.437 -19.496   7.690  0.00  0.00    +0.050 A 
ATOM     18  C   LIG    1       29.638 -18.183   8.150  0.00  0.00    +0.101 A 
ATOM     19  C   LIG    1       30.720 -17.892   8.997  0.00  0.00    +0.318 A 
ATOM     20  C   LIG    1       31.611 -18.878   9.387  0.00  0.00    +0.237 A 
ATOM     21  C   LIG    1       31.406 -20.182   8.940  0.00  0.00    +0.166 A 
ATOM     22  C   LIG    1       30.335 -20.498   8.101  0.00  0.00    +0.062 A 
BRANCH  19  23
ATOM     23  N   LIG    1       30.890 -16.523   9.438  0.00  0.00    +0.084 N 
ATOM     24  O   LIG    1       30.148 -16.133  10.342  0.00  0.00    -0.576 OA
ATOM     25  O   LIG    1       31.827 -15.873   8.939  0.00  0.00    +0.042 OA
ENDBRANCH  19  23
BRANCH  20  26
ATOM     26  O   LIG    1       32.695 -18.615  10.173  0.00  0.00    -0.499 OA
ATOM     27  H   LIG    1       33.430 -18.413   9.558  0.00  0.00    +0.292 HD
ENDBRANCH  20  26
BRANCH  21  28
ATOM     28  O   LIG    1       32.302 -21.132   9.350  0.00  0.00    -0.503 OA
ATOM     29  H   LIG    1       31.880 -22.009   9.306  0.00  0.00    +0.292 HD
ENDBRANCH  21  28
ENDBRANCH   3  17
TORSDOF 5
ENDMDL
MODEL 4
REMARK VINA RESULT:      -7.0      2.286      3.344
REMARK  Name = *****
REMARK                            x       y       z     vdW  Elec       q    Type
REMARK                         _______ _______ _______ _____ _____    ______ ____
ROOT
ATOM      1  C   LIG    1       25.209 -27.973   6.946  0.00  0.00    +0.210 A 
ATOM      2  N   LIG    1       25.980 -26.829   7.008  0.00  0.00    -0.187 NA
ATOM      3  C   LIG    1       25.153 -25.893   6.599  0.00  0.00    +0.259 A 
ATOM      4  O   LIG    1       23.936 -26.392   6.229  0.00  0.00    -0.333 OA
ATOM      5  N   LIG    1       23.972 -27.758   6.474  0.00  0.00    -0.055 NA
ENDROOT
BRANCH   1   8
ATOM      6  C   LIG    1       24.946 -30.279   5.135  0.00  0.00    +0.046 C 
ATOM      7  C   LIG    1       25.569 -30.426   6.510  0.00  0.00    -0.008 C 
ATOM      8  C   LIG    1       25.694 -29.294   7.367  0.00  0.00    +0.112 C 
ATOM      9  C   LIG    1       26.271 -29.457   8.647  0.00  0.00    +0.300 C 
ATOM     10 CL   LIG    1       26.372 -28.129   9.782  0.00  0.00    -0.009 Cl
ATOM     11  N   LIG    1       26.738 -30.715   9.063  0.00  0.00    -0.156 NA
ATOM     12  O   LIG    1       27.271 -30.861  10.221  0.00  0.00    -0.619 OA
ATOM     13  C   LIG    1       26.615 -31.826   8.228  0.00  0.00    +0.212 C 
ATOM     14  C   LIG    1       27.133 -33.119   8.792  0.00  0.00    +0.125 C 
ATOM     15  C   LIG    1       26.017 -31.684   6.966  0.00  0.00    +0.112 C 
ATOM     16 CL   LIG    1       25.829 -33.096   5.970  0.00  0.00    -0.077 Cl
ENDBRANCH   1   8
BRANCH   3  17
ATOM     17  C   LIG    1       25.319 -24.444   6.512  0.00  0.00    +0.050 A 
ATOM     18  C   LIG    1       24.489 -23.656   5.697  0.00  0.00    +0.101 A 
ATOM     19  C   LIG    1       24.670 -22.264   5.642  0.00  0.00    +0.318 A 
ATOM     20  C   LIG    1       25.668 -21.642   6.375  0.00  0.00    +0.237 A 
ATOM     21  C   LIG    1       26.485 -22.421   7.192  0.00  0.00    +0.166 A 
ATOM     22  C   LIG    1       26.322 -23.806   7.267  0.00  0.00    +0.062 A 
BRANCH  19  23
ATOM     23  N   LIG    1       23.794 -21.497   4.782  0.00  0.00    +0.084 N 
ATOM     24  O   LIG    1       22.663 -21.258   5.209  0.00  0.00    -0.576 OA
ATOM     25  O   LIG    1       24.274 -21.059   3.720  0.00  0.00    +0.042 OA
ENDBRANCH  19  23
BRANCH  20  26
ATOM     26  O   LIG    1       25.895 -20.298   6.307  0.00  0.00    -0.499 OA
ATOM     27  H   LIG    1       26.554 -20.173   5.593  0.00  0.00    +0.292 HD
ENDBRANCH  20  26
BRANCH  21  28
ATOM     28  O   LIG    1       27.456 -21.772   7.906  0.00  0.00    -0.503 OA
ATOM     29  H   LIG    1       27.257 -21.848   8.857  0.00  0.00    +0.292 HD
ENDBRANCH  21  28
ENDBRANCH   3  17
TORSDOF 5
ENDMDL
MODEL 5
REMARK VINA RESULT:      -6.9      1.000      2.179
REMARK  Name = *****
REMARK                            x       y       z     vdW  Elec       q    Type
REMARK                         _______ _______ _______ _____ _____    ______ ____
ROOT
ATOM      1  C   LIG    1       25.605 -27.636   6.743  0.00  0.00    +0.210 A 
ATOM      2  N   LIG    1       25.118 -26.475   7.308  0.00  0.00    -0.187 NA
ATOM      3  C   LIG    1       25.707 -25.534   6.605  0.00  0.00    +0.259 A 
ATOM      4  O   LIG    1       26.577 -26.037   5.681  0.00  0.00    -0.333 OA
ATOM      5  N   LIG    1       26.495 -27.420   5.763  0.00  0.00    -0.055 NA
ENDROOT
BRANCH   1   8
ATOM      6  C   LIG    1       26.523 -28.719   9.323  0.00  0.00    +0.046 C 
ATOM      7  C   LIG    1       25.622 -29.526   8.408  0.00  0.00    -0.008 C 
ATOM      8  C   LIG    1       25.182 -28.977   7.168  0.00  0.00    +0.112 C 
ATOM      9  C   LIG    1       24.349 -29.750   6.328  0.00  0.00    +0.300 C 
ATOM     10 CL   LIG    1       23.847 -29.175   4.753  0.00  0.00    -0.009 Cl
ATOM     11  N   LIG    1       23.937 -31.036   6.719  0.00  0.00    -0.156 NA
ATOM     12  O   LIG    1       23.172 -31.734   5.963  0.00  0.00    -0.619 OA
ATOM     13  C   LIG    1       24.368 -31.577   7.932  0.00  0.00    +0.212 C 
ATOM     14  C   LIG    1       23.877 -32.965   8.232  0.00  0.00    +0.125 C 
ATOM     15  C   LIG    1       25.220 -30.831   8.762  0.00  0.00    +0.112 C 
ATOM     16 CL   LIG    1       25.783 -31.551  10.240  0.00  0.00    -0.077 Cl
ENDBRANCH   1   8
BRANCH   3  17
ATOM     17  C   LIG    1       25.556 -24.081   6.640  0.00  0.00    +0.050 A 
ATOM     18  C   LIG    1       24.789 -23.399   5.680  0.00  0.00    +0.101 A 
ATOM     19  C   LIG    1       24.657 -22.002   5.746  0.00  0.00    +0.318 A 
ATOM     20  C   LIG    1       25.281 -21.269   6.743  0.00  0.00    +0.237 A 
ATOM     21  C   LIG    1       26.034 -21.946   7.701  0.00  0.00    +0.166 A 
ATOM     22  C   LIG    1       26.176 -23.335   7.659  0.00  0.00    +0.062 A 
BRANCH  19  23
ATOM     23  N   LIG    1       23.862 -21.345   4.730  0.00  0.00    +0.084 N 
ATOM     24  O   LIG    1       22.790 -20.854   5.091  0.00  0.00    -0.576 OA
ATOM     25  O   LIG    1       24.357 -21.244   3.592  0.00  0.00    +0.042 OA
ENDBRANCH  19  23
BRANCH  20  26
ATOM     26  O   LIG    1       25.206 -19.908   6.805  0.00  0.00    -0.499 OA
ATOM     27  H   LIG    1       24.272 -19.682   6.618  0.00  0.00    +0.292 HD
ENDBRANCH  20  26
BRANCH  21  28
ATOM     28  O   LIG    1       26.630 -21.191   8.674  0.00  0.00    -0.503 OA
ATOM     29  H   LIG    1       26.178 -20.330   8.732  0.00  0.00    +0.292 HD
ENDBRANCH  21  28
ENDBRANCH   3  17
TORSDOF 5
ENDMDL
MODEL 6
REMARK VINA RESULT:      -6.8      6.227      8.603
REMARK  Name = *****
REMARK                            x       y       z     vdW  Elec       q    Type
REMARK                         _______ _______ _______ _____ _____    ______ ____
ROOT
ATOM      1  C   LIG    1       26.519 -20.300   5.790  0.00  0.00    +0.210 A 
ATOM      2  N   LIG    1       27.102 -20.228   7.039  0.00  0.00    -0.187 NA
ATOM      3  C   LIG    1       28.330 -19.845   6.770  0.00  0.00    +0.259 A 
ATOM      4  O   LIG    1       28.564 -19.735   5.429  0.00  0.00    -0.333 OA
ATOM      5  N   LIG    1       27.366 -20.019   4.788  0.00  0.00    -0.055 NA
ENDROOT
BRANCH   1   8
ATOM      6  C   LIG    1       24.836 -18.601   4.072  0.00  0.00    +0.046 C 
ATOM      7  C   LIG    1       24.270 -19.829   4.759  0.00  0.00    -0.008 C 
ATOM      8  C   LIG    1       25.106 -20.642   5.579  0.00  0.00    +0.112 C 
ATOM      9  C   LIG    1       24.554 -21.777   6.216  0.00  0.00    +0.300 C 
ATOM     10 CL   LIG    1       25.500 -22.766   7.308  0.00  0.00    -0.009 Cl
ATOM     11  N   LIG    1       23.204 -22.116   6.025  0.00  0.00    -0.156 NA
ATOM     12  O   LIG    1       22.706 -23.152   6.594  0.00  0.00    -0.619 OA
ATOM     13  C   LIG    1       22.382 -21.320   5.225  0.00  0.00    +0.212 C 
ATOM     14  C   LIG    1       20.954 -21.774   5.113  0.00  0.00    +0.125 C 
ATOM     15  C   LIG    1       22.910 -20.174   4.611  0.00  0.00    +0.112 C 
ATOM     16 CL   LIG    1       21.850 -19.174   3.663  0.00  0.00    -0.077 Cl
ENDBRANCH   1   8
BRANCH   3  17
ATOM     17  C   LIG    1       29.438 -19.501   7.659  0.00  0.00    +0.050 A 
ATOM     18  C   LIG    1       29.629 -18.187   8.119  0.00  0.00    +0.101 A 
ATOM     19  C   LIG    1       30.700 -17.891   8.979  0.00  0.00    +0.318 A 
ATOM     20  C   LIG    1       31.590 -18.873   9.382  0.00  0.00    +0.237 A 
ATOM     21  C   LIG    1       31.394 -20.179   8.933  0.00  0.00    +0.166 A 
ATOM     22  C   LIG    1       30.335 -20.499   8.082  0.00  0.00    +0.062 A 
BRANCH  19  23
ATOM     23  N   LIG    1       30.859 -16.521   9.422  0.00  0.00    +0.084 N 
ATOM     24  O   LIG    1       30.093 -16.127  10.303  0.00  0.00    -0.576 OA
ATOM     25  O   LIG    1       31.810 -15.873   8.947  0.00  0.00    +0.042 OA
ENDBRANCH  19  23
BRANCH  20  26
ATOM     26  O   LIG    1       32.663 -18.605  10.180  0.00  0.00    -0.499 OA
ATOM     27  H   LIG    1       33.406 -19.127   9.815  0.00  0.00    +0.292 HD
ENDBRANCH  20  26
BRANCH  21  28
ATOM     28  O   LIG    1       32.289 -21.124   9.356  0.00  0.00    -0.503 OA
ATOM     29  H   LIG    1       33.159 -20.942   8.956  0.00  0.00    +0.292 HD
ENDBRANCH  21  28
ENDBRANCH   3  17
TORSDOF 5
ENDMDL
MODEL 7
REMARK VINA RESULT:      -6.8      6.409      8.571
REMARK  Name = *****
REMARK                            x       y       z     vdW  Elec       q    Type
REMARK                         _______ _______ _______ _____ _____    ______ ____
ROOT
ATOM      1  C   LIG    1       26.028 -20.161   5.404  0.00  0.00    +0.210 A 
ATOM      2  N   LIG    1       26.735 -20.438   6.557  0.00  0.00    -0.187 NA
ATOM      3  C   LIG    1       27.923 -19.938   6.302  0.00  0.00    +0.259 A 
ATOM      4  O   LIG    1       28.017 -19.423   5.041  0.00  0.00    -0.333 OA
ATOM      5  N   LIG    1       26.764 -19.557   4.459  0.00  0.00    -0.055 NA
ENDROOT
BRANCH   1   8
ATOM      6  C   LIG    1       24.260 -18.310   3.949  0.00  0.00    +0.046 C 
ATOM      7  C   LIG    1       23.730 -19.603   4.540  0.00  0.00    -0.008 C 
ATOM      8  C   LIG    1       24.606 -20.488   5.233  0.00  0.00    +0.112 C 
ATOM      9  C   LIG    1       24.088 -21.683   5.781  0.00  0.00    +0.300 C 
ATOM     10 CL   LIG    1       25.089 -22.769   6.721  0.00  0.00    -0.009 Cl
ATOM     11  N   LIG    1       22.730 -22.009   5.627  0.00  0.00    -0.156 NA
ATOM     12  O   LIG    1       22.262 -23.099   6.115  0.00  0.00    -0.619 OA
ATOM     13  C   LIG    1       21.868 -21.143   4.952  0.00  0.00    +0.212 C 
ATOM     14  C   LIG    1       20.437 -21.591   4.868  0.00  0.00    +0.125 C 
ATOM     15  C   LIG    1       22.364 -19.939   4.427  0.00  0.00    +0.112 C 
ATOM     16 CL   LIG    1       21.256 -18.856   3.638  0.00  0.00    -0.077 Cl
ENDBRANCH   1   8
BRANCH   3  17
ATOM     17  C   LIG    1       29.111 -19.824   7.146  0.00  0.00    +0.050 A 
ATOM     18  C   LIG    1       29.651 -20.939   7.809  0.00  0.00    +0.101 A 
ATOM     19  C   LIG    1       30.799 -20.797   8.606  0.00  0.00    +0.318 A 
ATOM     20  C   LIG    1       31.414 -19.566   8.765  0.00  0.00    +0.237 A 
ATOM     21  C   LIG    1       30.885 -18.461   8.099  0.00  0.00    +0.166 A 
ATOM     22  C   LIG    1       29.748 -18.578   7.297  0.00  0.00    +0.062 A 
BRANCH  19  23
ATOM     23  N   LIG    1       31.313 -21.975   9.275  0.00  0.00    +0.084 N 
ATOM     24  O   LIG    1       32.309 -22.506   8.780  0.00  0.00    -0.576 OA
ATOM     25  O   LIG    1       30.770 -22.309  10.344  0.00  0.00    +0.042 OA
ENDBRANCH  19  23
BRANCH  20  26
ATOM     26  O   LIG    1       32.503 -19.391   9.568  0.00  0.00    -0.499 OA
ATOM     27  H   LIG    1       33.257 -19.794   9.089  0.00  0.00    +0.292 HD
ENDBRANCH  20  26
BRANCH  21  28
ATOM     28  O   LIG    1       31.522 -17.263   8.274  0.00  0.00    -0.503 OA
ATOM     29  H   LIG    1       32.024 -17.288   9.109  0.00  0.00    +0.292 HD
ENDBRANCH  21  28
ENDBRANCH   3  17
TORSDOF 5
ENDMDL
MODEL 8
REMARK VINA RESULT:      -6.6      6.379      8.479
REMARK  Name = *****
REMARK                            x       y       z     vdW  Elec       q    Type
REMARK                         _______ _______ _______ _____ _____    ______ ____
ROOT
ATOM      1  C   LIG    1       26.078 -20.130   5.483  0.00  0.00    +0.210 A 
ATOM      2  N   LIG    1       26.798 -20.412   6.626  0.00  0.00    -0.187 NA
ATOM      3  C   LIG    1       27.981 -19.903   6.363  0.00  0.00    +0.259 A 
ATOM      4  O   LIG    1       28.058 -19.378   5.105  0.00  0.00    -0.333 OA
ATOM      5  N   LIG    1       26.800 -19.514   4.535  0.00  0.00    -0.055 NA
ENDROOT
BRANCH   1   8
ATOM      6  C   LIG    1       24.985 -22.553   6.749  0.00  0.00    +0.046 C 
ATOM      7  C   LIG    1       24.107 -21.635   5.920  0.00  0.00    -0.008 C 
ATOM      8  C   LIG    1       24.656 -20.463   5.323  0.00  0.00    +0.112 C 
ATOM      9  C   LIG    1       23.820 -19.627   4.548  0.00  0.00    +0.300 C 
ATOM     10 CL   LIG    1       24.449 -18.223   3.714  0.00  0.00    -0.009 Cl
ATOM     11  N   LIG    1       22.459 -19.933   4.386  0.00  0.00    -0.156 NA
ATOM     12  O   LIG    1       21.697 -19.169   3.691  0.00  0.00    -0.619 OA
ATOM     13  C   LIG    1       21.919 -21.082   4.966  0.00  0.00    +0.212 C 
ATOM     14  C   LIG    1       20.457 -21.312   4.706  0.00  0.00    +0.125 C 
ATOM     15  C   LIG    1       22.744 -21.936   5.714  0.00  0.00    +0.112 C 
ATOM     16 CL   LIG    1       22.056 -23.387   6.380  0.00  0.00    -0.077 Cl
ENDBRANCH   1   8
BRANCH   3  17
ATOM     17  C   LIG    1       29.177 -19.789   7.196  0.00  0.00    +0.050 A 
ATOM     18  C   LIG    1       29.721 -20.905   7.855  0.00  0.00    +0.101 A 
ATOM     19  C   LIG    1       30.877 -20.763   8.642  0.00  0.00    +0.318 A 
ATOM     20  C   LIG    1       31.496 -19.532   8.792  0.00  0.00    +0.237 A 
ATOM     21  C   LIG    1       30.961 -18.428   8.129  0.00  0.00    +0.166 A 
ATOM     22  C   LIG    1       29.816 -18.544   7.338  0.00  0.00    +0.062 A 
BRANCH  19  23
ATOM     23  N   LIG    1       31.396 -21.939   9.307  0.00  0.00    +0.084 N 
ATOM     24  O   LIG    1       32.395 -22.464   8.812  0.00  0.00    -0.576 OA
ATOM     25  O   LIG    1       30.853 -22.279  10.374  0.00  0.00    +0.042 OA
ENDBRANCH  19  23
BRANCH  20  26
ATOM     26  O   LIG    1       32.592 -19.357   9.584  0.00  0.00    -0.499 OA
ATOM     27  H   LIG    1       32.549 -20.062  10.263  0.00  0.00    +0.292 HD
ENDBRANCH  20  26
BRANCH  21  28
ATOM     28  O   LIG    1       31.602 -17.230   8.296  0.00  0.00    -0.503 OA
ATOM     29  H   LIG    1       30.981 -16.588   8.686  0.00  0.00    +0.292 HD
ENDBRANCH  21  28
ENDBRANCH   3  17
TORSDOF 5
ENDMDL
MODEL 9
REMARK VINA RESULT:      -6.6      1.704      2.503
REMARK  Name = *****
REMARK                            x       y       z     vdW  Elec       q    Type
REMARK                         _______ _______ _______ _____ _____    ______ ____
ROOT
ATOM      1  C   LIG    1       25.230 -28.433   7.154  0.00  0.00    +0.210 A 
ATOM      2  N   LIG    1       24.641 -27.322   6.586  0.00  0.00    -0.187 NA
ATOM      3  C   LIG    1       25.396 -26.335   7.015  0.00  0.00    +0.259 A 
ATOM      4  O   LIG    1       26.379 -26.758   7.863  0.00  0.00    -0.333 OA
ATOM      5  N   LIG    1       26.277 -28.140   7.940  0.00  0.00    -0.055 NA
ENDROOT
BRANCH   1   8
ATOM      6  C   LIG    1       25.880 -29.787   4.622  0.00  0.00    +0.046 C 
ATOM      7  C   LIG    1       25.056 -30.476   5.692  0.00  0.00    -0.008 C 
ATOM      8  C   LIG    1       24.761 -29.805   6.914  0.00  0.00    +0.112 C 
ATOM      9  C   LIG    1       23.986 -30.464   7.895  0.00  0.00    +0.300 C 
ATOM     10 CL   LIG    1       23.510 -29.665   9.378  0.00  0.00    -0.009 Cl
ATOM     11  N   LIG    1       23.529 -31.775   7.679  0.00  0.00    -0.156 NA
ATOM     12  O   LIG    1       22.834 -32.379   8.573  0.00  0.00    -0.619 OA
ATOM     13  C   LIG    1       23.814 -32.435   6.482  0.00  0.00    +0.212 C 
ATOM     14  C   LIG    1       23.256 -33.825   6.361  0.00  0.00    +0.125 C 
ATOM     15  C   LIG    1       24.558 -31.781   5.489  0.00  0.00    +0.112 C 
ATOM     16 CL   LIG    1       24.852 -32.607   3.988  0.00  0.00    -0.077 Cl
ENDBRANCH   1   8
BRANCH   3  17
ATOM     17  C   LIG    1       25.364 -24.907   6.708  0.00  0.00    +0.050 A 
ATOM     18  C   LIG    1       25.806 -23.947   7.634  0.00  0.00    +0.101 A 
ATOM     19  C   LIG    1       25.769 -22.581   7.305  0.00  0.00    +0.318 A 
ATOM     20  C   LIG    1       25.294 -22.152   6.076  0.00  0.00    +0.237 A 
ATOM     21  C   LIG    1       24.866 -23.105   5.153  0.00  0.00    +0.166 A 
ATOM     22  C   LIG    1       24.897 -24.468   5.455  0.00  0.00    +0.062 A 
BRANCH  19  23
ATOM     23  N   LIG    1       26.228 -21.630   8.295  0.00  0.00    +0.084 N 
ATOM     24  O   LIG    1       27.421 -21.676   8.602  0.00  0.00    -0.576 OA
ATOM     25  O   LIG    1       25.410 -20.781   8.695  0.00  0.00    +0.042 OA
ENDBRANCH  19  23
BRANCH  20  26
ATOM     26  O   LIG    1       25.207 -20.831   5.747  0.00  0.00    -0.499 OA
ATOM     27  H   LIG    1       24.524 -20.773   5.047  0.00  0.00    +0.292 HD
ENDBRANCH  20  26
BRANCH  21  28
ATOM     28  O   LIG    1       24.409 -22.645   3.948  0.00  0.00    -0.503 OA
ATOM     29  H   LIG    1       24.814 -21.779   3.763  0.00  0.00    +0.292 HD
ENDBRANCH  21  28
ENDBRANCH   3  17
TORSDOF 5
ENDMDL
