MODEL 1
REMARK VINA RESULT:      -9.5      0.000      0.000
REMARK  Name = *****
REMARK                            x       y       z     vdW  Elec       q    Type
REMARK                         _______ _______ _______ _____ _____    ______ ____
ROOT
ATOM      1  S   LIG    1       29.851 -19.456   6.535  0.00  0.00    +0.095 S 
ATOM      2  O   LIG    1       29.241 -18.475   5.571  0.00  0.00    -0.249 OA
ENDROOT
BRANCH   1   8
ATOM      3  C   LIG    1       31.480 -16.374  11.709  0.00  0.00    +0.122 A 
ATOM      4  C   LIG    1       30.398 -17.050  11.130  0.00  0.00    +0.073 A 
ATOM      5  C   LIG    1       30.576 -17.529   9.830  0.00  0.00    +0.070 A 
ATOM      6  C   LIG    1       31.744 -17.342   9.101  0.00  0.00    +0.090 A 
ATOM      7  N   LIG    1       31.644 -17.916   7.862  0.00  0.00    -0.220 NA
ATOM      8  C   LIG    1       30.462 -18.485   7.837  0.00  0.00    +0.198 A 
ATOM      9  C   LIG    1       32.817 -16.657   9.683  0.00  0.00    +0.033 A 
ATOM     10  N   LIG    1       29.764 -18.250   8.991  0.00  0.00    -0.331 N 
ATOM     11  H   LIG    1       28.841 -18.607   9.184  0.00  0.00    +0.168 HD
ATOM     12  C   LIG    1       32.670 -16.183  10.993  0.00  0.00    +0.048 A 
BRANCH   3  14
ATOM     13  C   LIG    1       32.762 -15.803  13.625  0.00  0.00    +0.277 C 
ATOM     14  O   LIG    1       31.497 -15.859  12.979  0.00  0.00    -0.495 OA
ENDBRANCH   3  14
ENDBRANCH   1   8
BRANCH   1  15
ATOM     15  C   LIG    1       28.516 -20.280   7.468  0.00  0.00    +0.167 C 
BRANCH  15  16
ATOM     16  C   LIG    1       27.193 -20.279   6.740  0.00  0.00    +0.060 A 
ATOM     17  C   LIG    1       25.969 -20.542   7.377  0.00  0.00    +0.014 A 
ATOM     18  C   LIG    1       25.882 -20.769   8.866  0.00  0.00    +0.049 C 
ATOM     19  C   LIG    1       24.805 -20.663   6.578  0.00  0.00    +0.129 A 
ATOM     20  C   LIG    1       24.883 -20.451   5.195  0.00  0.00    +0.009 A 
ATOM     21  C   LIG    1       23.758 -20.585   4.216  0.00  0.00    +0.049 C 
ATOM     22  C   LIG    1       26.136 -20.116   4.689  0.00  0.00    +0.118 A 
ATOM     23  N   LIG    1       27.271 -20.021   5.413  0.00  0.00    -0.258 NA
BRANCH  19  24
ATOM     24  O   LIG    1       23.703 -21.085   7.278  0.00  0.00    -0.494 OA
ATOM     25  C   LIG    1       23.236 -22.415   7.127  0.00  0.00    +0.277 C 
ENDBRANCH  19  24
ENDBRANCH  15  16
ENDBRANCH   1  15
TORSDOF 5
ENDMDL
MODEL 2
REMARK VINA RESULT:      -8.9      1.445      2.039
REMARK  Name = *****
REMARK                            x       y       z     vdW  Elec       q    Type
REMARK                         _______ _______ _______ _____ _____    ______ ____
ROOT
ATOM      1  S   LIG    1       29.245 -20.078   6.806  0.00  0.00    +0.095 S 
ATOM      2  O   LIG    1       29.212 -19.360   5.486  0.00  0.00    -0.249 OA
ENDROOT
BRANCH   1   8
ATOM      3  C   LIG    1       31.502 -16.480  11.376  0.00  0.00    +0.122 A 
ATOM      4  C   LIG    1       30.402 -17.287  11.058  0.00  0.00    +0.073 A 
ATOM      5  C   LIG    1       30.381 -17.848   9.779  0.00  0.00    +0.070 A 
ATOM      6  C   LIG    1       31.369 -17.620   8.829  0.00  0.00    +0.090 A 
ATOM      7  N   LIG    1       31.096 -18.295   7.669  0.00  0.00    -0.220 NA
ATOM      8  C   LIG    1       29.991 -18.961   7.906  0.00  0.00    +0.198 A 
ATOM      9  C   LIG    1       32.460 -16.804   9.151  0.00  0.00    +0.033 A 
ATOM     10  N   LIG    1       29.501 -18.697   9.157  0.00  0.00    -0.331 N 
ATOM     11  H   LIG    1       28.669 -19.115   9.545  0.00  0.00    +0.168 HD
ATOM     12  C   LIG    1       32.513 -16.245  10.434  0.00  0.00    +0.048 A 
BRANCH   3  14
ATOM     13  C   LIG    1       32.688 -16.449  13.434  0.00  0.00    +0.277 C 
ATOM     14  O   LIG    1       31.705 -15.869  12.586  0.00  0.00    -0.495 OA
ENDBRANCH   3  14
ENDBRANCH   1   8
BRANCH   1  15
ATOM     15  C   LIG    1       27.576 -20.047   7.542  0.00  0.00    +0.167 C 
BRANCH  15  16
ATOM     16  C   LIG    1       26.696 -21.180   7.071  0.00  0.00    +0.060 A 
ATOM     17  C   LIG    1       25.840 -21.075   5.962  0.00  0.00    +0.014 A 
ATOM     18  C   LIG    1       25.797 -19.833   5.108  0.00  0.00    +0.049 C 
ATOM     19  C   LIG    1       24.949 -22.144   5.695  0.00  0.00    +0.129 A 
ATOM     20  C   LIG    1       24.987 -23.299   6.487  0.00  0.00    +0.009 A 
ATOM     21  C   LIG    1       24.087 -24.488   6.358  0.00  0.00    +0.049 C 
ATOM     22  C   LIG    1       25.935 -23.320   7.507  0.00  0.00    +0.118 A 
ATOM     23  N   LIG    1       26.778 -22.312   7.810  0.00  0.00    -0.258 NA
BRANCH  19  24
ATOM     24  O   LIG    1       24.047 -21.867   4.699  0.00  0.00    -0.494 OA
ATOM     25  C   LIG    1       22.787 -21.303   5.022  0.00  0.00    +0.277 C 
ENDBRANCH  19  24
ENDBRANCH  15  16
ENDBRANCH   1  15
TORSDOF 5
ENDMDL
MODEL 3
REMARK VINA RESULT:      -8.8      3.669      9.100
REMARK  Name = *****
REMARK                            x       y       z     vdW  Elec       q    Type
REMARK                         _______ _______ _______ _____ _____    ______ ____
ROOT
ATOM      1  S   LIG    1       25.347 -20.736   6.633  0.00  0.00    +0.095 S 
ATOM      2  O   LIG    1       24.213 -20.225   5.787  0.00  0.00    -0.249 OA
ENDROOT
BRANCH   1   8
ATOM      3  C   LIG    1       25.504 -26.969   6.393  0.00  0.00    +0.122 A 
ATOM      4  C   LIG    1       25.830 -25.895   7.233  0.00  0.00    +0.073 A 
ATOM      5  C   LIG    1       25.624 -24.611   6.722  0.00  0.00    +0.070 A 
ATOM      6  C   LIG    1       25.146 -24.367   5.440  0.00  0.00    +0.090 A 
ATOM      7  N   LIG    1       25.039 -23.022   5.208  0.00  0.00    -0.220 NA
ATOM      8  C   LIG    1       25.398 -22.445   6.330  0.00  0.00    +0.198 A 
ATOM      9  C   LIG    1       24.831 -25.445   4.605  0.00  0.00    +0.033 A 
ATOM     10  N   LIG    1       25.794 -23.363   7.265  0.00  0.00    -0.331 N 
ATOM     11  H   LIG    1       26.096 -23.133   8.200  0.00  0.00    +0.168 HD
ATOM     12  C   LIG    1       25.012 -26.742   5.101  0.00  0.00    +0.048 A 
BRANCH   3  14
ATOM     13  C   LIG    1       24.532 -29.136   6.363  0.00  0.00    +0.277 C 
ATOM     14  O   LIG    1       25.616 -28.293   6.732  0.00  0.00    -0.495 OA
ENDBRANCH   3  14
ENDBRANCH   1   8
BRANCH   1  15
ATOM     15  C   LIG    1       26.928 -20.311   5.827  0.00  0.00    +0.167 C 
BRANCH  15  16
ATOM     16  C   LIG    1       28.124 -20.489   6.731  0.00  0.00    +0.060 A 
ATOM     17  C   LIG    1       29.260 -19.666   6.669  0.00  0.00    +0.014 A 
ATOM     18  C   LIG    1       29.334 -18.484   5.735  0.00  0.00    +0.049 C 
ATOM     19  C   LIG    1       30.386 -20.009   7.458  0.00  0.00    +0.129 A 
ATOM     20  C   LIG    1       30.321 -21.107   8.327  0.00  0.00    +0.009 A 
ATOM     21  C   LIG    1       31.433 -21.619   9.188  0.00  0.00    +0.049 C 
ATOM     22  C   LIG    1       29.113 -21.798   8.362  0.00  0.00    +0.118 A 
ATOM     23  N   LIG    1       28.031 -21.520   7.605  0.00  0.00    -0.258 NA
BRANCH  19  24
ATOM     24  O   LIG    1       31.493 -19.242   7.195  0.00  0.00    -0.494 OA
ATOM     25  C   LIG    1       31.937 -18.291   8.147  0.00  0.00    +0.277 C 
ENDBRANCH  19  24
ENDBRANCH  15  16
ENDBRANCH   1  15
TORSDOF 5
ENDMDL
MODEL 4
REMARK VINA RESULT:      -8.3      6.822      9.956
REMARK  Name = *****
REMARK                            x       y       z     vdW  Elec       q    Type
REMARK                         _______ _______ _______ _____ _____    ______ ____
ROOT
ATOM      1  S   LIG    1       26.172 -26.424   5.972  0.00  0.00    +0.095 S 
ATOM      2  O   LIG    1       26.164 -26.730   4.500  0.00  0.00    -0.249 OA
ENDROOT
BRANCH   1   8
ATOM      3  C   LIG    1       23.702 -20.700   5.716  0.00  0.00    +0.122 A 
ATOM      4  C   LIG    1       24.008 -21.801   4.903  0.00  0.00    +0.073 A 
ATOM      5  C   LIG    1       24.657 -22.875   5.515  0.00  0.00    +0.070 A 
ATOM      6  C   LIG    1       25.025 -22.882   6.856  0.00  0.00    +0.090 A 
ATOM      7  N   LIG    1       25.640 -24.059   7.186  0.00  0.00    -0.220 NA
ATOM      8  C   LIG    1       25.617 -24.783   6.093  0.00  0.00    +0.198 A 
ATOM      9  C   LIG    1       24.725 -21.775   7.658  0.00  0.00    +0.033 A 
ATOM     10  N   LIG    1       25.063 -24.098   5.045  0.00  0.00    -0.331 N 
ATOM     11  H   LIG    1       24.936 -24.475   4.118  0.00  0.00    +0.168 HD
ATOM     12  C   LIG    1       24.057 -20.693   7.072  0.00  0.00    +0.048 A 
BRANCH   3  14
ATOM     13  C   LIG    1       23.368 -19.098   3.995  0.00  0.00    +0.277 C 
ATOM     14  O   LIG    1       23.048 -19.571   5.297  0.00  0.00    -0.495 OA
ENDBRANCH   3  14
ENDBRANCH   1   8
BRANCH   1  15
ATOM     15  C   LIG    1       24.725 -27.216   6.752  0.00  0.00    +0.167 C 
BRANCH  15  16
ATOM     16  C   LIG    1       24.857 -28.715   6.867  0.00  0.00    +0.060 A 
ATOM     17  C   LIG    1       25.545 -29.345   7.917  0.00  0.00    +0.014 A 
ATOM     18  C   LIG    1       26.140 -28.560   9.059  0.00  0.00    +0.049 C 
ATOM     19  C   LIG    1       25.737 -30.748   7.852  0.00  0.00    +0.129 A 
ATOM     20  C   LIG    1       25.185 -31.480   6.792  0.00  0.00    +0.009 A 
ATOM     21  C   LIG    1       25.337 -32.951   6.562  0.00  0.00    +0.049 C 
ATOM     22  C   LIG    1       24.454 -30.756   5.854  0.00  0.00    +0.118 A 
ATOM     23  N   LIG    1       24.275 -29.419   5.866  0.00  0.00    -0.258 NA
BRANCH  19  24
ATOM     24  O   LIG    1       26.562 -31.232   8.836  0.00  0.00    -0.494 OA
ATOM     25  C   LIG    1       26.019 -31.988   9.905  0.00  0.00    +0.277 C 
ENDBRANCH  19  24
ENDBRANCH  15  16
ENDBRANCH   1  15
TORSDOF 5
ENDMDL
MODEL 5
REMARK VINA RESULT:      -8.2      7.041      9.949
REMARK  Name = *****
REMARK                            x       y       z     vdW  Elec       q    Type
REMARK                         _______ _______ _______ _____ _____    ______ ____
ROOT
ATOM      1  S   LIG    1       26.077 -26.201   5.576  0.00  0.00    +0.095 S 
ATOM      2  O   LIG    1       25.971 -26.394   4.089  0.00  0.00    -0.249 OA
ENDROOT
BRANCH   1   8
ATOM      3  C   LIG    1       23.313 -20.617   5.905  0.00  0.00    +0.122 A 
ATOM      4  C   LIG    1       23.713 -21.590   4.979  0.00  0.00    +0.073 A 
ATOM      5  C   LIG    1       24.392 -22.700   5.486  0.00  0.00    +0.070 A 
ATOM      6  C   LIG    1       24.700 -22.859   6.832  0.00  0.00    +0.090 A 
ATOM      7  N   LIG    1       25.363 -24.037   7.045  0.00  0.00    -0.220 NA
ATOM      8  C   LIG    1       25.428 -24.618   5.871  0.00  0.00    +0.198 A 
ATOM      9  C   LIG    1       24.304 -21.878   7.749  0.00  0.00    +0.033 A 
ATOM     10  N   LIG    1       24.885 -23.833   4.889  0.00  0.00    -0.331 N 
ATOM     11  H   LIG    1       24.821 -24.096   3.917  0.00  0.00    +0.168 HD
ATOM     12  C   LIG    1       23.605 -20.764   7.268  0.00  0.00    +0.048 A 
BRANCH   3  14
ATOM     13  C   LIG    1       22.791 -18.963   4.282  0.00  0.00    +0.277 C 
ATOM     14  O   LIG    1       22.617 -19.477   5.596  0.00  0.00    -0.495 OA
ENDBRANCH   3  14
ENDBRANCH   1   8
BRANCH   1  15
ATOM     15  C   LIG    1       24.750 -27.150   6.395  0.00  0.00    +0.167 C 
BRANCH  15  16
ATOM     16  C   LIG    1       25.271 -28.243   7.297  0.00  0.00    +0.060 A 
ATOM     17  C   LIG    1       24.904 -29.592   7.156  0.00  0.00    +0.014 A 
ATOM     18  C   LIG    1       24.016 -30.059   6.031  0.00  0.00    +0.049 C 
ATOM     19  C   LIG    1       25.331 -30.514   8.145  0.00  0.00    +0.129 A 
ATOM     20  C   LIG    1       26.157 -30.082   9.191  0.00  0.00    +0.009 A 
ATOM     21  C   LIG    1       26.652 -30.921  10.328  0.00  0.00    +0.049 C 
ATOM     22  C   LIG    1       26.521 -28.738   9.180  0.00  0.00    +0.118 A 
ATOM     23  N   LIG    1       26.111 -27.826   8.274  0.00  0.00    -0.258 NA
BRANCH  19  24
ATOM     24  O   LIG    1       24.779 -31.762   8.002  0.00  0.00    -0.494 OA
ATOM     25  C   LIG    1       25.581 -32.843   7.558  0.00  0.00    +0.277 C 
ENDBRANCH  19  24
ENDBRANCH  15  16
ENDBRANCH   1  15
TORSDOF 5
ENDMDL
MODEL 6
REMARK VINA RESULT:      -8.1      6.997     10.339
REMARK  Name = *****
REMARK                            x       y       z     vdW  Elec       q    Type
REMARK                         _______ _______ _______ _____ _____    ______ ____
ROOT
ATOM      1  S   LIG    1       25.396 -27.979   5.692  0.00  0.00    +0.095 S 
ATOM      2  O   LIG    1       24.644 -28.179   4.405  0.00  0.00    -0.249 OA
ENDROOT
BRANCH   1   8
ATOM      3  C   LIG    1       24.641 -22.059   7.512  0.00  0.00    +0.122 A 
ATOM      4  C   LIG    1       25.608 -23.071   7.444  0.00  0.00    +0.073 A 
ATOM      5  C   LIG    1       25.187 -24.314   6.968  0.00  0.00    +0.070 A 
ATOM      6  C   LIG    1       23.876 -24.586   6.596  0.00  0.00    +0.090 A 
ATOM      7  N   LIG    1       23.748 -25.879   6.166  0.00  0.00    -0.220 NA
ATOM      8  C   LIG    1       24.956 -26.387   6.226  0.00  0.00    +0.198 A 
ATOM      9  C   LIG    1       22.913 -23.572   6.677  0.00  0.00    +0.033 A 
ATOM     10  N   LIG    1       25.855 -25.490   6.738  0.00  0.00    -0.331 N 
ATOM     11  H   LIG    1       26.840 -25.673   6.857  0.00  0.00    +0.168 HD
ATOM     12  C   LIG    1       23.315 -22.311   7.133  0.00  0.00    +0.048 A 
BRANCH   3  14
ATOM     13  C   LIG    1       26.149 -20.516   8.505  0.00  0.00    +0.277 C 
ATOM     14  O   LIG    1       24.875 -20.774   7.928  0.00  0.00    -0.495 OA
ENDBRANCH   3  14
ENDBRANCH   1   8
BRANCH   1  15
ATOM     15  C   LIG    1       24.558 -28.908   7.020  0.00  0.00    +0.167 C 
BRANCH  15  16
ATOM     16  C   LIG    1       25.463 -29.224   8.187  0.00  0.00    +0.060 A 
ATOM     17  C   LIG    1       25.556 -30.504   8.759  0.00  0.00    +0.014 A 
ATOM     18  C   LIG    1       24.809 -31.684   8.190  0.00  0.00    +0.049 C 
ATOM     19  C   LIG    1       26.320 -30.660   9.942  0.00  0.00    +0.129 A 
ATOM     20  C   LIG    1       27.016 -29.566  10.473  0.00  0.00    +0.009 A 
ATOM     21  C   LIG    1       27.826 -29.560  11.732  0.00  0.00    +0.049 C 
ATOM     22  C   LIG    1       26.913 -28.367   9.772  0.00  0.00    +0.118 A 
ATOM     23  N   LIG    1       26.172 -28.172   8.661  0.00  0.00    -0.258 NA
BRANCH  19  24
ATOM     24  O   LIG    1       26.206 -31.905  10.506  0.00  0.00    -0.494 OA
ATOM     25  C   LIG    1       25.286 -32.122  11.562  0.00  0.00    +0.277 C 
ENDBRANCH  19  24
ENDBRANCH  15  16
ENDBRANCH   1  15
TORSDOF 5
ENDMDL
MODEL 7
REMARK VINA RESULT:      -8.0      5.971      9.816
REMARK  Name = *****
REMARK                            x       y       z     vdW  Elec       q    Type
REMARK                         _______ _______ _______ _____ _____    ______ ____
ROOT
ATOM      1  S   LIG    1       24.283 -25.868   5.335  0.00  0.00    +0.095 S 
ATOM      2  O   LIG    1       25.525 -25.337   4.675  0.00  0.00    -0.249 OA
ENDROOT
BRANCH   1   8
ATOM      3  C   LIG    1       26.564 -29.795   9.613  0.00  0.00    +0.122 A 
ATOM      4  C   LIG    1       26.741 -28.499   9.108  0.00  0.00    +0.073 A 
ATOM      5  C   LIG    1       25.936 -28.129   8.029  0.00  0.00    +0.070 A 
ATOM      6  C   LIG    1       25.012 -28.981   7.436  0.00  0.00    +0.090 A 
ATOM      7  N   LIG    1       24.364 -28.357   6.405  0.00  0.00    -0.220 NA
ATOM      8  C   LIG    1       24.838 -27.135   6.384  0.00  0.00    +0.198 A 
ATOM      9  C   LIG    1       24.849 -30.277   7.940  0.00  0.00    +0.033 A 
ATOM     10  N   LIG    1       25.817 -26.957   7.325  0.00  0.00    -0.331 N 
ATOM     11  H   LIG    1       26.304 -26.089   7.486  0.00  0.00    +0.168 HD
ATOM     12  C   LIG    1       25.631 -30.666   9.035  0.00  0.00    +0.048 A 
BRANCH   3  14
ATOM     13  C   LIG    1       27.993 -29.408  11.470  0.00  0.00    +0.277 C 
ATOM     14  O   LIG    1       27.244 -30.322  10.680  0.00  0.00    -0.495 OA
ENDBRANCH   3  14
ENDBRANCH   1   8
BRANCH   1  15
ATOM     15  C   LIG    1       23.757 -24.703   6.638  0.00  0.00    +0.167 C 
BRANCH  15  16
ATOM     16  C   LIG    1       24.619 -23.465   6.713  0.00  0.00    +0.060 A 
ATOM     17  C   LIG    1       24.224 -22.225   6.185  0.00  0.00    +0.014 A 
ATOM     18  C   LIG    1       22.863 -22.021   5.569  0.00  0.00    +0.049 C 
ATOM     19  C   LIG    1       25.166 -21.165   6.175  0.00  0.00    +0.129 A 
ATOM     20  C   LIG    1       26.432 -21.352   6.747  0.00  0.00    +0.009 A 
ATOM     21  C   LIG    1       27.544 -20.350   6.776  0.00  0.00    +0.049 C 
ATOM     22  C   LIG    1       26.679 -22.600   7.313  0.00  0.00    +0.118 A 
ATOM     23  N   LIG    1       25.820 -23.640   7.314  0.00  0.00    -0.258 NA
BRANCH  19  24
ATOM     24  O   LIG    1       24.736 -20.058   5.489  0.00  0.00    -0.494 OA
ATOM     25  C   LIG    1       25.159 -19.845   4.153  0.00  0.00    +0.277 C 
ENDBRANCH  19  24
ENDBRANCH  15  16
ENDBRANCH   1  15
TORSDOF 5
ENDMDL
MODEL 8
REMARK VINA RESULT:      -7.9      5.836      8.269
REMARK  Name = *****
REMARK                            x       y       z     vdW  Elec       q    Type
REMARK                         _______ _______ _______ _____ _____    ______ ____
ROOT
ATOM      1  S   LIG    1       24.475 -25.216   5.856  0.00  0.00    +0.095 S 
ATOM      2  O   LIG    1       23.194 -25.170   6.643  0.00  0.00    -0.249 OA
ENDROOT
BRANCH   1   8
ATOM      3  C   LIG    1       27.969 -20.374   7.662  0.00  0.00    +0.122 A 
ATOM      4  C   LIG    1       27.625 -21.680   8.038  0.00  0.00    +0.073 A 
ATOM      5  C   LIG    1       26.683 -22.336   7.245  0.00  0.00    +0.070 A 
ATOM      6  C   LIG    1       26.071 -21.751   6.143  0.00  0.00    +0.090 A 
ATOM      7  N   LIG    1       25.195 -22.621   5.551  0.00  0.00    -0.220 NA
ATOM      8  C   LIG    1       25.292 -23.734   6.239  0.00  0.00    +0.198 A 
ATOM      9  C   LIG    1       26.413 -20.443   5.779  0.00  0.00    +0.033 A 
ATOM     10  N   LIG    1       26.153 -23.601   7.295  0.00  0.00    -0.331 N 
ATOM     11  H   LIG    1       26.382 -24.340   7.942  0.00  0.00    +0.168 HD
ATOM     12  C   LIG    1       27.370 -19.770   6.549  0.00  0.00    +0.048 A 
BRANCH   3  14
ATOM     13  C   LIG    1       29.866 -18.955   7.486  0.00  0.00    +0.277 C 
ATOM     14  O   LIG    1       28.890 -19.588   8.304  0.00  0.00    -0.495 OA
ENDBRANCH   3  14
ENDBRANCH   1   8
BRANCH   1  15
ATOM     15  C   LIG    1       25.643 -26.346   6.687  0.00  0.00    +0.167 C 
BRANCH  15  16
ATOM     16  C   LIG    1       25.161 -27.776   6.729  0.00  0.00    +0.060 A 
ATOM     17  C   LIG    1       25.529 -28.679   7.739  0.00  0.00    +0.014 A 
ATOM     18  C   LIG    1       26.381 -28.256   8.910  0.00  0.00    +0.049 C 
ATOM     19  C   LIG    1       25.143 -30.036   7.604  0.00  0.00    +0.129 A 
ATOM     20  C   LIG    1       24.352 -30.432   6.518  0.00  0.00    +0.009 A 
ATOM     21  C   LIG    1       23.902 -31.828   6.215  0.00  0.00    +0.049 C 
ATOM     22  C   LIG    1       23.980 -29.431   5.624  0.00  0.00    +0.118 A 
ATOM     23  N   LIG    1       24.353 -28.137   5.703  0.00  0.00    -0.258 NA
BRANCH  19  24
ATOM     24  O   LIG    1       25.696 -30.859   8.553  0.00  0.00    -0.494 OA
ATOM     25  C   LIG    1       24.887 -31.386   9.590  0.00  0.00    +0.277 C 
ENDBRANCH  19  24
ENDBRANCH  15  16
ENDBRANCH   1  15
TORSDOF 5
ENDMDL
MODEL 9
REMARK VINA RESULT:      -7.8      6.718     11.187
REMARK  Name = *****
REMARK                            x       y       z     vdW  Elec       q    Type
REMARK                         _______ _______ _______ _____ _____    ______ ____
ROOT
ATOM      1  S   LIG    1       25.286 -26.457   5.222  0.00  0.00    +0.095 S 
ATOM      2  O   LIG    1       26.694 -26.058   5.566  0.00  0.00    -0.249 OA
ENDROOT
BRANCH   1   8
ATOM      3  C   LIG    1       24.723 -31.843   8.319  0.00  0.00    +0.122 A 
ATOM      4  C   LIG    1       25.296 -30.569   8.430  0.00  0.00    +0.073 A 
ATOM      5  C   LIG    1       25.151 -29.716   7.334  0.00  0.00    +0.070 A 
ATOM      6  C   LIG    1       24.501 -30.082   6.162  0.00  0.00    +0.090 A 
ATOM      7  N   LIG    1       24.505 -29.052   5.260  0.00  0.00    -0.220 NA
ATOM      8  C   LIG    1       25.101 -28.057   5.870  0.00  0.00    +0.198 A 
ATOM      9  C   LIG    1       23.940 -31.360   6.056  0.00  0.00    +0.033 A 
ATOM     10  N   LIG    1       25.541 -28.419   7.115  0.00  0.00    -0.331 N 
ATOM     11  H   LIG    1       26.013 -27.801   7.757  0.00  0.00    +0.168 HD
ATOM     12  C   LIG    1       24.056 -32.228   7.149  0.00  0.00    +0.048 A 
BRANCH   3  14
ATOM     13  C   LIG    1       25.266 -32.409  10.562  0.00  0.00    +0.277 C 
ATOM     14  O   LIG    1       24.743 -32.802   9.299  0.00  0.00    -0.495 OA
ENDBRANCH   3  14
ENDBRANCH   1   8
BRANCH   1  15
ATOM     15  C   LIG    1       24.135 -25.612   6.359  0.00  0.00    +0.167 C 
BRANCH  15  16
ATOM     16  C   LIG    1       24.587 -24.223   6.741  0.00  0.00    +0.060 A 
ATOM     17  C   LIG    1       23.707 -23.134   6.849  0.00  0.00    +0.014 A 
ATOM     18  C   LIG    1       22.219 -23.295   6.665  0.00  0.00    +0.049 C 
ATOM     19  C   LIG    1       24.253 -21.844   7.067  0.00  0.00    +0.129 A 
ATOM     20  C   LIG    1       25.635 -21.692   7.238  0.00  0.00    +0.009 A 
ATOM     21  C   LIG    1       26.363 -20.398   7.431  0.00  0.00    +0.049 C 
ATOM     22  C   LIG    1       26.398 -22.856   7.191  0.00  0.00    +0.118 A 
ATOM     23  N   LIG    1       25.918 -24.095   6.956  0.00  0.00    -0.258 NA
BRANCH  19  24
ATOM     24  O   LIG    1       23.324 -20.837   6.987  0.00  0.00    -0.494 OA
ATOM     25  C   LIG    1       23.089 -20.189   5.749  0.00  0.00    +0.277 C 
ENDBRANCH  19  24
ENDBRANCH  15  16
ENDBRANCH   1  15
TORSDOF 5
ENDMDL
