MODEL 1
REMARK VINA RESULT:      -4.1      0.000      0.000
REMARK  Name = *****
REMARK                            x       y       z     vdW  Elec       q    Type
REMARK                         _______ _______ _______ _____ _____    ______ ____
ROOT
ATOM      1  C   LIG    1       25.200 -19.107   3.915  0.00  0.00    +0.161 A 
ATOM      2  C   LIG    1       26.005 -19.685   4.905  0.00  0.00    +0.115 A 
ATOM      3  C   LIG    1       25.380 -20.469   5.903  0.00  0.00    +0.022 A 
ATOM      4  C   LIG    1       26.218 -21.051   6.882  0.00  0.00    +0.013 A 
ATOM      5  C   LIG    1       27.592 -20.858   6.849  0.00  0.00    +0.020 A 
ATOM      6  C   LIG    1       28.105 -20.076   5.840  0.00  0.00    +0.111 A 
ATOM      7  C   LIG    1       23.971 -20.636   5.869  0.00  0.00    +0.052 A 
ATOM      8 CL   LIG    1       23.130 -21.572   7.062  0.00  0.00    -0.083 Cl
ATOM      9  C   LIG    1       23.195 -20.057   4.868  0.00  0.00    +0.044 A 
ATOM     10  N   LIG    1       27.345 -19.495   4.890  0.00  0.00    -0.251 NA
ATOM     11  C   LIG    1       23.814 -19.294   3.890  0.00  0.00    +0.086 A 
ATOM     12 CL   LIG    1       22.854 -18.589   2.642  0.00  0.00    -0.080 Cl
ENDROOT
BRANCH   1  13
ATOM     13  O   LIG    1       25.798 -18.338   2.937  0.00  0.00    -0.503 OA
ATOM     14  H   LIG    1       26.621 -18.779   2.665  0.00  0.00    +0.292 HD
ENDBRANCH   1  13
TORSDOF 1
ENDMDL
MODEL 2
REMARK VINA RESULT:      -3.9      2.027      3.801
REMARK  Name = *****
REMARK                            x       y       z     vdW  Elec       q    Type
REMARK                         _______ _______ _______ _____ _____    ______ ____
ROOT
ATOM      1  C   LIG    1       27.298 -20.067   5.229  0.00  0.00    +0.161 A 
ATOM      2  C   LIG    1       26.099 -19.644   4.641  0.00  0.00    +0.115 A 
ATOM      3  C   LIG    1       24.882 -20.097   5.201  0.00  0.00    +0.022 A 
ATOM      4  C   LIG    1       23.688 -19.644   4.596  0.00  0.00    +0.013 A 
ATOM      5  C   LIG    1       23.722 -18.786   3.505  0.00  0.00    +0.020 A 
ATOM      6  C   LIG    1       24.956 -18.404   3.031  0.00  0.00    +0.111 A 
ATOM      7  C   LIG    1       24.919 -20.962   6.325  0.00  0.00    +0.052 A 
ATOM      8 CL   LIG    1       23.472 -21.571   7.062  0.00  0.00    -0.083 Cl
ATOM      9  C   LIG    1       26.126 -21.361   6.896  0.00  0.00    +0.044 A 
ATOM     10  N   LIG    1       26.121 -18.816   3.570  0.00  0.00    -0.251 NA
ATOM     11  C   LIG    1       27.314 -20.909   6.345  0.00  0.00    +0.086 A 
ATOM     12 CL   LIG    1       28.809 -21.391   7.061  0.00  0.00    -0.080 Cl
ENDROOT
BRANCH   1  13
ATOM     13  O   LIG    1       28.492 -19.632   4.690  0.00  0.00    -0.503 OA
ATOM     14  H   LIG    1       29.216 -19.958   5.252  0.00  0.00    +0.292 HD
ENDBRANCH   1  13
TORSDOF 1
ENDMDL
MODEL 3
REMARK VINA RESULT:      -3.9      2.770      4.489
REMARK  Name = *****
REMARK                            x       y       z     vdW  Elec       q    Type
REMARK                         _______ _______ _______ _____ _____    ______ ____
ROOT
ATOM      1  C   LIG    1       26.598 -20.681   6.091  0.00  0.00    +0.161 A 
ATOM      2  C   LIG    1       25.251 -20.678   5.707  0.00  0.00    +0.115 A 
ATOM      3  C   LIG    1       24.839 -19.760   4.713  0.00  0.00    +0.022 A 
ATOM      4  C   LIG    1       23.477 -19.789   4.335  0.00  0.00    +0.013 A 
ATOM      5  C   LIG    1       22.595 -20.690   4.916  0.00  0.00    +0.020 A 
ATOM      6  C   LIG    1       23.091 -21.541   5.877  0.00  0.00    +0.111 A 
ATOM      7  C   LIG    1       25.796 -18.876   4.151  0.00  0.00    +0.052 A 
ATOM      8 CL   LIG    1       25.369 -17.713   2.938  0.00  0.00    -0.083 Cl
ATOM      9  C   LIG    1       27.132 -18.905   4.546  0.00  0.00    +0.044 A 
ATOM     10  N   LIG    1       24.379 -21.545   6.274  0.00  0.00    -0.251 NA
ATOM     11  C   LIG    1       27.530 -19.811   5.516  0.00  0.00    +0.086 A 
ATOM     12 CL   LIG    1       29.187 -19.857   5.994  0.00  0.00    -0.080 Cl
ENDROOT
BRANCH   1  13
ATOM     13  O   LIG    1       27.011 -21.572   7.062  0.00  0.00    -0.503 OA
ATOM     14  H   LIG    1       26.812 -22.472   6.752  0.00  0.00    +0.292 HD
ENDBRANCH   1  13
TORSDOF 1
ENDMDL
MODEL 4
REMARK VINA RESULT:      -3.2      2.230      3.380
REMARK  Name = *****
REMARK                            x       y       z     vdW  Elec       q    Type
REMARK                         _______ _______ _______ _____ _____    ______ ____
ROOT
ATOM      1  C   LIG    1       25.770 -20.339   4.814  0.00  0.00    +0.161 A 
ATOM      2  C   LIG    1       27.019 -19.883   5.253  0.00  0.00    +0.115 A 
ATOM      3  C   LIG    1       27.467 -18.620   4.801  0.00  0.00    +0.022 A 
ATOM      4  C   LIG    1       28.726 -18.179   5.271  0.00  0.00    +0.013 A 
ATOM      5  C   LIG    1       29.475 -18.958   6.142  0.00  0.00    +0.020 A 
ATOM      6  C   LIG    1       28.954 -20.174   6.521  0.00  0.00    +0.111 A 
ATOM      7  C   LIG    1       26.645 -17.868   3.922  0.00  0.00    +0.052 A 
ATOM      8 CL   LIG    1       27.128 -16.318   3.315  0.00  0.00    -0.083 Cl
ATOM      9  C   LIG    1       25.402 -18.342   3.507  0.00  0.00    +0.044 A 
ATOM     10  N   LIG    1       27.763 -20.639   6.094  0.00  0.00    -0.251 NA
ATOM     11  C   LIG    1       24.967 -19.578   3.958  0.00  0.00    +0.086 A 
ATOM     12 CL   LIG    1       23.421 -20.159   3.456  0.00  0.00    -0.080 Cl
ENDROOT
BRANCH   1  13
ATOM     13  O   LIG    1       25.323 -21.572   5.246  0.00  0.00    -0.503 OA
ATOM     14  H   LIG    1       24.601 -21.427   5.883  0.00  0.00    +0.292 HD
ENDBRANCH   1  13
TORSDOF 1
ENDMDL
MODEL 5
REMARK VINA RESULT:      -2.7      1.894      2.209
REMARK  Name = *****
REMARK                            x       y       z     vdW  Elec       q    Type
REMARK                         _______ _______ _______ _____ _____    ______ ____
ROOT
ATOM      1  C   LIG    1       27.443 -18.349   4.589  0.00  0.00    +0.161 A 
ATOM      2  C   LIG    1       27.762 -19.423   5.429  0.00  0.00    +0.115 A 
ATOM      3  C   LIG    1       26.804 -20.449   5.598  0.00  0.00    +0.022 A 
ATOM      4  C   LIG    1       27.158 -21.528   6.440  0.00  0.00    +0.013 A 
ATOM      5  C   LIG    1       28.399 -21.569   7.062  0.00  0.00    +0.020 A 
ATOM      6  C   LIG    1       29.262 -20.521   6.837  0.00  0.00    +0.111 A 
ATOM      7  C   LIG    1       25.560 -20.352   4.921  0.00  0.00    +0.052 A 
ATOM      8 CL   LIG    1       24.329 -21.561   5.086  0.00  0.00    -0.083 Cl
ATOM      9  C   LIG    1       25.271 -19.275   4.085  0.00  0.00    +0.044 A 
ATOM     10  N   LIG    1       28.965 -19.469   6.048  0.00  0.00    -0.251 NA
ATOM     11  C   LIG    1       26.217 -18.276   3.919  0.00  0.00    +0.086 A 
ATOM     12 CL   LIG    1       25.864 -16.951   2.872  0.00  0.00    -0.080 Cl
ENDROOT
BRANCH   1  13
ATOM     13  O   LIG    1       28.370 -17.340   4.418  0.00  0.00    -0.503 OA
ATOM     14  H   LIG    1       29.208 -17.626   4.820  0.00  0.00    +0.292 HD
ENDBRANCH   1  13
TORSDOF 1
ENDMDL
MODEL 6
REMARK VINA RESULT:      -2.7      2.193      3.016
REMARK  Name = *****
REMARK                            x       y       z     vdW  Elec       q    Type
REMARK                         _______ _______ _______ _____ _____    ______ ____
ROOT
ATOM      1  C   LIG    1       25.773 -18.992   4.548  0.00  0.00    +0.161 A 
ATOM      2  C   LIG    1       24.954 -19.841   5.303  0.00  0.00    +0.115 A 
ATOM      3  C   LIG    1       23.553 -19.744   5.134  0.00  0.00    +0.022 A 
ATOM      4  C   LIG    1       22.751 -20.622   5.899  0.00  0.00    +0.013 A 
ATOM      5  C   LIG    1       23.327 -21.539   6.767  0.00  0.00    +0.020 A 
ATOM      6  C   LIG    1       24.699 -21.555   6.863  0.00  0.00    +0.111 A 
ATOM      7  C   LIG    1       23.031 -18.793   4.220  0.00  0.00    +0.052 A 
ATOM      8 CL   LIG    1       21.327 -18.603   3.966  0.00  0.00    -0.083 Cl
ATOM      9  C   LIG    1       23.869 -17.965   3.475  0.00  0.00    +0.044 A 
ATOM     10  N   LIG    1       25.503 -20.732   6.160  0.00  0.00    -0.251 NA
ATOM     11  C   LIG    1       25.241 -18.070   3.641  0.00  0.00    +0.086 A 
ATOM     12 CL   LIG    1       26.279 -17.055   2.708  0.00  0.00    -0.080 Cl
ENDROOT
BRANCH   1  13
ATOM     13  O   LIG    1       27.142 -19.076   4.705  0.00  0.00    -0.503 OA
ATOM     14  H   LIG    1       27.548 -19.106   3.821  0.00  0.00    +0.292 HD
ENDBRANCH   1  13
TORSDOF 1
ENDMDL
MODEL 7
REMARK VINA RESULT:      -2.5      2.550      3.651
REMARK  Name = *****
REMARK                            x       y       z     vdW  Elec       q    Type
REMARK                         _______ _______ _______ _____ _____    ______ ____
ROOT
ATOM      1  C   LIG    1       26.381 -18.491   4.019  0.00  0.00    +0.161 A 
ATOM      2  C   LIG    1       25.475 -19.526   4.282  0.00  0.00    +0.115 A 
ATOM      3  C   LIG    1       25.834 -20.503   5.239  0.00  0.00    +0.022 A 
ATOM      4  C   LIG    1       24.894 -21.529   5.494  0.00  0.00    +0.013 A 
ATOM      5  C   LIG    1       23.674 -21.558   4.833  0.00  0.00    +0.020 A 
ATOM      6  C   LIG    1       23.418 -20.563   3.918  0.00  0.00    +0.111 A 
ATOM      7  C   LIG    1       27.092 -20.406   5.888  0.00  0.00    +0.052 A 
ATOM      8 CL   LIG    1       27.611 -21.571   7.062  0.00  0.00    -0.083 Cl
ATOM      9  C   LIG    1       27.972 -19.361   5.613  0.00  0.00    +0.044 A 
ATOM     10  N   LIG    1       24.286 -19.570   3.636  0.00  0.00    -0.251 NA
ATOM     11  C   LIG    1       27.611 -18.403   4.679  0.00  0.00    +0.086 A 
ATOM     12 CL   LIG    1       28.695 -17.101   4.350  0.00  0.00    -0.080 Cl
ENDROOT
BRANCH   1  13
ATOM     13  O   LIG    1       26.042 -17.531   3.086  0.00  0.00    -0.503 OA
ATOM     14  H   LIG    1       26.648 -17.616   2.329  0.00  0.00    +0.292 HD
ENDBRANCH   1  13
TORSDOF 1
ENDMDL
MODEL 8
REMARK VINA RESULT:      -2.4      5.158      6.289
REMARK  Name = *****
REMARK                            x       y       z     vdW  Elec       q    Type
REMARK                         _______ _______ _______ _____ _____    ______ ____
ROOT
ATOM      1  C   LIG    1       25.223 -15.835   3.717  0.00  0.00    +0.161 A 
ATOM      2  C   LIG    1       26.172 -14.806   3.762  0.00  0.00    +0.115 A 
ATOM      3  C   LIG    1       25.749 -13.523   4.178  0.00  0.00    +0.022 A 
ATOM      4  C   LIG    1       26.730 -12.506   4.227  0.00  0.00    +0.013 A 
ATOM      5  C   LIG    1       28.049 -12.772   3.885  0.00  0.00    +0.020 A 
ATOM      6  C   LIG    1       28.362 -14.052   3.490  0.00  0.00    +0.111 A 
ATOM      7  C   LIG    1       24.388 -13.323   4.527  0.00  0.00    +0.052 A 
ATOM      8 CL   LIG    1       23.788 -11.778   5.034  0.00  0.00    -0.083 Cl
ATOM      9  C   LIG    1       23.466 -14.367   4.481  0.00  0.00    +0.044 A 
ATOM     10  N   LIG    1       27.459 -15.051   3.421  0.00  0.00    -0.251 NA
ATOM     11  C   LIG    1       23.889 -15.623   4.077  0.00  0.00    +0.086 A 
ATOM     12 CL   LIG    1       22.750 -16.919   4.035  0.00  0.00    -0.080 Cl
ENDROOT
BRANCH   1  13
ATOM     13  O   LIG    1       25.625 -17.092   3.310  0.00  0.00    -0.503 OA
ATOM     14  H   LIG    1       25.845 -17.612   4.103  0.00  0.00    +0.292 HD
ENDBRANCH   1  13
TORSDOF 1
ENDMDL
MODEL 9
REMARK VINA RESULT:      -2.3      2.020      2.810
REMARK  Name = *****
REMARK                            x       y       z     vdW  Elec       q    Type
REMARK                         _______ _______ _______ _____ _____    ______ ____
ROOT
ATOM      1  C   LIG    1       23.638 -19.575   4.110  0.00  0.00    +0.161 A 
ATOM      2  C   LIG    1       24.931 -19.037   4.105  0.00  0.00    +0.115 A 
ATOM      3  C   LIG    1       25.914 -19.648   4.918  0.00  0.00    +0.022 A 
ATOM      4  C   LIG    1       27.214 -19.093   4.882  0.00  0.00    +0.013 A 
ATOM      5  C   LIG    1       27.501 -18.001   4.074  0.00  0.00    +0.020 A 
ATOM      6  C   LIG    1       26.476 -17.476   3.322  0.00  0.00    +0.111 A 
ATOM      7  C   LIG    1       25.556 -20.770   5.709  0.00  0.00    +0.052 A 
ATOM      8 CL   LIG    1       26.698 -21.567   6.741  0.00  0.00    -0.083 Cl
ATOM      9  C   LIG    1       24.263 -21.290   5.690  0.00  0.00    +0.044 A 
ATOM     10  N   LIG    1       25.221 -17.966   3.329  0.00  0.00    -0.251 NA
ATOM     11  C   LIG    1       23.307 -20.690   4.886  0.00  0.00    +0.086 A 
ATOM     12 CL   LIG    1       21.710 -21.342   4.851  0.00  0.00    -0.080 Cl
ENDROOT
BRANCH   1  13
ATOM     13  O   LIG    1       22.670 -18.986   3.321  0.00  0.00    -0.503 OA
ATOM     14  H   LIG    1       21.935 -19.615   3.221  0.00  0.00    +0.292 HD
ENDBRANCH   1  13
TORSDOF 1
ENDMDL
