MODEL 1
REMARK VINA RESULT:      -8.0      0.000      0.000
REMARK  Name = *****
REMARK                            x       y       z     vdW  Elec       q    Type
REMARK                         _______ _______ _______ _____ _____    ______ ____
ROOT
ATOM      1  C   LIG    1       25.586 -23.657   6.486  0.00  0.00    +0.028 C 
ENDROOT
BRANCH   1   2
ATOM      2  C   LIG    1       25.105 -24.657   5.391  0.00  0.00    +0.017 C 
BRANCH   2   3
ATOM      3  C   LIG    1       24.303 -25.960   5.740  0.00  0.00    +0.084 C 
BRANCH   3   4
ATOM      4  N   LIG    1       25.137 -27.201   5.810  0.00  0.00    -0.305 NA
ATOM      5  C   LIG    1       26.336 -27.149   4.966  0.00  0.00    +0.105 C 
BRANCH   4   6
ATOM      6  C   LIG    1       24.397 -28.495   5.560  0.00  0.00    +0.089 C 
BRANCH   6   7
ATOM      7  C   LIG    1       24.243 -29.337   6.878  0.00  0.00    +0.050 C 
BRANCH   7  11
ATOM      8  C   LIG    1       27.264 -30.105  10.011  0.00  0.00    +0.162 A 
ATOM      9  C   LIG    1       26.797 -31.156   9.181  0.00  0.00    +0.162 A 
ATOM     10  C   LIG    1       25.830 -30.919   8.164  0.00  0.00    +0.053 A 
ATOM     11  C   LIG    1       25.380 -29.641   7.850  0.00  0.00    -0.043 A 
ATOM     12  C   LIG    1       25.927 -28.584   8.602  0.00  0.00    +0.007 A 
ATOM     13  C   LIG    1       26.835 -28.808   9.664  0.00  0.00    +0.050 A 
BRANCH   8  15
ATOM     14  C   LIG    1       28.331 -29.219  12.090  0.00  0.00    +0.277 C 
ATOM     15  O   LIG    1       28.247 -30.144  10.986  0.00  0.00    -0.491 OA
ENDBRANCH   8  15
BRANCH   9  16
ATOM     16  O   LIG    1       27.199 -32.481   9.138  0.00  0.00    -0.491 OA
ATOM     17  C   LIG    1       26.155 -33.342   9.462  0.00  0.00    +0.277 C 
ENDBRANCH   9  16
ENDBRANCH   7  11
ENDBRANCH   6   7
ENDBRANCH   4   6
ENDBRANCH   3   4
ENDBRANCH   2   3
ENDBRANCH   1   2
BRANCH   1  18
ATOM     18  C   LIG    1       25.267 -22.089   6.421  0.00  0.00    +0.085 C 
BRANCH  18  19
ATOM     19  C   LIG    1       26.591 -21.278   6.694  0.00  0.00    -0.024 A 
ATOM     20  C   LIG    1       27.430 -21.493   7.803  0.00  0.00    +0.054 A 
ATOM     21  C   LIG    1       28.710 -20.879   7.929  0.00  0.00    +0.162 A 
ATOM     22  C   LIG    1       29.135 -19.909   6.996  0.00  0.00    +0.162 A 
ATOM     23  C   LIG    1       28.300 -19.647   5.913  0.00  0.00    +0.050 A 
ATOM     24  C   LIG    1       27.067 -20.326   5.762  0.00  0.00    +0.009 A 
BRANCH  21  25
ATOM     25  O   LIG    1       29.608 -21.199   8.929  0.00  0.00    -0.491 OA
ATOM     26  C   LIG    1       30.711 -22.025   8.568  0.00  0.00    +0.277 C 
ENDBRANCH  21  25
BRANCH  22  27
ATOM     27  O   LIG    1       30.361 -19.313   7.175  0.00  0.00    -0.491 OA
ATOM     28  C   LIG    1       30.466 -18.177   8.040  0.00  0.00    +0.277 C 
ENDBRANCH  22  27
ENDBRANCH  18  19
BRANCH  18  29
ATOM     29  C   LIG    1       23.995 -21.756   7.356  0.00  0.00    +0.007 C 
ATOM     30  C   LIG    1       22.826 -22.772   7.199  0.00  0.00    +0.009 C 
ATOM     31  C   LIG    1       23.431 -20.316   7.245  0.00  0.00    +0.009 C 
ENDBRANCH  18  29
BRANCH  18  32
ATOM     32  C   LIG    1       24.804 -21.826   5.034  0.00  0.00    +0.074 C 
ATOM     33  N   LIG    1       24.432 -21.616   3.897  0.00  0.00    -0.196 NA
ENDBRANCH  18  32
ENDBRANCH   1  18
TORSDOF 14
ENDMDL
MODEL 2
REMARK VINA RESULT:      -8.0      1.262      2.222
REMARK  Name = *****
REMARK                            x       y       z     vdW  Elec       q    Type
REMARK                         _______ _______ _______ _____ _____    ______ ____
ROOT
ATOM      1  C   LIG    1       26.348 -22.697   6.629  0.00  0.00    +0.028 C 
ENDROOT
BRANCH   1   2
ATOM      2  C   LIG    1       25.126 -23.604   6.291  0.00  0.00    +0.017 C 
BRANCH   2   3
ATOM      3  C   LIG    1       25.185 -24.711   5.181  0.00  0.00    +0.084 C 
BRANCH   3   4
ATOM      4  N   LIG    1       26.072 -25.870   5.508  0.00  0.00    -0.305 NA
ATOM      5  C   LIG    1       25.977 -26.971   4.542  0.00  0.00    +0.105 C 
BRANCH   4   6
ATOM      6  C   LIG    1       25.936 -26.416   6.911  0.00  0.00    +0.089 C 
BRANCH   6   7
ATOM      7  C   LIG    1       25.218 -27.813   6.921  0.00  0.00    +0.050 C 
BRANCH   7  11
ATOM      8  C   LIG    1       26.129 -31.158   9.663  0.00  0.00    +0.162 A 
ATOM      9  C   LIG    1       26.540 -29.835   9.971  0.00  0.00    +0.162 A 
ATOM     10  C   LIG    1       26.246 -28.750   9.099  0.00  0.00    +0.053 A 
ATOM     11  C   LIG    1       25.447 -28.898   7.969  0.00  0.00    -0.043 A 
ATOM     12  C   LIG    1       24.948 -30.191   7.724  0.00  0.00    +0.007 A 
ATOM     13  C   LIG    1       25.289 -31.296   8.539  0.00  0.00    +0.050 A 
BRANCH   8  15
ATOM     14  C   LIG    1       25.228 -32.836  11.280  0.00  0.00    +0.277 C 
ATOM     15  O   LIG    1       26.263 -32.305  10.426  0.00  0.00    -0.491 OA
ENDBRANCH   8  15
BRANCH   9  16
ATOM     16  O   LIG    1       27.180 -29.359  11.103  0.00  0.00    -0.491 OA
ATOM     17  C   LIG    1       27.008 -27.986  11.249  0.00  0.00    +0.277 C 
ENDBRANCH   9  16
ENDBRANCH   7  11
ENDBRANCH   6   7
ENDBRANCH   4   6
ENDBRANCH   3   4
ENDBRANCH   2   3
ENDBRANCH   1   2
BRANCH   1  18
ATOM     18  C   LIG    1       26.253 -21.099   6.663  0.00  0.00    +0.085 C 
BRANCH  18  19
ATOM     19  C   LIG    1       27.690 -20.498   6.910  0.00  0.00    -0.024 A 
ATOM     20  C   LIG    1       28.485 -20.799   8.032  0.00  0.00    +0.054 A 
ATOM     21  C   LIG    1       29.847 -20.391   8.141  0.00  0.00    +0.162 A 
ATOM     22  C   LIG    1       30.420 -19.540   7.171  0.00  0.00    +0.162 A 
ATOM     23  C   LIG    1       29.636 -19.193   6.074  0.00  0.00    +0.050 A 
ATOM     24  C   LIG    1       28.311 -19.673   5.944  0.00  0.00    +0.009 A 
BRANCH  21  25
ATOM     25  O   LIG    1       30.683 -20.809   9.157  0.00  0.00    -0.491 OA
ATOM     26  C   LIG    1       31.111 -22.168   9.127  0.00  0.00    +0.277 C 
ENDBRANCH  21  25
BRANCH  22  27
ATOM     27  O   LIG    1       31.725 -19.141   7.332  0.00  0.00    -0.491 OA
ATOM     28  C   LIG    1       32.022 -18.074   8.240  0.00  0.00    +0.277 C 
ENDBRANCH  22  27
ENDBRANCH  18  19
BRANCH  18  29
ATOM     29  C   LIG    1       25.083 -20.648   7.678  0.00  0.00    +0.007 C 
ATOM     30  C   LIG    1       25.174 -21.329   9.074  0.00  0.00    +0.009 C 
ATOM     31  C   LIG    1       23.634 -20.781   7.143  0.00  0.00    +0.009 C 
ENDBRANCH  18  29
BRANCH  18  32
ATOM     32  C   LIG    1       25.773 -20.692   5.318  0.00  0.00    +0.074 C 
ATOM     33  N   LIG    1       25.387 -20.353   4.216  0.00  0.00    -0.196 NA
ENDBRANCH  18  32
ENDBRANCH   1  18
TORSDOF 14
ENDMDL
MODEL 3
REMARK VINA RESULT:      -8.0      1.846      2.408
REMARK  Name = *****
REMARK                            x       y       z     vdW  Elec       q    Type
REMARK                         _______ _______ _______ _____ _____    ______ ____
ROOT
ATOM      1  C   LIG    1       26.274 -22.650   6.545  0.00  0.00    +0.028 C 
ENDROOT
BRANCH   1   2
ATOM      2  C   LIG    1       25.051 -23.526   6.137  0.00  0.00    +0.017 C 
BRANCH   2   3
ATOM      3  C   LIG    1       25.182 -24.742   5.153  0.00  0.00    +0.084 C 
BRANCH   3   4
ATOM      4  N   LIG    1       25.511 -26.043   5.816  0.00  0.00    -0.305 NA
ATOM      5  C   LIG    1       26.491 -26.845   5.076  0.00  0.00    +0.105 C 
BRANCH   4   6
ATOM      6  C   LIG    1       24.323 -26.904   6.179  0.00  0.00    +0.089 C 
BRANCH   6   7
ATOM      7  C   LIG    1       24.369 -28.292   5.444  0.00  0.00    +0.050 C 
BRANCH   7  11
ATOM      8  C   LIG    1       25.836 -32.005   7.340  0.00  0.00    +0.162 A 
ATOM      9  C   LIG    1       25.030 -31.091   8.065  0.00  0.00    +0.162 A 
ATOM     10  C   LIG    1       24.547 -29.895   7.463  0.00  0.00    +0.053 A 
ATOM     11  C   LIG    1       24.733 -29.615   6.113  0.00  0.00    -0.043 A 
ATOM     12  C   LIG    1       25.438 -30.578   5.367  0.00  0.00    +0.007 A 
ATOM     13  C   LIG    1       25.988 -31.737   5.964  0.00  0.00    +0.050 A 
BRANCH   8  15
ATOM     14  C   LIG    1       27.415 -33.416   8.667  0.00  0.00    +0.277 C 
ATOM     15  O   LIG    1       26.322 -33.238   7.742  0.00  0.00    -0.491 OA
ENDBRANCH   8  15
BRANCH   9  16
ATOM     16  O   LIG    1       24.533 -31.193   9.354  0.00  0.00    -0.491 OA
ATOM     17  C   LIG    1       23.442 -30.352   9.550  0.00  0.00    +0.277 C 
ENDBRANCH   9  16
ENDBRANCH   7  11
ENDBRANCH   6   7
ENDBRANCH   4   6
ENDBRANCH   3   4
ENDBRANCH   2   3
ENDBRANCH   1   2
BRANCH   1  18
ATOM     18  C   LIG    1       26.204 -21.052   6.617  0.00  0.00    +0.085 C 
BRANCH  18  19
ATOM     19  C   LIG    1       27.650 -20.479   6.879  0.00  0.00    -0.024 A 
ATOM     20  C   LIG    1       28.421 -20.784   8.016  0.00  0.00    +0.054 A 
ATOM     21  C   LIG    1       29.790 -20.404   8.140  0.00  0.00    +0.162 A 
ATOM     22  C   LIG    1       30.395 -19.577   7.169  0.00  0.00    +0.162 A 
ATOM     23  C   LIG    1       29.635 -19.225   6.057  0.00  0.00    +0.050 A 
ATOM     24  C   LIG    1       28.302 -19.678   5.913  0.00  0.00    +0.009 A 
BRANCH  21  25
ATOM     25  O   LIG    1       30.602 -20.829   9.173  0.00  0.00    -0.491 OA
ATOM     26  C   LIG    1       31.120 -22.153   9.088  0.00  0.00    +0.277 C 
ENDBRANCH  21  25
BRANCH  22  27
ATOM     27  O   LIG    1       31.707 -19.203   7.346  0.00  0.00    -0.491 OA
ATOM     28  C   LIG    1       32.010 -18.110   8.220  0.00  0.00    +0.277 C 
ENDBRANCH  22  27
ENDBRANCH  18  19
BRANCH  18  29
ATOM     29  C   LIG    1       25.040 -20.606   7.642  0.00  0.00    +0.007 C 
ATOM     30  C   LIG    1       25.148 -21.286   9.037  0.00  0.00    +0.009 C 
ATOM     31  C   LIG    1       23.587 -20.750   7.120  0.00  0.00    +0.009 C 
ENDBRANCH  18  29
BRANCH  18  32
ATOM     32  C   LIG    1       25.731 -20.605   5.282  0.00  0.00    +0.074 C 
ATOM     33  N   LIG    1       25.339 -20.247   4.189  0.00  0.00    -0.196 NA
ENDBRANCH  18  32
ENDBRANCH   1  18
TORSDOF 14
ENDMDL
MODEL 4
REMARK VINA RESULT:      -7.9      1.509      2.531
REMARK  Name = *****
REMARK                            x       y       z     vdW  Elec       q    Type
REMARK                         _______ _______ _______ _____ _____    ______ ____
ROOT
ATOM      1  C   LIG    1       24.766 -22.660   5.219  0.00  0.00    +0.028 C 
ENDROOT
BRANCH   1   2
ATOM      2  C   LIG    1       25.102 -23.868   6.146  0.00  0.00    +0.017 C 
BRANCH   2   3
ATOM      3  C   LIG    1       24.207 -25.155   6.202  0.00  0.00    +0.084 C 
BRANCH   3   4
ATOM      4  N   LIG    1       24.968 -26.431   6.382  0.00  0.00    -0.305 NA
ATOM      5  C   LIG    1       26.353 -26.359   5.904  0.00  0.00    +0.105 C 
BRANCH   4   6
ATOM      6  C   LIG    1       24.302 -27.668   5.822  0.00  0.00    +0.089 C 
BRANCH   6   7
ATOM      7  C   LIG    1       24.906 -28.979   6.443  0.00  0.00    +0.050 C 
BRANCH   7  11
ATOM      8  C   LIG    1       25.346 -30.172  10.676  0.00  0.00    +0.162 A 
ATOM      9  C   LIG    1       26.295 -29.315  10.062  0.00  0.00    +0.162 A 
ATOM     10  C   LIG    1       26.159 -28.920   8.702  0.00  0.00    +0.053 A 
ATOM     11  C   LIG    1       25.042 -29.247   7.940  0.00  0.00    -0.043 A 
ATOM     12  C   LIG    1       24.047 -30.005   8.584  0.00  0.00    +0.007 A 
ATOM     13  C   LIG    1       24.198 -30.468   9.913  0.00  0.00    +0.050 A 
BRANCH   8  15
ATOM     14  C   LIG    1       24.405 -30.017  12.986  0.00  0.00    +0.277 C 
ATOM     15  O   LIG    1       25.283 -30.590  11.995  0.00  0.00    -0.491 OA
ENDBRANCH   8  15
BRANCH   9  16
ATOM     16  O   LIG    1       27.397 -28.688  10.619  0.00  0.00    -0.491 OA
ATOM     17  C   LIG    1       27.019 -27.708  11.533  0.00  0.00    +0.277 C 
ENDBRANCH   9  16
ENDBRANCH   7  11
ENDBRANCH   6   7
ENDBRANCH   4   6
ENDBRANCH   3   4
ENDBRANCH   2   3
ENDBRANCH   1   2
BRANCH   1  18
ATOM     18  C   LIG    1       25.023 -21.140   5.656  0.00  0.00    +0.085 C 
BRANCH  18  19
ATOM     19  C   LIG    1       26.412 -21.040   6.394  0.00  0.00    -0.024 A 
ATOM     20  C   LIG    1       27.538 -20.382   5.863  0.00  0.00    +0.054 A 
ATOM     21  C   LIG    1       28.720 -20.146   6.624  0.00  0.00    +0.162 A 
ATOM     22  C   LIG    1       28.859 -20.691   7.919  0.00  0.00    +0.162 A 
ATOM     23  C   LIG    1       27.774 -21.384   8.447  0.00  0.00    +0.050 A 
ATOM     24  C   LIG    1       26.578 -21.540   7.707  0.00  0.00    +0.009 A 
BRANCH  21  25
ATOM     25  O   LIG    1       29.768 -19.369   6.172  0.00  0.00    -0.491 OA
ATOM     26  C   LIG    1       29.435 -18.213   5.408  0.00  0.00    +0.277 C 
ENDBRANCH  21  25
BRANCH  22  27
ATOM     27  O   LIG    1       30.030 -20.470   8.605  0.00  0.00    -0.491 OA
ATOM     28  C   LIG    1       30.925 -21.565   8.831  0.00  0.00    +0.277 C 
ENDBRANCH  22  27
ENDBRANCH  18  19
BRANCH  18  29
ATOM     29  C   LIG    1       23.731 -20.577   6.440  0.00  0.00    +0.007 C 
ATOM     30  C   LIG    1       23.151 -21.576   7.482  0.00  0.00    +0.009 C 
ATOM     31  C   LIG    1       22.576 -20.048   5.551  0.00  0.00    +0.009 C 
ENDBRANCH  18  29
BRANCH  18  32
ATOM     32  C   LIG    1       25.077 -20.359   4.394  0.00  0.00    +0.074 C 
ATOM     33  N   LIG    1       25.113 -19.720   3.360  0.00  0.00    -0.196 NA
ENDBRANCH  18  32
ENDBRANCH   1  18
TORSDOF 14
ENDMDL
MODEL 5
REMARK VINA RESULT:      -7.9      1.849      2.448
REMARK  Name = *****
REMARK                            x       y       z     vdW  Elec       q    Type
REMARK                         _______ _______ _______ _____ _____    ______ ____
ROOT
ATOM      1  C   LIG    1       24.730 -22.521   5.083  0.00  0.00    +0.028 C 
ENDROOT
BRANCH   1   2
ATOM      2  C   LIG    1       25.231 -23.793   5.833  0.00  0.00    +0.017 C 
BRANCH   2   3
ATOM      3  C   LIG    1       24.297 -25.021   6.117  0.00  0.00    +0.084 C 
BRANCH   3   4
ATOM      4  N   LIG    1       25.022 -26.288   6.447  0.00  0.00    -0.305 NA
ATOM      5  C   LIG    1       26.413 -26.305   5.979  0.00  0.00    +0.105 C 
BRANCH   4   6
ATOM      6  C   LIG    1       24.328 -27.562   6.021  0.00  0.00    +0.089 C 
BRANCH   6   7
ATOM      7  C   LIG    1       25.081 -28.834   6.553  0.00  0.00    +0.050 C 
BRANCH   7  11
ATOM      8  C   LIG    1       25.101 -29.693  10.888  0.00  0.00    +0.162 A 
ATOM      9  C   LIG    1       24.141 -30.294  10.034  0.00  0.00    +0.162 A 
ATOM     10  C   LIG    1       24.130 -30.030   8.636  0.00  0.00    +0.053 A 
ATOM     11  C   LIG    1       25.117 -29.273   8.014  0.00  0.00    -0.043 A 
ATOM     12  C   LIG    1       26.133 -28.767   8.847  0.00  0.00    +0.007 A 
ATOM     13  C   LIG    1       26.121 -28.959  10.249  0.00  0.00    +0.050 A 
BRANCH   8  15
ATOM     14  C   LIG    1       24.361 -29.514  13.268  0.00  0.00    +0.277 C 
ATOM     15  O   LIG    1       25.302 -29.896  12.243  0.00  0.00    -0.491 OA
ENDBRANCH   8  15
BRANCH   9  16
ATOM     16  O   LIG    1       23.163 -31.226  10.338  0.00  0.00    -0.491 OA
ATOM     17  C   LIG    1       21.929 -30.621  10.554  0.00  0.00    +0.277 C 
ENDBRANCH   9  16
ENDBRANCH   7  11
ENDBRANCH   6   7
ENDBRANCH   4   6
ENDBRANCH   3   4
ENDBRANCH   2   3
ENDBRANCH   1   2
BRANCH   1  18
ATOM     18  C   LIG    1       24.978 -21.039   5.637  0.00  0.00    +0.085 C 
BRANCH  18  19
ATOM     19  C   LIG    1       26.358 -20.994   6.399  0.00  0.00    -0.024 A 
ATOM     20  C   LIG    1       27.526 -20.409   5.875  0.00  0.00    +0.054 A 
ATOM     21  C   LIG    1       28.705 -20.217   6.654  0.00  0.00    +0.162 A 
ATOM     22  C   LIG    1       28.792 -20.738   7.963  0.00  0.00    +0.162 A 
ATOM     23  C   LIG    1       27.662 -21.361   8.485  0.00  0.00    +0.050 A 
ATOM     24  C   LIG    1       26.473 -21.472   7.725  0.00  0.00    +0.009 A 
BRANCH  21  25
ATOM     25  O   LIG    1       29.800 -19.506   6.205  0.00  0.00    -0.491 OA
ATOM     26  C   LIG    1       29.544 -18.274   5.537  0.00  0.00    +0.277 C 
ENDBRANCH  21  25
BRANCH  22  27
ATOM     27  O   LIG    1       29.960 -20.563   8.667  0.00  0.00    -0.491 OA
ATOM     28  C   LIG    1       30.855 -21.670   8.821  0.00  0.00    +0.277 C 
ENDBRANCH  22  27
ENDBRANCH  18  19
BRANCH  18  29
ATOM     29  C   LIG    1       23.675 -20.537   6.443  0.00  0.00    +0.007 C 
ATOM     30  C   LIG    1       23.022 -21.644   7.320  0.00  0.00    +0.009 C 
ATOM     31  C   LIG    1       22.575 -19.850   5.594  0.00  0.00    +0.009 C 
ENDBRANCH  18  29
BRANCH  18  32
ATOM     32  C   LIG    1       25.049 -20.164   4.438  0.00  0.00    +0.074 C 
ATOM     33  N   LIG    1       25.115 -19.451   3.457  0.00  0.00    -0.196 NA
ENDBRANCH  18  32
ENDBRANCH   1  18
TORSDOF 14
ENDMDL
MODEL 6
REMARK VINA RESULT:      -7.8      2.097      2.732
REMARK  Name = *****
REMARK                            x       y       z     vdW  Elec       q    Type
REMARK                         _______ _______ _______ _____ _____    ______ ____
ROOT
ATOM      1  C   LIG    1       24.747 -22.542   5.134  0.00  0.00    +0.028 C 
ENDROOT
BRANCH   1   2
ATOM      2  C   LIG    1       25.361 -23.791   5.837  0.00  0.00    +0.017 C 
BRANCH   2   3
ATOM      3  C   LIG    1       24.472 -24.906   6.491  0.00  0.00    +0.084 C 
BRANCH   3   4
ATOM      4  N   LIG    1       25.045 -26.286   6.405  0.00  0.00    -0.305 NA
ATOM      5  C   LIG    1       26.479 -26.305   6.094  0.00  0.00    +0.105 C 
BRANCH   4   6
ATOM      6  C   LIG    1       24.314 -27.237   5.485  0.00  0.00    +0.089 C 
BRANCH   6   7
ATOM      7  C   LIG    1       25.057 -28.617   5.373  0.00  0.00    +0.050 C 
BRANCH   7  11
ATOM      8  C   LIG    1       24.168 -31.884   8.213  0.00  0.00    +0.162 A 
ATOM      9  C   LIG    1       24.775 -32.158   6.961  0.00  0.00    +0.162 A 
ATOM     10  C   LIG    1       25.072 -31.113   6.041  0.00  0.00    +0.053 A 
ATOM     11  C   LIG    1       24.897 -29.770   6.360  0.00  0.00    -0.043 A 
ATOM     12  C   LIG    1       24.398 -29.494   7.647  0.00  0.00    +0.007 A 
ATOM     13  C   LIG    1       24.030 -30.522   8.547  0.00  0.00    +0.050 A 
BRANCH   8  15
ATOM     14  C   LIG    1       24.869 -33.278  10.166  0.00  0.00    +0.277 C 
ATOM     15  O   LIG    1       23.884 -32.761   9.247  0.00  0.00    -0.491 OA
ENDBRANCH   8  15
BRANCH   9  16
ATOM     16  O   LIG    1       25.229 -33.364   6.453  0.00  0.00    -0.491 OA
ATOM     17  C   LIG    1       26.454 -33.219   5.808  0.00  0.00    +0.277 C 
ENDBRANCH   9  16
ENDBRANCH   7  11
ENDBRANCH   6   7
ENDBRANCH   4   6
ENDBRANCH   3   4
ENDBRANCH   2   3
ENDBRANCH   1   2
BRANCH   1  18
ATOM     18  C   LIG    1       25.017 -21.047   5.642  0.00  0.00    +0.085 C 
BRANCH  18  19
ATOM     19  C   LIG    1       26.408 -20.994   6.383  0.00  0.00    -0.024 A 
ATOM     20  C   LIG    1       27.541 -20.328   5.877  0.00  0.00    +0.054 A 
ATOM     21  C   LIG    1       28.726 -20.137   6.647  0.00  0.00    +0.162 A 
ATOM     22  C   LIG    1       28.860 -20.736   7.918  0.00  0.00    +0.162 A 
ATOM     23  C   LIG    1       27.767 -21.438   8.419  0.00  0.00    +0.050 A 
ATOM     24  C   LIG    1       26.569 -21.549   7.673  0.00  0.00    +0.009 A 
BRANCH  21  25
ATOM     25  O   LIG    1       29.783 -19.355   6.226  0.00  0.00    -0.491 OA
ATOM     26  C   LIG    1       29.472 -18.234   5.403  0.00  0.00    +0.277 C 
ENDBRANCH  21  25
BRANCH  22  27
ATOM     27  O   LIG    1       30.034 -20.558   8.612  0.00  0.00    -0.491 OA
ATOM     28  C   LIG    1       30.857 -21.695   8.895  0.00  0.00    +0.277 C 
ENDBRANCH  22  27
ENDBRANCH  18  19
BRANCH  18  29
ATOM     29  C   LIG    1       23.730 -20.511   6.454  0.00  0.00    +0.007 C 
ATOM     30  C   LIG    1       23.111 -21.572   7.408  0.00  0.00    +0.009 C 
ATOM     31  C   LIG    1       22.602 -19.882   5.596  0.00  0.00    +0.009 C 
ENDBRANCH  18  29
BRANCH  18  32
ATOM     32  C   LIG    1       25.077 -20.207   4.418  0.00  0.00    +0.074 C 
ATOM     33  N   LIG    1       25.120 -19.515   3.420  0.00  0.00    -0.196 NA
ENDBRANCH  18  32
ENDBRANCH   1  18
TORSDOF 14
ENDMDL
MODEL 7
REMARK VINA RESULT:      -7.6      1.562      1.634
REMARK  Name = *****
REMARK                            x       y       z     vdW  Elec       q    Type
REMARK                         _______ _______ _______ _____ _____    ______ ____
ROOT
ATOM      1  C   LIG    1       25.599 -23.416   6.430  0.00  0.00    +0.028 C 
ENDROOT
BRANCH   1   2
ATOM      2  C   LIG    1       25.116 -24.472   5.390  0.00  0.00    +0.017 C 
BRANCH   2   3
ATOM      3  C   LIG    1       24.265 -25.725   5.801  0.00  0.00    +0.084 C 
BRANCH   3   4
ATOM      4  N   LIG    1       25.063 -26.975   6.007  0.00  0.00    -0.305 NA
ATOM      5  C   LIG    1       26.193 -27.107   5.081  0.00  0.00    +0.105 C 
BRANCH   4   6
ATOM      6  C   LIG    1       24.265 -28.259   6.020  0.00  0.00    +0.089 C 
BRANCH   6   7
ATOM      7  C   LIG    1       25.026 -29.404   6.781  0.00  0.00    +0.050 C 
BRANCH   7  11
ATOM      8  C   LIG    1       25.341 -29.242  11.187  0.00  0.00    +0.162 A 
ATOM      9  C   LIG    1       24.317 -29.997  10.560  0.00  0.00    +0.162 A 
ATOM     10  C   LIG    1       24.210 -30.061   9.142  0.00  0.00    +0.053 A 
ATOM     11  C   LIG    1       25.160 -29.495   8.299  0.00  0.00    -0.043 A 
ATOM     12  C   LIG    1       26.237 -28.839   8.923  0.00  0.00    +0.007 A 
ATOM     13  C   LIG    1       26.322 -28.703  10.329  0.00  0.00    +0.050 A 
BRANCH   8  15
ATOM     14  C   LIG    1       25.685 -27.884  13.256  0.00  0.00    +0.277 C 
ATOM     15  O   LIG    1       25.635 -29.133  12.536  0.00  0.00    -0.491 OA
ENDBRANCH   8  15
BRANCH   9  16
ATOM     16  O   LIG    1       23.351 -30.807  11.135  0.00  0.00    -0.491 OA
ATOM     17  C   LIG    1       22.214 -30.892  10.337  0.00  0.00    +0.277 C 
ENDBRANCH   9  16
ENDBRANCH   7  11
ENDBRANCH   6   7
ENDBRANCH   4   6
ENDBRANCH   3   4
ENDBRANCH   2   3
ENDBRANCH   1   2
BRANCH   1  18
ATOM     18  C   LIG    1       25.247 -21.859   6.305  0.00  0.00    +0.085 C 
BRANCH  18  19
ATOM     19  C   LIG    1       26.560 -21.011   6.514  0.00  0.00    -0.024 A 
ATOM     20  C   LIG    1       27.408 -21.138   7.630  0.00  0.00    +0.054 A 
ATOM     21  C   LIG    1       28.680 -20.498   7.706  0.00  0.00    +0.162 A 
ATOM     22  C   LIG    1       29.084 -19.587   6.706  0.00  0.00    +0.162 A 
ATOM     23  C   LIG    1       28.239 -19.411   5.614  0.00  0.00    +0.050 A 
ATOM     24  C   LIG    1       27.017 -20.118   5.517  0.00  0.00    +0.009 A 
BRANCH  21  25
ATOM     25  O   LIG    1       29.587 -20.736   8.719  0.00  0.00    -0.491 OA
ATOM     26  C   LIG    1       30.432 -21.875   8.578  0.00  0.00    +0.277 C 
ENDBRANCH  21  25
BRANCH  22  27
ATOM     27  O   LIG    1       30.302 -18.962   6.837  0.00  0.00    -0.491 OA
ATOM     28  C   LIG    1       30.536 -18.117   7.969  0.00  0.00    +0.277 C 
ENDBRANCH  22  27
ENDBRANCH  18  19
BRANCH  18  29
ATOM     29  C   LIG    1       23.988 -21.510   7.252  0.00  0.00    +0.007 C 
ATOM     30  C   LIG    1       22.917 -22.637   7.301  0.00  0.00    +0.009 C 
ATOM     31  C   LIG    1       23.286 -20.157   6.973  0.00  0.00    +0.009 C 
ENDBRANCH  18  29
BRANCH  18  32
ATOM     32  C   LIG    1       24.750 -21.665   4.919  0.00  0.00    +0.074 C 
ATOM     33  N   LIG    1       24.336 -21.504   3.788  0.00  0.00    -0.196 NA
ENDBRANCH  18  32
ENDBRANCH   1  18
TORSDOF 14
ENDMDL
MODEL 8
REMARK VINA RESULT:      -7.5      4.283      9.840
REMARK  Name = *****
REMARK                            x       y       z     vdW  Elec       q    Type
REMARK                         _______ _______ _______ _____ _____    ______ ____
ROOT
ATOM      1  C   LIG    1       26.388 -28.281  11.186  0.00  0.00    +0.028 C 
ENDROOT
BRANCH   1   2
ATOM      2  C   LIG    1       26.265 -29.051   9.836  0.00  0.00    +0.017 C 
BRANCH   2   3
ATOM      3  C   LIG    1       26.329 -28.323   8.447  0.00  0.00    +0.084 C 
BRANCH   3   4
ATOM      4  N   LIG    1       25.165 -28.598   7.549  0.00  0.00    -0.305 NA
ATOM      5  C   LIG    1       25.163 -29.956   6.992  0.00  0.00    +0.105 C 
BRANCH   4   6
ATOM      6  C   LIG    1       24.951 -27.595   6.438  0.00  0.00    +0.089 C 
BRANCH   6   7
ATOM      7  C   LIG    1       25.773 -26.278   6.684  0.00  0.00    +0.050 C 
BRANCH   7  11
ATOM      8  C   LIG    1       23.884 -22.293   6.972  0.00  0.00    +0.162 A 
ATOM      9  C   LIG    1       25.296 -22.426   6.955  0.00  0.00    +0.162 A 
ATOM     10  C   LIG    1       25.915 -23.704   6.856  0.00  0.00    +0.053 A 
ATOM     11  C   LIG    1       25.184 -24.870   6.652  0.00  0.00    -0.043 A 
ATOM     12  C   LIG    1       23.787 -24.723   6.558  0.00  0.00    +0.007 A 
ATOM     13  C   LIG    1       23.150 -23.471   6.727  0.00  0.00    +0.050 A 
BRANCH   8  15
ATOM     14  C   LIG    1       22.933 -20.276   5.843  0.00  0.00    +0.277 C 
ATOM     15  O   LIG    1       23.125 -21.135   6.987  0.00  0.00    -0.491 OA
ENDBRANCH   8  15
BRANCH   9  16
ATOM     16  O   LIG    1       26.268 -21.440   6.954  0.00  0.00    -0.491 OA
ATOM     17  C   LIG    1       27.272 -21.710   7.880  0.00  0.00    +0.277 C 
ENDBRANCH   9  16
ENDBRANCH   7  11
ENDBRANCH   6   7
ENDBRANCH   4   6
ENDBRANCH   3   4
ENDBRANCH   2   3
ENDBRANCH   1   2
BRANCH   1  18
ATOM     18  C   LIG    1       25.734 -28.817  12.547  0.00  0.00    +0.085 C 
BRANCH  18  19
ATOM     19  C   LIG    1       24.256 -28.278  12.660  0.00  0.00    -0.024 A 
ATOM     20  C   LIG    1       23.118 -29.031  12.317  0.00  0.00    +0.054 A 
ATOM     21  C   LIG    1       21.791 -28.592  12.602  0.00  0.00    +0.162 A 
ATOM     22  C   LIG    1       21.561 -27.301  13.126  0.00  0.00    +0.162 A 
ATOM     23  C   LIG    1       22.673 -26.521  13.431  0.00  0.00    +0.050 A 
ATOM     24  C   LIG    1       23.985 -27.006  13.216  0.00  0.00    +0.009 A 
BRANCH  21  25
ATOM     25  O   LIG    1       20.676 -29.384  12.416  0.00  0.00    -0.491 OA
ATOM     26  C   LIG    1       20.724 -30.331  11.353  0.00  0.00    +0.277 C 
ENDBRANCH  21  25
BRANCH  22  27
ATOM     27  O   LIG    1       20.265 -26.902  13.352  0.00  0.00    -0.491 OA
ATOM     28  C   LIG    1       19.775 -26.849  14.697  0.00  0.00    +0.277 C 
ENDBRANCH  22  27
ENDBRANCH  18  19
BRANCH  18  29
ATOM     29  C   LIG    1       26.726 -28.510  13.781  0.00  0.00    +0.007 C 
ATOM     30  C   LIG    1       28.182 -29.004  13.546  0.00  0.00    +0.009 C 
ATOM     31  C   LIG    1       26.246 -28.997  15.173  0.00  0.00    +0.009 C 
ENDBRANCH  18  29
BRANCH  18  32
ATOM     32  C   LIG    1       25.711 -30.297  12.431  0.00  0.00    +0.074 C 
ATOM     33  N   LIG    1       25.702 -31.509  12.336  0.00  0.00    -0.196 NA
ENDBRANCH  18  32
ENDBRANCH   1  18
TORSDOF 14
ENDMDL
MODEL 9
REMARK VINA RESULT:      -7.4      2.710      9.099
REMARK  Name = *****
REMARK                            x       y       z     vdW  Elec       q    Type
REMARK                         _______ _______ _______ _____ _____    ______ ____
ROOT
ATOM      1  C   LIG    1       25.532 -30.030   7.847  0.00  0.00    +0.028 C 
ENDROOT
BRANCH   1   2
ATOM      2  C   LIG    1       24.428 -29.568   6.846  0.00  0.00    +0.017 C 
BRANCH   2   3
ATOM      3  C   LIG    1       24.769 -29.044   5.407  0.00  0.00    +0.084 C 
BRANCH   3   4
ATOM      4  N   LIG    1       24.905 -27.558   5.305  0.00  0.00    -0.305 NA
ATOM      5  C   LIG    1       26.243 -27.120   4.889  0.00  0.00    +0.105 C 
BRANCH   4   6
ATOM      6  C   LIG    1       24.477 -26.781   6.529  0.00  0.00    +0.089 C 
BRANCH   6   7
ATOM      7  C   LIG    1       23.882 -25.379   6.144  0.00  0.00    +0.050 C 
BRANCH   7  11
ATOM      8  C   LIG    1       25.605 -21.498   7.371  0.00  0.00    +0.162 A 
ATOM      9  C   LIG    1       24.226 -21.612   7.058  0.00  0.00    +0.162 A 
ATOM     10  C   LIG    1       23.659 -22.859   6.669  0.00  0.00    +0.053 A 
ATOM     11  C   LIG    1       24.387 -24.044   6.686  0.00  0.00    -0.043 A 
ATOM     12  C   LIG    1       25.728 -23.948   7.103  0.00  0.00    +0.007 A 
ATOM     13  C   LIG    1       26.327 -22.707   7.425  0.00  0.00    +0.050 A 
BRANCH   8  15
ATOM     14  C   LIG    1       27.716 -20.193   7.663  0.00  0.00    +0.277 C 
ATOM     15  O   LIG    1       26.298 -20.392   7.835  0.00  0.00    -0.491 OA
ENDBRANCH   8  15
BRANCH   9  16
ATOM     16  O   LIG    1       23.229 -20.653   7.133  0.00  0.00    -0.491 OA
ATOM     17  C   LIG    1       22.926 -20.133   5.878  0.00  0.00    +0.277 C 
ENDBRANCH   9  16
ENDBRANCH   7  11
ENDBRANCH   6   7
ENDBRANCH   4   6
ENDBRANCH   3   4
ENDBRANCH   2   3
ENDBRANCH   1   2
BRANCH   1  18
ATOM     18  C   LIG    1       25.188 -30.636   9.289  0.00  0.00    +0.085 C 
BRANCH  18  19
ATOM     19  C   LIG    1       25.473 -29.546  10.392  0.00  0.00    -0.024 A 
ATOM     20  C   LIG    1       24.670 -29.356  11.533  0.00  0.00    +0.054 A 
ATOM     21  C   LIG    1       25.050 -28.494  12.604  0.00  0.00    +0.162 A 
ATOM     22  C   LIG    1       26.198 -27.681  12.496  0.00  0.00    +0.162 A 
ATOM     23  C   LIG    1       26.983 -27.819  11.355  0.00  0.00    +0.050 A 
ATOM     24  C   LIG    1       26.633 -28.740  10.338  0.00  0.00    +0.009 A 
BRANCH  21  25
ATOM     25  O   LIG    1       24.355 -28.416  13.794  0.00  0.00    -0.491 OA
ATOM     26  C   LIG    1       23.710 -29.603  14.247  0.00  0.00    +0.277 C 
ENDBRANCH  21  25
BRANCH  22  27
ATOM     27  O   LIG    1       26.508 -26.836  13.536  0.00  0.00    -0.491 OA
ATOM     28  C   LIG    1       26.976 -25.514  13.246  0.00  0.00    +0.277 C 
ENDBRANCH  22  27
ENDBRANCH  18  19
BRANCH  18  29
ATOM     29  C   LIG    1       25.916 -32.066   9.463  0.00  0.00    +0.007 C 
ATOM     30  C   LIG    1       25.985 -32.892   8.146  0.00  0.00    +0.009 C 
ATOM     31  C   LIG    1       25.371 -32.969  10.598  0.00  0.00    +0.009 C 
ENDBRANCH  18  29
BRANCH  18  32
ATOM     32  C   LIG    1       23.736 -30.945   9.264  0.00  0.00    +0.074 C 
ATOM     33  N   LIG    1       22.549 -31.207   9.243  0.00  0.00    -0.196 NA
ENDBRANCH  18  32
ENDBRANCH   1  18
TORSDOF 14
ENDMDL
