MODEL 1
REMARK VINA RESULT:      -5.0      0.000      0.000
REMARK  Name = *****
REMARK                            x       y       z     vdW  Elec       q    Type
REMARK                         _______ _______ _______ _____ _____    ______ ____
ROOT
ATOM      1  C   LIG    1       25.633 -18.463   3.583  0.00  0.00    +0.131 C 
ENDROOT
BRANCH   1   2
ATOM      2  C   LIG    1       25.496 -16.896   3.278  0.00  0.00    +0.094 C 
ATOM      3  N   LIG    1       26.835 -16.224   3.292  0.00  0.00    -0.310 NA
ATOM      4  H   LIG    1       27.219 -16.312   4.237  0.00  0.00    +0.122 HD
ATOM      5  C   LIG    1       26.730 -14.794   2.982  0.00  0.00    +0.081 C 
ATOM      6  C   LIG    1       25.817 -14.073   3.968  0.00  0.00    +0.015 C 
ATOM      7  C   LIG    1       24.420 -14.671   3.920  0.00  0.00    +0.003 C 
ATOM      8  C   LIG    1       24.485 -16.170   4.195  0.00  0.00    +0.022 C 
ENDBRANCH   1   2
BRANCH   1   9
ATOM      9  C   LIG    1       26.856 -18.756   4.496  0.00  0.00    -0.010 A 
ATOM     10  C   LIG    1       26.874 -19.876   5.358  0.00  0.00    +0.007 A 
ATOM     11  C   LIG    1       27.973 -20.153   6.177  0.00  0.00    +0.000 A 
ATOM     12  C   LIG    1       29.082 -19.315   6.161  0.00  0.00    +0.000 A 
ATOM     13  C   LIG    1       29.098 -18.211   5.310  0.00  0.00    +0.000 A 
ATOM     14  C   LIG    1       28.001 -17.941   4.482  0.00  0.00    +0.007 A 
ENDBRANCH   1   9
BRANCH   1  15
ATOM     15  C   LIG    1       24.334 -19.162   4.033  0.00  0.00    -0.010 A 
ATOM     16  C   LIG    1       24.356 -20.509   4.426  0.00  0.00    +0.007 A 
ATOM     17  C   LIG    1       23.193 -21.182   4.812  0.00  0.00    +0.000 A 
ATOM     18  C   LIG    1       21.965 -20.515   4.813  0.00  0.00    +0.000 A 
ATOM     19  C   LIG    1       21.907 -19.193   4.416  0.00  0.00    +0.000 A 
ATOM     20  C   LIG    1       23.070 -18.527   4.014  0.00  0.00    +0.007 A 
ENDBRANCH   1  15
BRANCH   1  21
ATOM     21  O   LIG    1       25.916 -19.086   2.303  0.00  0.00    -0.378 OA
ATOM     22  H   LIG    1       25.615 -18.430   1.643  0.00  0.00    +0.211 HD
ENDBRANCH   1  21
TORSDOF 4
ENDMDL
MODEL 2
REMARK VINA RESULT:      -5.0      0.147      1.525
REMARK  Name = *****
REMARK                            x       y       z     vdW  Elec       q    Type
REMARK                         _______ _______ _______ _____ _____    ______ ____
ROOT
ATOM      1  C   LIG    1       25.671 -18.414   3.550  0.00  0.00    +0.131 C 
ENDROOT
BRANCH   1   2
ATOM      2  C   LIG    1       25.586 -16.839   3.270  0.00  0.00    +0.094 C 
ATOM      3  N   LIG    1       26.939 -16.201   3.358  0.00  0.00    -0.310 NA
ATOM      4  H   LIG    1       27.276 -16.316   4.317  0.00  0.00    +0.122 HD
ATOM      5  C   LIG    1       26.882 -14.763   3.070  0.00  0.00    +0.081 C 
ATOM      6  C   LIG    1       25.942 -14.038   4.027  0.00  0.00    +0.015 C 
ATOM      7  C   LIG    1       24.535 -14.601   3.904  0.00  0.00    +0.003 C 
ATOM      8  C   LIG    1       24.551 -16.105   4.153  0.00  0.00    +0.022 C 
ENDBRANCH   1   2
BRANCH   1   9
ATOM      9  C   LIG    1       26.866 -18.758   4.482  0.00  0.00    -0.010 A 
ATOM     10  C   LIG    1       28.024 -17.948   4.518  0.00  0.00    +0.007 A 
ATOM     11  C   LIG    1       29.100 -18.244   5.360  0.00  0.00    +0.000 A 
ATOM     12  C   LIG    1       29.052 -19.361   6.184  0.00  0.00    +0.000 A 
ATOM     13  C   LIG    1       27.917 -20.171   6.180  0.00  0.00    +0.000 A 
ATOM     14  C   LIG    1       26.835 -19.867   5.345  0.00  0.00    +0.007 A 
ENDBRANCH   1   9
BRANCH   1  15
ATOM     15  C   LIG    1       24.343 -19.082   3.963  0.00  0.00    -0.010 A 
ATOM     16  C   LIG    1       23.151 -18.341   3.968  0.00  0.00    +0.007 A 
ATOM     17  C   LIG    1       21.936 -18.907   4.364  0.00  0.00    +0.000 A 
ATOM     18  C   LIG    1       21.882 -20.243   4.769  0.00  0.00    +0.000 A 
ATOM     19  C   LIG    1       23.042 -20.995   4.790  0.00  0.00    +0.000 A 
ATOM     20  C   LIG    1       24.260 -20.422   4.410  0.00  0.00    +0.007 A 
ENDBRANCH   1  15
BRANCH   1  21
ATOM     21  O   LIG    1       25.961 -19.025   2.265  0.00  0.00    -0.378 OA
ATOM     22  H   LIG    1       26.729 -18.521   1.927  0.00  0.00    +0.211 HD
ENDBRANCH   1  21
TORSDOF 4
ENDMDL
MODEL 3
REMARK VINA RESULT:      -4.9      1.075      5.126
REMARK  Name = *****
REMARK                            x       y       z     vdW  Elec       q    Type
REMARK                         _______ _______ _______ _____ _____    ______ ____
ROOT
ATOM      1  C   LIG    1       25.756 -18.537   3.635  0.00  0.00    +0.131 C 
ENDROOT
BRANCH   1   2
ATOM      2  C   LIG    1       27.045 -19.120   4.388  0.00  0.00    +0.094 C 
ATOM      3  N   LIG    1       26.650 -19.941   5.577  0.00  0.00    -0.310 NA
ATOM      4  H   LIG    1       26.172 -19.323   6.238  0.00  0.00    +0.122 HD
ATOM      5  C   LIG    1       27.819 -20.509   6.258  0.00  0.00    +0.081 C 
ATOM      6  C   LIG    1       28.782 -19.420   6.720  0.00  0.00    +0.015 C 
ATOM      7  C   LIG    1       29.274 -18.618   5.526  0.00  0.00    +0.003 C 
ATOM      8  C   LIG    1       28.087 -18.041   4.760  0.00  0.00    +0.022 C 
ENDBRANCH   1   2
BRANCH   1   9
ATOM      9  C   LIG    1       24.458 -19.255   4.100  0.00  0.00    -0.010 A 
ATOM     10  C   LIG    1       23.233 -18.558   4.202  0.00  0.00    +0.007 A 
ATOM     11  C   LIG    1       22.058 -19.196   4.611  0.00  0.00    +0.000 A 
ATOM     12  C   LIG    1       22.077 -20.548   4.934  0.00  0.00    +0.000 A 
ATOM     13  C   LIG    1       23.268 -21.264   4.829  0.00  0.00    +0.000 A 
ATOM     14  C   LIG    1       24.442 -20.626   4.409  0.00  0.00    +0.007 A 
ENDBRANCH   1   9
BRANCH   1  15
ATOM     15  C   LIG    1       25.647 -16.999   3.611  0.00  0.00    -0.010 A 
ATOM     16  C   LIG    1       26.768 -16.216   3.297  0.00  0.00    +0.007 A 
ATOM     17  C   LIG    1       26.712 -14.819   3.294  0.00  0.00    +0.000 A 
ATOM     18  C   LIG    1       25.518 -14.164   3.610  0.00  0.00    +0.000 A 
ATOM     19  C   LIG    1       24.400 -14.906   3.939  0.00  0.00    +0.000 A 
ATOM     20  C   LIG    1       24.464 -16.305   3.957  0.00  0.00    +0.007 A 
ENDBRANCH   1  15
BRANCH   1  21
ATOM     21  O   LIG    1       25.935 -18.876   2.235  0.00  0.00    -0.378 OA
ATOM     22  H   LIG    1       26.783 -19.364   2.210  0.00  0.00    +0.211 HD
ENDBRANCH   1  21
TORSDOF 4
ENDMDL
MODEL 4
REMARK VINA RESULT:      -4.9      1.099      5.083
REMARK  Name = *****
REMARK                            x       y       z     vdW  Elec       q    Type
REMARK                         _______ _______ _______ _____ _____    ______ ____
ROOT
ATOM      1  C   LIG    1       25.758 -18.602   3.653  0.00  0.00    +0.131 C 
ENDROOT
BRANCH   1   2
ATOM      2  C   LIG    1       27.028 -19.198   4.427  0.00  0.00    +0.094 C 
ATOM      3  N   LIG    1       26.608 -19.971   5.640  0.00  0.00    -0.310 NA
ATOM      4  H   LIG    1       26.146 -19.320   6.281  0.00  0.00    +0.122 HD
ATOM      5  C   LIG    1       27.759 -20.550   6.341  0.00  0.00    +0.081 C 
ATOM      6  C   LIG    1       28.751 -19.476   6.773  0.00  0.00    +0.015 C 
ATOM      7  C   LIG    1       29.268 -18.724   5.556  0.00  0.00    +0.003 C 
ATOM      8  C   LIG    1       28.100 -18.138   4.770  0.00  0.00    +0.022 C 
ENDBRANCH   1   2
BRANCH   1   9
ATOM      9  C   LIG    1       24.444 -19.303   4.100  0.00  0.00    -0.010 A 
ATOM     10  C   LIG    1       24.424 -20.677   4.434  0.00  0.00    +0.007 A 
ATOM     11  C   LIG    1       23.250 -21.313   4.846  0.00  0.00    +0.000 A 
ATOM     12  C   LIG    1       22.062 -20.597   4.931  0.00  0.00    +0.000 A 
ATOM     13  C   LIG    1       22.055 -19.237   4.622  0.00  0.00    +0.000 A 
ATOM     14  C   LIG    1       23.234 -18.598   4.220  0.00  0.00    +0.007 A 
ENDBRANCH   1   9
BRANCH   1  15
ATOM     15  C   LIG    1       25.667 -17.063   3.623  0.00  0.00    -0.010 A 
ATOM     16  C   LIG    1       26.802 -16.294   3.324  0.00  0.00    +0.007 A 
ATOM     17  C   LIG    1       26.762 -14.896   3.317  0.00  0.00    +0.000 A 
ATOM     18  C   LIG    1       25.572 -14.227   3.613  0.00  0.00    +0.000 A 
ATOM     19  C   LIG    1       24.440 -14.955   3.927  0.00  0.00    +0.000 A 
ATOM     20  C   LIG    1       24.487 -16.354   3.950  0.00  0.00    +0.007 A 
ENDBRANCH   1  15
BRANCH   1  21
ATOM     21  O   LIG    1       25.954 -18.948   2.257  0.00  0.00    -0.378 OA
ATOM     22  H   LIG    1       26.918 -19.088   2.176  0.00  0.00    +0.211 HD
ENDBRANCH   1  21
TORSDOF 4
ENDMDL
MODEL 5
REMARK VINA RESULT:      -4.8      0.791      5.096
REMARK  Name = *****
REMARK                            x       y       z     vdW  Elec       q    Type
REMARK                         _______ _______ _______ _____ _____    ______ ____
ROOT
ATOM      1  C   LIG    1       25.671 -18.046   3.819  0.00  0.00    +0.131 C 
ENDROOT
BRANCH   1   2
ATOM      2  C   LIG    1       26.796 -18.447   4.887  0.00  0.00    +0.094 C 
ATOM      3  N   LIG    1       28.154 -18.004   4.432  0.00  0.00    -0.310 NA
ATOM      4  H   LIG    1       28.372 -18.504   3.567  0.00  0.00    +0.122 HD
ATOM      5  C   LIG    1       29.191 -18.334   5.416  0.00  0.00    +0.081 C 
ATOM      6  C   LIG    1       29.240 -19.832   5.696  0.00  0.00    +0.015 C 
ATOM      7  C   LIG    1       27.902 -20.305   6.243  0.00  0.00    +0.003 C 
ATOM      8  C   LIG    1       26.784 -19.944   5.270  0.00  0.00    +0.022 C 
ENDBRANCH   1   2
BRANCH   1   9
ATOM      9  C   LIG    1       24.360 -18.847   4.053  0.00  0.00    -0.010 A 
ATOM     10  C   LIG    1       24.365 -20.260   4.112  0.00  0.00    +0.007 A 
ATOM     11  C   LIG    1       23.193 -20.989   4.331  0.00  0.00    +0.000 A 
ATOM     12  C   LIG    1       21.981 -20.327   4.491  0.00  0.00    +0.000 A 
ATOM     13  C   LIG    1       21.948 -18.934   4.452  0.00  0.00    +0.000 A 
ATOM     14  C   LIG    1       23.124 -18.204   4.244  0.00  0.00    +0.007 A 
ENDBRANCH   1   9
BRANCH   1  15
ATOM     15  C   LIG    1       25.452 -16.531   3.629  0.00  0.00    -0.010 A 
ATOM     16  C   LIG    1       26.469 -15.734   3.080  0.00  0.00    +0.007 A 
ATOM     17  C   LIG    1       26.316 -14.354   2.920  0.00  0.00    +0.000 A 
ATOM     18  C   LIG    1       25.128 -13.729   3.312  0.00  0.00    +0.000 A 
ATOM     19  C   LIG    1       24.115 -14.484   3.872  0.00  0.00    +0.000 A 
ATOM     20  C   LIG    1       24.277 -15.863   4.046  0.00  0.00    +0.007 A 
ENDBRANCH   1  15
BRANCH   1  21
ATOM     21  O   LIG    1       26.187 -18.468   2.530  0.00  0.00    -0.378 OA
ATOM     22  H   LIG    1       26.491 -17.639   2.108  0.00  0.00    +0.211 HD
ENDBRANCH   1  21
TORSDOF 4
ENDMDL
MODEL 6
REMARK VINA RESULT:      -4.4      1.673      5.079
REMARK  Name = *****
REMARK                            x       y       z     vdW  Elec       q    Type
REMARK                         _______ _______ _______ _____ _____    ______ ____
ROOT
ATOM      1  C   LIG    1       25.584 -19.299   4.336  0.00  0.00    +0.131 C 
ENDROOT
BRANCH   1   2
ATOM      2  C   LIG    1       24.112 -19.685   4.838  0.00  0.00    +0.094 C 
ATOM      3  N   LIG    1       24.035 -21.129   5.227  0.00  0.00    -0.310 NA
ATOM      4  H   LIG    1       24.222 -21.689   4.391  0.00  0.00    +0.122 HD
ATOM      5  C   LIG    1       22.702 -21.489   5.720  0.00  0.00    +0.081 C 
ATOM      6  C   LIG    1       21.625 -21.212   4.676  0.00  0.00    +0.015 C 
ATOM      7  C   LIG    1       21.614 -19.735   4.318  0.00  0.00    +0.003 C 
ATOM      8  C   LIG    1       22.996 -19.303   3.839  0.00  0.00    +0.022 C 
ENDBRANCH   1   2
BRANCH   1   9
ATOM      9  C   LIG    1       25.678 -17.793   3.963  0.00  0.00    -0.010 A 
ATOM     10  C   LIG    1       24.532 -16.966   3.967  0.00  0.00    +0.007 A 
ATOM     11  C   LIG    1       24.607 -15.608   3.642  0.00  0.00    +0.000 A 
ATOM     12  C   LIG    1       25.829 -15.041   3.298  0.00  0.00    +0.000 A 
ATOM     13  C   LIG    1       26.978 -15.830   3.300  0.00  0.00    +0.000 A 
ATOM     14  C   LIG    1       26.904 -17.187   3.637  0.00  0.00    +0.007 A 
ENDBRANCH   1   9
BRANCH   1  15
ATOM     15  C   LIG    1       26.737 -19.794   5.235  0.00  0.00    -0.010 A 
ATOM     16  C   LIG    1       26.500 -20.774   6.211  0.00  0.00    +0.007 A 
ATOM     17  C   LIG    1       27.515 -21.224   7.061  0.00  0.00    +0.000 A 
ATOM     18  C   LIG    1       28.805 -20.698   6.955  0.00  0.00    +0.000 A 
ATOM     19  C   LIG    1       29.066 -19.719   6.015  0.00  0.00    +0.000 A 
ATOM     20  C   LIG    1       28.045 -19.258   5.176  0.00  0.00    +0.007 A 
ENDBRANCH   1  15
BRANCH   1  21
ATOM     21  O   LIG    1       25.785 -20.042   3.106  0.00  0.00    -0.378 OA
ATOM     22  H   LIG    1       25.602 -20.971   3.351  0.00  0.00    +0.211 HD
ENDBRANCH   1  21
TORSDOF 4
ENDMDL
MODEL 7
REMARK VINA RESULT:      -4.3      1.181      5.217
REMARK  Name = *****
REMARK                            x       y       z     vdW  Elec       q    Type
REMARK                         _______ _______ _______ _____ _____    ______ ____
ROOT
ATOM      1  C   LIG    1       25.602 -18.261   3.563  0.00  0.00    +0.131 C 
ENDROOT
BRANCH   1   2
ATOM      2  C   LIG    1       24.235 -19.088   3.686  0.00  0.00    +0.094 C 
ATOM      3  N   LIG    1       23.510 -18.748   4.952  0.00  0.00    -0.310 NA
ATOM      4  H   LIG    1       24.102 -19.031   5.737  0.00  0.00    +0.122 HD
ATOM      5  C   LIG    1       22.239 -19.473   5.062  0.00  0.00    +0.081 C 
ATOM      6  C   LIG    1       22.451 -20.983   5.017  0.00  0.00    +0.015 C 
ATOM      7  C   LIG    1       23.108 -21.379   3.705  0.00  0.00    +0.003 C 
ATOM      8  C   LIG    1       24.416 -20.615   3.525  0.00  0.00    +0.022 C 
ENDBRANCH   1   2
BRANCH   1   9
ATOM      9  C   LIG    1       25.344 -16.730   3.636  0.00  0.00    -0.010 A 
ATOM     10  C   LIG    1       26.349 -15.800   3.286  0.00  0.00    +0.007 A 
ATOM     11  C   LIG    1       26.123 -14.422   3.339  0.00  0.00    +0.000 A 
ATOM     12  C   LIG    1       24.889 -13.934   3.750  0.00  0.00    +0.000 A 
ATOM     13  C   LIG    1       23.873 -14.828   4.087  0.00  0.00    +0.000 A 
ATOM     14  C   LIG    1       24.097 -16.208   4.023  0.00  0.00    +0.007 A 
ENDBRANCH   1   9
BRANCH   1  15
ATOM     15  C   LIG    1       26.749 -18.746   4.473  0.00  0.00    -0.010 A 
ATOM     16  C   LIG    1       26.577 -19.878   5.284  0.00  0.00    +0.007 A 
ATOM     17  C   LIG    1       27.585 -20.328   6.141  0.00  0.00    +0.000 A 
ATOM     18  C   LIG    1       28.804 -19.649   6.209  0.00  0.00    +0.000 A 
ATOM     19  C   LIG    1       29.000 -18.521   5.434  0.00  0.00    +0.000 A 
ATOM     20  C   LIG    1       27.982 -18.063   4.589  0.00  0.00    +0.007 A 
ENDBRANCH   1  15
BRANCH   1  21
ATOM     21  O   LIG    1       26.104 -18.531   2.228  0.00  0.00    -0.378 OA
ATOM     22  H   LIG    1       26.086 -19.506   2.155  0.00  0.00    +0.211 HD
ENDBRANCH   1  21
TORSDOF 4
ENDMDL
MODEL 8
REMARK VINA RESULT:      -4.2      1.672      5.185
REMARK  Name = *****
REMARK                            x       y       z     vdW  Elec       q    Type
REMARK                         _______ _______ _______ _____ _____    ______ ____
ROOT
ATOM      1  C   LIG    1       25.632 -19.262   4.417  0.00  0.00    +0.131 C 
ENDROOT
BRANCH   1   2
ATOM      2  C   LIG    1       24.167 -19.650   4.939  0.00  0.00    +0.094 C 
ATOM      3  N   LIG    1       24.094 -21.098   5.316  0.00  0.00    -0.310 NA
ATOM      4  H   LIG    1       24.265 -21.650   4.471  0.00  0.00    +0.122 HD
ATOM      5  C   LIG    1       22.767 -21.460   5.827  0.00  0.00    +0.081 C 
ATOM      6  C   LIG    1       21.674 -21.171   4.804  0.00  0.00    +0.015 C 
ATOM      7  C   LIG    1       21.660 -19.690   4.461  0.00  0.00    +0.003 C 
ATOM      8  C   LIG    1       23.035 -19.256   3.963  0.00  0.00    +0.022 C 
ENDBRANCH   1   2
BRANCH   1   9
ATOM      9  C   LIG    1       25.709 -17.763   4.015  0.00  0.00    -0.010 A 
ATOM     10  C   LIG    1       26.933 -17.171   3.629  0.00  0.00    +0.007 A 
ATOM     11  C   LIG    1       27.011 -15.826   3.257  0.00  0.00    +0.000 A 
ATOM     12  C   LIG    1       25.870 -15.034   3.265  0.00  0.00    +0.000 A 
ATOM     13  C   LIG    1       24.646 -15.595   3.626  0.00  0.00    +0.000 A 
ATOM     14  C   LIG    1       24.566 -16.945   3.989  0.00  0.00    +0.007 A 
ENDBRANCH   1   9
BRANCH   1  15
ATOM     15  C   LIG    1       26.796 -19.730   5.315  0.00  0.00    -0.010 A 
ATOM     16  C   LIG    1       28.074 -19.172   5.162  0.00  0.00    +0.007 A 
ATOM     17  C   LIG    1       29.158 -19.593   5.938  0.00  0.00    +0.000 A 
ATOM     18  C   LIG    1       28.987 -20.595   6.897  0.00  0.00    +0.000 A 
ATOM     19  C   LIG    1       27.744 -21.176   7.061  0.00  0.00    +0.000 A 
ATOM     20  C   LIG    1       26.664 -20.765   6.271  0.00  0.00    +0.007 A 
ENDBRANCH   1  15
BRANCH   1  21
ATOM     21  O   LIG    1       25.827 -20.027   3.199  0.00  0.00    -0.378 OA
ATOM     22  H   LIG    1       25.718 -19.370   2.482  0.00  0.00    +0.211 HD
ENDBRANCH   1  21
TORSDOF 4
ENDMDL
MODEL 9
REMARK VINA RESULT:      -2.2      1.183      1.630
REMARK  Name = *****
REMARK                            x       y       z     vdW  Elec       q    Type
REMARK                         _______ _______ _______ _____ _____    ______ ____
ROOT
ATOM      1  C   LIG    1       26.196 -17.353   3.614  0.00  0.00    +0.131 C 
ENDROOT
BRANCH   1   2
ATOM      2  C   LIG    1       26.499 -15.780   3.595  0.00  0.00    +0.094 C 
ATOM      3  N   LIG    1       25.916 -15.103   4.798  0.00  0.00    -0.310 NA
ATOM      4  H   LIG    1       24.899 -15.212   4.756  0.00  0.00    +0.122 HD
ATOM      5  C   LIG    1       26.214 -13.667   4.812  0.00  0.00    +0.081 C 
ATOM      6  C   LIG    1       25.683 -12.973   3.562  0.00  0.00    +0.015 C 
ATOM      7  C   LIG    1       26.319 -13.576   2.320  0.00  0.00    +0.003 C 
ATOM      8  C   LIG    1       26.071 -15.080   2.285  0.00  0.00    +0.022 C 
ENDBRANCH   1   2
BRANCH   1   9
ATOM      9  C   LIG    1       27.234 -18.117   4.482  0.00  0.00    -0.010 A 
ATOM     10  C   LIG    1       26.947 -19.397   5.010  0.00  0.00    +0.007 A 
ATOM     11  C   LIG    1       27.877 -20.096   5.784  0.00  0.00    +0.000 A 
ATOM     12  C   LIG    1       29.118 -19.533   6.058  0.00  0.00    +0.000 A 
ATOM     13  C   LIG    1       29.435 -18.279   5.539  0.00  0.00    +0.000 A 
ATOM     14  C   LIG    1       28.506 -17.584   4.754  0.00  0.00    +0.007 A 
ENDBRANCH   1   9
BRANCH   1  15
ATOM     15  C   LIG    1       24.731 -17.738   3.906  0.00  0.00    -0.010 A 
ATOM     16  C   LIG    1       24.326 -19.080   3.835  0.00  0.00    +0.007 A 
ATOM     17  C   LIG    1       23.001 -19.461   4.066  0.00  0.00    +0.000 A 
ATOM     18  C   LIG    1       22.037 -18.497   4.375  0.00  0.00    +0.000 A 
ATOM     19  C   LIG    1       22.401 -17.165   4.436  0.00  0.00    +0.000 A 
ATOM     20  C   LIG    1       23.725 -16.785   4.189  0.00  0.00    +0.007 A 
ENDBRANCH   1  15
BRANCH   1  21
ATOM     21  O   LIG    1       26.389 -17.805   2.248  0.00  0.00    -0.378 OA
ATOM     22  H   LIG    1       26.901 -17.086   1.826  0.00  0.00    +0.211 HD
ENDBRANCH   1  21
TORSDOF 4
ENDMDL
