MODEL 1
REMARK VINA RESULT:      10.3      0.000      0.000
REMARK  Name = *****
REMARK                            x       y       z     vdW  Elec       q    Type
REMARK                         _______ _______ _______ _____ _____    ______ ____
ROOT
ATOM      1  C   LIG    1       24.704 -18.325   5.759  0.00  0.00    +0.014 C 
ATOM      2  C   LIG    1       24.018 -18.222   4.362  0.00  0.00    -0.003 C 
ATOM      3  C   LIG    1       23.077 -19.437   4.123  0.00  0.00    +0.121 C 
ATOM      4  C   LIG    1       23.955 -20.517   3.458  0.00  0.00    +0.032 C 
ATOM      5  C   LIG    1       25.360 -19.889   3.330  0.00  0.00    +0.007 C 
ATOM      6  C   LIG    1       25.007 -18.394   3.190  0.00  0.00    +0.001 C 
ATOM      7  C   LIG    1       26.026 -17.242   2.978  0.00  0.00    -0.003 C 
ATOM      8  C   LIG    1       27.389 -17.416   3.655  0.00  0.00    +0.007 C 
ATOM      9  C   LIG    1       27.961 -16.266   4.467  0.00  0.00    +0.039 C 
ATOM     10  C   LIG    1       27.341 -14.914   4.300  0.00  0.00    +0.110 C 
ATOM     11  C   LIG    1       26.377 -14.623   3.155  0.00  0.00    +0.008 C 
ATOM     12  C   LIG    1       27.138 -14.511   1.812  0.00  0.00    +0.015 C 
ATOM     13  C   LIG    1       25.691 -13.191   3.365  0.00  0.00    +0.059 C 
ATOM     14  C   LIG    1       25.269 -12.866   4.785  0.00  0.00    +0.070 C 
ATOM     15  C   LIG    1       25.955 -13.424   5.802  0.00  0.00    +0.139 C 
ATOM     16  C   LIG    1       27.224 -14.127   5.596  0.00  0.00    +0.217 C 
ATOM     17  O   LIG    1       28.202 -13.803   4.596  0.00  0.00    -0.356 OA
ATOM     18  C   LIG    1       25.347 -15.820   3.084  0.00  0.00    +0.002 C 
ATOM     19  C   LIG    1       24.297 -15.732   4.205  0.00  0.00    +0.005 C 
ATOM     20  C   LIG    1       23.306 -16.879   4.247  0.00  0.00    +0.010 C 
ENDROOT
BRANCH   3  21
ATOM     21  O   LIG    1       22.006 -19.119   3.229  0.00  0.00    -0.391 OA
ATOM     22  H   LIG    1       22.285 -18.386   2.652  0.00  0.00    +0.210 HD
ENDBRANCH   3  21
BRANCH  14  23
ATOM     23  C   LIG    1       24.105 -12.092   5.029  0.00  0.00    +0.098 C 
ATOM     24  N   LIG    1       23.146 -11.447   5.229  0.00  0.00    -0.191 NA
ENDBRANCH  14  23
BRANCH  15  25
ATOM     25  O   LIG    1       25.386 -13.493   7.062  0.00  0.00    -0.507 OA
ATOM     26  H   LIG    1       25.963 -14.087   7.584  0.00  0.00    +0.292 HD
ENDBRANCH  15  25
TORSDOF 3
ENDMDL
MODEL 2
REMARK VINA RESULT:      12.0      2.234      3.683
REMARK  Name = *****
REMARK                            x       y       z     vdW  Elec       q    Type
REMARK                         _______ _______ _______ _____ _____    ______ ____
ROOT
ATOM      1  C   LIG    1       25.196 -18.137   2.179  0.00  0.00    +0.014 C 
ATOM      2  C   LIG    1       25.205 -18.407   3.715  0.00  0.00    -0.003 C 
ATOM      3  C   LIG    1       25.344 -19.930   4.003  0.00  0.00    +0.121 C 
ATOM      4  C   LIG    1       23.902 -20.475   4.055  0.00  0.00    +0.032 C 
ATOM      5  C   LIG    1       22.987 -19.256   3.805  0.00  0.00    +0.007 C 
ATOM      6  C   LIG    1       23.847 -18.114   4.386  0.00  0.00    +0.001 C 
ATOM      7  C   LIG    1       23.429 -16.621   4.466  0.00  0.00    -0.003 C 
ATOM      8  C   LIG    1       22.546 -16.107   3.326  0.00  0.00    +0.007 C 
ATOM      9  C   LIG    1       22.915 -14.804   2.636  0.00  0.00    +0.039 C 
ATOM     10  C   LIG    1       23.916 -13.917   3.306  0.00  0.00    +0.110 C 
ATOM     11  C   LIG    1       24.334 -14.149   4.754  0.00  0.00    +0.008 C 
ATOM     12  C   LIG    1       23.207 -13.720   5.725  0.00  0.00    +0.015 C 
ATOM     13  C   LIG    1       25.580 -13.213   5.124  0.00  0.00    +0.059 C 
ATOM     14  C   LIG    1       26.652 -13.095   4.057  0.00  0.00    +0.070 C 
ATOM     15  C   LIG    1       26.291 -13.234   2.767  0.00  0.00    +0.139 C 
ATOM     16  C   LIG    1       24.888 -13.251   2.345  0.00  0.00    +0.217 C 
ATOM     17  O   LIG    1       23.822 -12.523   2.973  0.00  0.00    -0.356 OA
ATOM     18  C   LIG    1       24.622 -15.693   4.925  0.00  0.00    +0.002 C 
ATOM     19  C   LIG    1       25.973 -16.091   4.303  0.00  0.00    +0.005 C 
ATOM     20  C   LIG    1       26.298 -17.570   4.369  0.00  0.00    +0.010 C 
ENDROOT
BRANCH   3  21
ATOM     21  O   LIG    1       25.963 -20.183   5.268  0.00  0.00    -0.391 OA
ATOM     22  H   LIG    1       26.834 -19.749   5.284  0.00  0.00    +0.210 HD
ENDBRANCH   3  21
BRANCH  14  23
ATOM     23  C   LIG    1       28.017 -12.965   4.423  0.00  0.00    +0.098 C 
ATOM     24  N   LIG    1       29.146 -12.852   4.723  0.00  0.00    -0.191 NA
ENDBRANCH  14  23
BRANCH  15  25
ATOM     25  O   LIG    1       27.247 -13.536   1.812  0.00  0.00    -0.507 OA
ATOM     26  H   LIG    1       27.980 -12.903   1.957  0.00  0.00    +0.292 HD
ENDBRANCH  15  25
TORSDOF 3
ENDMDL
MODEL 3
REMARK VINA RESULT:      12.7      2.881      6.347
REMARK  Name = *****
REMARK                            x       y       z     vdW  Elec       q    Type
REMARK                         _______ _______ _______ _____ _____    ______ ____
ROOT
ATOM      1  C   LIG    1       25.697 -14.783   5.505  0.00  0.00    +0.014 C 
ATOM      2  C   LIG    1       25.203 -14.414   4.072  0.00  0.00    -0.003 C 
ATOM      3  C   LIG    1       25.773 -13.035   3.634  0.00  0.00    +0.121 C 
ATOM      4  C   LIG    1       24.742 -11.991   4.108  0.00  0.00    +0.032 C 
ATOM      5  C   LIG    1       23.616 -12.798   4.791  0.00  0.00    +0.007 C 
ATOM      6  C   LIG    1       23.688 -14.128   4.012  0.00  0.00    +0.001 C 
ATOM      7  C   LIG    1       22.750 -15.347   4.220  0.00  0.00    -0.003 C 
ATOM      8  C   LIG    1       22.262 -15.584   5.651  0.00  0.00    +0.007 C 
ATOM      9  C   LIG    1       22.359 -16.981   6.242  0.00  0.00    +0.039 C 
ATOM     10  C   LIG    1       22.609 -18.121   5.306  0.00  0.00    +0.110 C 
ATOM     11  C   LIG    1       22.480 -17.947   3.796  0.00  0.00    +0.008 C 
ATOM     12  C   LIG    1       20.992 -17.849   3.382  0.00  0.00    +0.015 C 
ATOM     13  C   LIG    1       23.036 -19.247   3.044  0.00  0.00    +0.059 C 
ATOM     14  C   LIG    1       24.312 -19.839   3.611  0.00  0.00    +0.070 C 
ATOM     15  C   LIG    1       24.565 -19.678   4.924  0.00  0.00    +0.139 C 
ATOM     16  C   LIG    1       23.556 -19.175   5.859  0.00  0.00    +0.217 C 
ATOM     17  O   LIG    1       22.142 -19.402   5.759  0.00  0.00    -0.356 OA
ATOM     18  C   LIG    1       23.229 -16.612   3.405  0.00  0.00    +0.002 C 
ATOM     19  C   LIG    1       24.758 -16.796   3.415  0.00  0.00    +0.005 C 
ATOM     20  C   LIG    1       25.556 -15.544   3.110  0.00  0.00    +0.010 C 
ENDROOT
BRANCH   3  21
ATOM     21  O   LIG    1       25.893 -12.931   2.212  0.00  0.00    -0.391 OA
ATOM     22  H   LIG    1       25.622 -13.776   1.810  0.00  0.00    +0.210 HD
ENDBRANCH   3  21
BRANCH  14  23
ATOM     23  C   LIG    1       25.269 -20.438   2.751  0.00  0.00    +0.098 C 
ATOM     24  N   LIG    1       26.059 -20.929   2.037  0.00  0.00    -0.191 NA
ENDBRANCH  14  23
BRANCH  15  25
ATOM     25  O   LIG    1       25.856 -19.830   5.401  0.00  0.00    -0.507 OA
ATOM     26  H   LIG    1       25.962 -19.160   6.107  0.00  0.00    +0.292 HD
ENDBRANCH  15  25
TORSDOF 3
ENDMDL
