MODEL 1
REMARK VINA RESULT:      -7.7      0.000      0.000
REMARK  Name = *****
REMARK                            x       y       z     vdW  Elec       q    Type
REMARK                         _______ _______ _______ _____ _____    ______ ____
ROOT
ATOM      1  C   LIG    1       25.523 -21.601   6.809  0.00  0.00    +0.076 C 
ATOM      2  C   LIG    1       25.800 -23.088   6.477  0.00  0.00    +0.023 C 
ATOM      3  C   LIG    1       25.397 -22.728   7.865  0.00  0.00    +0.027 C 
ENDROOT
BRANCH   1   4
ATOM      4  C   LIG    1       26.793 -20.728   6.842  0.00  0.00    -0.032 A 
ATOM      5  C   LIG    1       27.372 -20.241   5.653  0.00  0.00    +0.005 A 
ATOM      6  C   LIG    1       28.560 -19.506   5.653  0.00  0.00    +0.000 A 
ATOM      7  C   LIG    1       29.199 -19.232   6.855  0.00  0.00    +0.000 A 
ATOM      8  C   LIG    1       28.647 -19.686   8.051  0.00  0.00    +0.000 A 
ATOM      9  C   LIG    1       27.457 -20.424   8.043  0.00  0.00    +0.005 A 
ENDBRANCH   1   4
BRANCH   1  11
ATOM     10  N   LIG    1       23.642 -20.639   5.381  0.00  0.00    -0.301 N 
ATOM     11  C   LIG    1       24.199 -20.862   6.642  0.00  0.00    +0.226 C 
ATOM     12  O   LIG    1       23.638 -20.464   7.676  0.00  0.00    -0.275 OA
BRANCH  10  14
ATOM     13  C   LIG    1       24.972 -19.830   3.433  0.00  0.00    +0.024 C 
ATOM     14  C   LIG    1       24.284 -21.005   4.120  0.00  0.00    +0.104 C 
ENDBRANCH  10  14
BRANCH  10  15
ATOM     15  C   LIG    1       22.347 -19.948   5.307  0.00  0.00    +0.104 C 
ATOM     16  C   LIG    1       22.389 -18.576   4.646  0.00  0.00    +0.024 C 
ENDBRANCH  10  15
ENDBRANCH   1  11
BRANCH   2  17
ATOM     17  C   LIG    1       24.941 -23.935   5.616  0.00  0.00    +0.082 C 
BRANCH  17  18
ATOM     18  N   LIG    1       23.719 -24.283   6.321  0.00  0.00    -0.330 NA
ATOM     19  H   LIG    1       23.774 -25.242   6.658  0.00  0.00    +0.118 HD
ATOM     20  H   LIG    1       23.648 -23.697   7.151  0.00  0.00    +0.118 HD
ENDBRANCH  17  18
ENDBRANCH   2  17
TORSDOF 6
ENDMDL
MODEL 2
REMARK VINA RESULT:      -7.5      1.585      3.981
REMARK  Name = *****
REMARK                            x       y       z     vdW  Elec       q    Type
REMARK                         _______ _______ _______ _____ _____    ______ ____
ROOT
ATOM      1  C   LIG    1       25.436 -21.705   6.569  0.00  0.00    +0.076 C 
ATOM      2  C   LIG    1       26.710 -21.290   7.346  0.00  0.00    +0.023 C 
ATOM      3  C   LIG    1       26.578 -20.882   5.920  0.00  0.00    +0.027 C 
ENDROOT
BRANCH   1   4
ATOM      4  C   LIG    1       25.369 -23.212   6.251  0.00  0.00    -0.032 A 
ATOM      5  C   LIG    1       25.868 -24.169   7.157  0.00  0.00    +0.005 A 
ATOM      6  C   LIG    1       25.879 -25.534   6.862  0.00  0.00    +0.000 A 
ATOM      7  C   LIG    1       25.381 -25.979   5.644  0.00  0.00    +0.000 A 
ATOM      8  C   LIG    1       24.868 -25.061   4.730  0.00  0.00    +0.000 A 
ATOM      9  C   LIG    1       24.861 -23.694   5.033  0.00  0.00    +0.005 A 
ENDBRANCH   1   4
BRANCH   1  11
ATOM     10  N   LIG    1       23.728 -20.243   5.366  0.00  0.00    -0.301 N 
ATOM     11  C   LIG    1       24.116 -20.942   6.510  0.00  0.00    +0.226 C 
ATOM     12  O   LIG    1       23.402 -20.967   7.526  0.00  0.00    -0.275 OA
BRANCH  10  14
ATOM     13  C   LIG    1       24.068 -20.957   3.000  0.00  0.00    +0.024 C 
ATOM     14  C   LIG    1       24.552 -20.102   4.167  0.00  0.00    +0.104 C 
ENDBRANCH  10  14
BRANCH  10  15
ATOM     15  C   LIG    1       22.426 -19.561   5.378  0.00  0.00    +0.104 C 
ATOM     16  C   LIG    1       22.361 -18.288   4.545  0.00  0.00    +0.024 C 
ENDBRANCH  10  15
ENDBRANCH   1  11
BRANCH   2  17
ATOM     17  C   LIG    1       26.744 -20.289   8.438  0.00  0.00    +0.082 C 
BRANCH  17  18
ATOM     18  N   LIG    1       25.819 -20.669   9.492  0.00  0.00    -0.330 NA
ATOM     19  H   LIG    1       26.268 -20.568  10.400  0.00  0.00    +0.118 HD
ATOM     20  H   LIG    1       25.040 -20.013   9.489  0.00  0.00    +0.118 HD
ENDBRANCH  17  18
ENDBRANCH   2  17
TORSDOF 6
ENDMDL
MODEL 3
REMARK VINA RESULT:      -7.3      1.884      4.885
REMARK  Name = *****
REMARK                            x       y       z     vdW  Elec       q    Type
REMARK                         _______ _______ _______ _____ _____    ______ ____
ROOT
ATOM      1  C   LIG    1       24.411 -22.236   7.160  0.00  0.00    +0.076 C 
ATOM      2  C   LIG    1       23.256 -21.598   6.350  0.00  0.00    +0.023 C 
ATOM      3  C   LIG    1       23.051 -21.860   7.801  0.00  0.00    +0.027 C 
ENDROOT
BRANCH   1   4
ATOM      4  C   LIG    1       24.657 -23.720   6.822  0.00  0.00    -0.032 A 
ATOM      5  C   LIG    1       25.943 -24.287   6.927  0.00  0.00    +0.005 A 
ATOM      6  C   LIG    1       26.202 -25.609   6.561  0.00  0.00    +0.000 A 
ATOM      7  C   LIG    1       25.171 -26.407   6.084  0.00  0.00    +0.000 A 
ATOM      8  C   LIG    1       23.884 -25.883   5.980  0.00  0.00    +0.000 A 
ATOM      9  C   LIG    1       23.631 -24.556   6.347  0.00  0.00    +0.005 A 
ENDBRANCH   1   4
BRANCH   1  11
ATOM     10  N   LIG    1       26.570 -20.881   7.113  0.00  0.00    -0.301 N 
ATOM     11  C   LIG    1       25.558 -21.501   7.847  0.00  0.00    +0.226 C 
ATOM     12  O   LIG    1       25.554 -21.479   9.089  0.00  0.00    -0.275 OA
BRANCH  10  14
ATOM     13  C   LIG    1       26.778 -19.557   5.009  0.00  0.00    +0.024 C 
ATOM     14  C   LIG    1       26.683 -20.935   5.656  0.00  0.00    +0.104 C 
ENDBRANCH  10  14
BRANCH  10  15
ATOM     15  C   LIG    1       27.622 -20.165   7.848  0.00  0.00    +0.104 C 
ATOM     16  C   LIG    1       29.025 -20.731   7.675  0.00  0.00    +0.024 C 
ENDBRANCH  10  15
ENDBRANCH   1  11
BRANCH   2  17
ATOM     17  C   LIG    1       23.269 -20.219   5.806  0.00  0.00    +0.082 C 
BRANCH  17  18
ATOM     18  N   LIG    1       22.175 -20.045   4.865  0.00  0.00    -0.330 NA
ATOM     19  H   LIG    1       21.331 -20.481   5.230  0.00  0.00    +0.118 HD
ATOM     20  H   LIG    1       21.969 -19.049   4.793  0.00  0.00    +0.118 HD
ENDBRANCH  17  18
ENDBRANCH   2  17
TORSDOF 6
ENDMDL
MODEL 4
REMARK VINA RESULT:      -7.2      1.935      4.844
REMARK  Name = *****
REMARK                            x       y       z     vdW  Elec       q    Type
REMARK                         _______ _______ _______ _____ _____    ______ ____
ROOT
ATOM      1  C   LIG    1       24.510 -22.021   5.869  0.00  0.00    +0.076 C 
ATOM      2  C   LIG    1       22.973 -21.845   5.807  0.00  0.00    +0.023 C 
ATOM      3  C   LIG    1       23.682 -21.500   7.070  0.00  0.00    +0.027 C 
ENDROOT
BRANCH   1   4
ATOM      4  C   LIG    1       24.963 -23.495   5.897  0.00  0.00    -0.032 A 
ATOM      5  C   LIG    1       24.825 -24.319   4.762  0.00  0.00    +0.005 A 
ATOM      6  C   LIG    1       25.164 -25.673   4.784  0.00  0.00    +0.000 A 
ATOM      7  C   LIG    1       25.662 -26.240   5.950  0.00  0.00    +0.000 A 
ATOM      8  C   LIG    1       25.824 -25.451   7.087  0.00  0.00    +0.000 A 
ATOM      9  C   LIG    1       25.481 -24.094   7.058  0.00  0.00    +0.005 A 
ENDBRANCH   1   4
BRANCH   1  11
ATOM     10  N   LIG    1       26.681 -20.736   6.244  0.00  0.00    -0.301 N 
ATOM     11  C   LIG    1       25.562 -20.999   5.450  0.00  0.00    +0.226 C 
ATOM     12  O   LIG    1       25.381 -20.408   4.374  0.00  0.00    -0.275 OA
BRANCH  10  14
ATOM     13  C   LIG    1       26.350 -20.501   8.705  0.00  0.00    +0.024 C 
ATOM     14  C   LIG    1       26.917 -21.332   7.558  0.00  0.00    +0.104 C 
ENDBRANCH  10  14
BRANCH  10  15
ATOM     15  C   LIG    1       27.665 -19.760   5.754  0.00  0.00    +0.104 C 
ATOM     16  C   LIG    1       29.070 -19.929   6.318  0.00  0.00    +0.024 C 
ENDBRANCH  10  15
ENDBRANCH   1  11
BRANCH   2  17
ATOM     17  C   LIG    1       22.274 -20.813   5.005  0.00  0.00    +0.082 C 
BRANCH  17  18
ATOM     18  N   LIG    1       22.558 -19.491   5.538  0.00  0.00    -0.330 NA
ATOM     19  H   LIG    1       21.701 -19.066   5.886  0.00  0.00    +0.118 HD
ATOM     20  H   LIG    1       23.169 -19.595   6.347  0.00  0.00    +0.118 HD
ENDBRANCH  17  18
ENDBRANCH   2  17
TORSDOF 6
ENDMDL
MODEL 5
REMARK VINA RESULT:      -7.0      2.253      4.713
REMARK  Name = *****
REMARK                            x       y       z     vdW  Elec       q    Type
REMARK                         _______ _______ _______ _____ _____    ______ ____
ROOT
ATOM      1  C   LIG    1       25.589 -22.824   6.527  0.00  0.00    +0.076 C 
ATOM      2  C   LIG    1       26.035 -22.502   7.974  0.00  0.00    +0.023 C 
ATOM      3  C   LIG    1       26.970 -22.204   6.855  0.00  0.00    +0.027 C 
ENDROOT
BRANCH   1   4
ATOM      4  C   LIG    1       25.536 -24.334   6.218  0.00  0.00    -0.032 A 
ATOM      5  C   LIG    1       25.859 -25.289   7.202  0.00  0.00    +0.005 A 
ATOM      6  C   LIG    1       25.885 -26.658   6.926  0.00  0.00    +0.000 A 
ATOM      7  C   LIG    1       25.579 -27.109   5.649  0.00  0.00    +0.000 A 
ATOM      8  C   LIG    1       25.242 -26.192   4.655  0.00  0.00    +0.000 A 
ATOM      9  C   LIG    1       25.219 -24.821   4.938  0.00  0.00    +0.005 A 
ENDBRANCH   1   4
BRANCH   1  11
ATOM     10  N   LIG    1       23.452 -21.612   5.843  0.00  0.00    -0.301 N 
ATOM     11  C   LIG    1       24.792 -21.915   5.595  0.00  0.00    +0.226 C 
ATOM     12  O   LIG    1       25.386 -21.458   4.606  0.00  0.00    -0.275 OA
BRANCH  10  14
ATOM     13  C   LIG    1       22.320 -23.649   6.732  0.00  0.00    +0.024 C 
ATOM     14  C   LIG    1       22.667 -22.178   6.939  0.00  0.00    +0.104 C 
ENDBRANCH  10  14
BRANCH  10  15
ATOM     15  C   LIG    1       22.764 -20.702   4.915  0.00  0.00    +0.104 C 
ATOM     16  C   LIG    1       22.527 -19.297   5.453  0.00  0.00    +0.024 C 
ENDBRANCH  10  15
ENDBRANCH   1  11
BRANCH   2  17
ATOM     17  C   LIG    1       25.463 -21.423   8.814  0.00  0.00    +0.082 C 
BRANCH  17  18
ATOM     18  N   LIG    1       26.460 -20.391   9.046  0.00  0.00    -0.330 NA
ATOM     19  H   LIG    1       27.131 -20.379   8.282  0.00  0.00    +0.118 HD
ATOM     20  H   LIG    1       25.995 -19.485   9.027  0.00  0.00    +0.118 HD
ENDBRANCH  17  18
ENDBRANCH   2  17
TORSDOF 6
ENDMDL
MODEL 6
REMARK VINA RESULT:      -7.0      2.062      4.653
REMARK  Name = *****
REMARK                            x       y       z     vdW  Elec       q    Type
REMARK                         _______ _______ _______ _____ _____    ______ ____
ROOT
ATOM      1  C   LIG    1       25.779 -21.182   6.872  0.00  0.00    +0.076 C 
ATOM      2  C   LIG    1       26.734 -20.180   7.565  0.00  0.00    +0.023 C 
ATOM      3  C   LIG    1       25.629 -20.782   8.361  0.00  0.00    +0.027 C 
ENDROOT
BRANCH   1   4
ATOM      4  C   LIG    1       24.826 -20.525   5.854  0.00  0.00    -0.032 A 
ATOM      5  C   LIG    1       25.275 -20.157   4.570  0.00  0.00    +0.005 A 
ATOM      6  C   LIG    1       24.449 -19.499   3.657  0.00  0.00    +0.000 A 
ATOM      7  C   LIG    1       23.139 -19.197   4.005  0.00  0.00    +0.000 A 
ATOM      8  C   LIG    1       22.658 -19.559   5.262  0.00  0.00    +0.000 A 
ATOM      9  C   LIG    1       23.492 -20.217   6.174  0.00  0.00    +0.005 A 
ENDBRANCH   1   4
BRANCH   1  11
ATOM     10  N   LIG    1       24.958 -23.524   6.286  0.00  0.00    -0.301 N 
ATOM     11  C   LIG    1       25.983 -22.688   6.732  0.00  0.00    +0.226 C 
ATOM     12  O   LIG    1       27.099 -23.139   7.035  0.00  0.00    -0.275 OA
BRANCH  10  14
ATOM     13  C   LIG    1       22.545 -23.730   6.881  0.00  0.00    +0.024 C 
ATOM     14  C   LIG    1       23.598 -23.077   5.991  0.00  0.00    +0.104 C 
ENDBRANCH  10  14
BRANCH  10  15
ATOM     15  C   LIG    1       25.244 -24.960   6.147  0.00  0.00    +0.104 C 
ATOM     16  C   LIG    1       25.127 -25.503   4.730  0.00  0.00    +0.024 C 
ENDBRANCH  10  15
ENDBRANCH   1  11
BRANCH   2  17
ATOM     17  C   LIG    1       28.156 -20.452   7.885  0.00  0.00    +0.082 C 
BRANCH  17  18
ATOM     18  N   LIG    1       28.912 -20.653   6.659  0.00  0.00    -0.330 NA
ATOM     19  H   LIG    1       29.701 -21.270   6.837  0.00  0.00    +0.118 HD
ATOM     20  H   LIG    1       28.317 -21.141   5.991  0.00  0.00    +0.118 HD
ENDBRANCH  17  18
ENDBRANCH   2  17
TORSDOF 6
ENDMDL
MODEL 7
REMARK VINA RESULT:      -6.7      1.507      3.878
REMARK  Name = *****
REMARK                            x       y       z     vdW  Elec       q    Type
REMARK                         _______ _______ _______ _____ _____    ______ ____
ROOT
ATOM      1  C   LIG    1       24.306 -20.829   5.504  0.00  0.00    +0.076 C 
ATOM      2  C   LIG    1       23.756 -19.614   4.716  0.00  0.00    +0.023 C 
ATOM      3  C   LIG    1       24.353 -20.747   3.957  0.00  0.00    +0.027 C 
ENDROOT
BRANCH   1   4
ATOM      4  C   LIG    1       25.605 -20.528   6.277  0.00  0.00    -0.032 A 
ATOM      5  C   LIG    1       26.808 -20.251   5.597  0.00  0.00    +0.005 A 
ATOM      6  C   LIG    1       28.011 -20.043   6.275  0.00  0.00    +0.000 A 
ATOM      7  C   LIG    1       28.039 -20.101   7.662  0.00  0.00    +0.000 A 
ATOM      8  C   LIG    1       26.865 -20.359   8.366  0.00  0.00    +0.000 A 
ATOM      9  C   LIG    1       25.663 -20.568   7.681  0.00  0.00    +0.005 A 
ENDBRANCH   1   4
BRANCH   1  11
ATOM     10  N   LIG    1       24.124 -23.301   6.103  0.00  0.00    -0.301 N 
ATOM     11  C   LIG    1       23.516 -22.053   5.959  0.00  0.00    +0.226 C 
ATOM     12  O   LIG    1       22.308 -21.891   6.195  0.00  0.00    -0.275 OA
BRANCH  10  14
ATOM     13  C   LIG    1       26.367 -23.953   6.979  0.00  0.00    +0.024 C 
ATOM     14  C   LIG    1       25.519 -23.582   5.766  0.00  0.00    +0.104 C 
ENDBRANCH  10  14
BRANCH  10  15
ATOM     15  C   LIG    1       23.302 -24.423   6.578  0.00  0.00    +0.104 C 
ATOM     16  C   LIG    1       23.779 -25.800   6.136  0.00  0.00    +0.024 C 
ENDBRANCH  10  15
ENDBRANCH   1  11
BRANCH   2  17
ATOM     17  C   LIG    1       22.320 -19.269   4.591  0.00  0.00    +0.082 C 
BRANCH  17  18
ATOM     18  N   LIG    1       22.153 -17.825   4.589  0.00  0.00    -0.330 NA
ATOM     19  H   LIG    1       22.326 -17.455   5.521  0.00  0.00    +0.118 HD
ATOM     20  H   LIG    1       22.869 -17.420   3.988  0.00  0.00    +0.118 HD
ENDBRANCH  17  18
ENDBRANCH   2  17
TORSDOF 6
ENDMDL
MODEL 8
REMARK VINA RESULT:      -6.7      2.261      4.641
REMARK  Name = *****
REMARK                            x       y       z     vdW  Elec       q    Type
REMARK                         _______ _______ _______ _____ _____    ______ ____
ROOT
ATOM      1  C   LIG    1       24.023 -21.501   6.866  0.00  0.00    +0.076 C 
ATOM      2  C   LIG    1       25.114 -21.031   7.859  0.00  0.00    +0.023 C 
ATOM      3  C   LIG    1       23.685 -20.891   8.250  0.00  0.00    +0.027 C 
ENDROOT
BRANCH   1   4
ATOM      4  C   LIG    1       23.880 -20.592   5.629  0.00  0.00    -0.032 A 
ATOM      5  C   LIG    1       24.938 -20.444   4.710  0.00  0.00    +0.005 A 
ATOM      6  C   LIG    1       24.857 -19.575   3.620  0.00  0.00    +0.000 A 
ATOM      7  C   LIG    1       23.702 -18.831   3.417  0.00  0.00    +0.000 A 
ATOM      8  C   LIG    1       22.631 -18.963   4.299  0.00  0.00    +0.000 A 
ATOM      9  C   LIG    1       22.720 -19.835   5.390  0.00  0.00    +0.005 A 
ENDBRANCH   1   4
BRANCH   1  11
ATOM     10  N   LIG    1       24.261 -23.997   6.405  0.00  0.00    -0.301 N 
ATOM     11  C   LIG    1       23.452 -22.910   6.739  0.00  0.00    +0.226 C 
ATOM     12  O   LIG    1       22.235 -23.049   6.944  0.00  0.00    -0.275 OA
BRANCH  10  14
ATOM     13  C   LIG    1       26.506 -25.068   6.593  0.00  0.00    +0.024 C 
ATOM     14  C   LIG    1       25.681 -23.896   6.070  0.00  0.00    +0.104 C 
ENDBRANCH  10  14
BRANCH  10  15
ATOM     15  C   LIG    1       23.641 -25.328   6.334  0.00  0.00    +0.104 C 
ATOM     16  C   LIG    1       24.141 -26.209   5.197  0.00  0.00    +0.024 C 
ENDBRANCH  10  15
ENDBRANCH   1  11
BRANCH   2  17
ATOM     17  C   LIG    1       26.033 -21.934   8.592  0.00  0.00    +0.082 C 
BRANCH  17  18
ATOM     18  N   LIG    1       27.378 -21.383   8.593  0.00  0.00    -0.330 NA
ATOM     19  H   LIG    1       27.634 -21.093   7.652  0.00  0.00    +0.118 HD
ATOM     20  H   LIG    1       27.377 -20.535   9.158  0.00  0.00    +0.118 HD
ENDBRANCH  17  18
ENDBRANCH   2  17
TORSDOF 6
ENDMDL
MODEL 9
REMARK VINA RESULT:      -6.4      1.389      4.439
REMARK  Name = *****
REMARK                            x       y       z     vdW  Elec       q    Type
REMARK                         _______ _______ _______ _____ _____    ______ ____
ROOT
ATOM      1  C   LIG    1       24.531 -21.548   6.009  0.00  0.00    +0.076 C 
ATOM      2  C   LIG    1       23.708 -22.845   5.819  0.00  0.00    +0.023 C 
ATOM      3  C   LIG    1       25.042 -22.744   5.166  0.00  0.00    +0.027 C 
ENDROOT
BRANCH   1   4
ATOM      4  C   LIG    1       23.954 -20.334   5.253  0.00  0.00    -0.032 A 
ATOM      5  C   LIG    1       22.699 -19.793   5.597  0.00  0.00    +0.005 A 
ATOM      6  C   LIG    1       22.127 -18.738   4.883  0.00  0.00    +0.000 A 
ATOM      7  C   LIG    1       22.805 -18.188   3.803  0.00  0.00    +0.000 A 
ATOM      8  C   LIG    1       24.054 -18.690   3.445  0.00  0.00    +0.000 A 
ATOM      9  C   LIG    1       24.622 -19.749   4.163  0.00  0.00    +0.005 A 
ENDBRANCH   1   4
BRANCH   1  11
ATOM     10  N   LIG    1       26.734 -20.643   6.919  0.00  0.00    -0.301 N 
ATOM     11  C   LIG    1       25.493 -21.238   7.152  0.00  0.00    +0.226 C 
ATOM     12  O   LIG    1       25.125 -21.539   8.299  0.00  0.00    -0.275 OA
BRANCH  10  14
ATOM     13  C   LIG    1       28.412 -19.330   5.620  0.00  0.00    +0.024 C 
ATOM     14  C   LIG    1       27.266 -20.337   5.591  0.00  0.00    +0.104 C 
ENDBRANCH  10  14
BRANCH  10  15
ATOM     15  C   LIG    1       27.590 -20.347   8.077  0.00  0.00    +0.104 C 
ATOM     16  C   LIG    1       28.743 -21.319   8.287  0.00  0.00    +0.024 C 
ENDBRANCH  10  15
ENDBRANCH   1  11
BRANCH   2  17
ATOM     17  C   LIG    1       23.441 -23.839   6.886  0.00  0.00    +0.082 C 
BRANCH  17  18
ATOM     18  N   LIG    1       23.486 -25.184   6.336  0.00  0.00    -0.330 NA
ATOM     19  H   LIG    1       24.445 -25.429   6.096  0.00  0.00    +0.118 HD
ATOM     20  H   LIG    1       23.203 -25.838   7.064  0.00  0.00    +0.118 HD
ENDBRANCH  17  18
ENDBRANCH   2  17
TORSDOF 6
ENDMDL
