MODEL 1
REMARK VINA RESULT:      -0.4      0.000      0.000
REMARK  Name = *****
REMARK                            x       y       z     vdW  Elec       q    Type
REMARK                         _______ _______ _______ _____ _____    ______ ____
ROOT
ATOM      1  C   LIG    1       21.885 -18.160   3.855  0.00  0.00    +0.037 A 
ATOM      2  C   LIG    1       21.950 -19.269   4.724  0.00  0.00    -0.026 A 
ATOM      3  C   LIG    1       20.915 -20.227   4.657  0.00  0.00    +0.005 A 
ATOM      4  C   LIG    1       19.841 -20.079   3.776  0.00  0.00    +0.000 A 
ATOM      5  C   LIG    1       19.774 -18.970   2.950  0.00  0.00    +0.002 A 
ATOM      6  C   LIG    1       20.790 -18.025   2.990  0.00  0.00    +0.023 A 
ENDROOT
BRANCH   1   8
ATOM      7  C   LIG    1       22.871 -16.003   4.612  0.00  0.00    +0.248 C 
ATOM      8  N   LIG    1       22.898 -17.180   3.869  0.00  0.00    -0.281 N 
ATOM      9  H   LIG    1       23.693 -17.361   3.277  0.00  0.00    +0.155 HD
ATOM     10  O   LIG    1       21.982 -15.603   5.342  0.00  0.00    -0.270 OA
BRANCH   7  14
ATOM     11  C   LIG    1       26.369 -13.589   4.166  0.00  0.00    +0.120 A 
ATOM     12  C   LIG    1       26.331 -14.891   3.664  0.00  0.00    +0.046 A 
ATOM     13  C   LIG    1       25.189 -15.671   3.819  0.00  0.00    +0.016 A 
ATOM     14  C   LIG    1       24.074 -15.148   4.482  0.00  0.00    +0.037 A 
ATOM     15  C   LIG    1       24.126 -13.867   5.035  0.00  0.00    +0.016 A 
ATOM     16  C   LIG    1       25.275 -13.092   4.879  0.00  0.00    +0.046 A 
BRANCH  11  18
ATOM     17  C   LIG    1       28.439 -13.210   3.125  0.00  0.00    +0.277 C 
ATOM     18  O   LIG    1       27.440 -12.748   4.032  0.00  0.00    -0.495 OA
ENDBRANCH  11  18
ENDBRANCH   7  14
ENDBRANCH   1   8
BRANCH   2  19
ATOM     19  C   LIG    1       23.102 -19.530   5.683  0.00  0.00    +0.038 C 
BRANCH  19  20
ATOM     20  C   LIG    1       24.210 -20.427   5.102  0.00  0.00    +0.023 C 
BRANCH  20  21
ATOM     21  C   LIG    1       25.640 -20.155   5.665  0.00  0.00    +0.057 C 
ATOM     22  N   LIG    1       26.641 -19.807   4.620  0.00  0.00    -0.302 NA
ATOM     23  C   LIG    1       26.282 -18.581   3.895  0.00  0.00    +0.105 C 
ATOM     24  C   LIG    1       27.991 -19.626   5.192  0.00  0.00    +0.084 C 
ATOM     25  C   LIG    1       28.466 -20.875   5.925  0.00  0.00    +0.015 C 
ATOM     26  C   LIG    1       27.512 -21.208   7.059  0.00  0.00    +0.003 C 
ATOM     27  C   LIG    1       26.103 -21.367   6.508  0.00  0.00    +0.019 C 
ENDBRANCH  20  21
ENDBRANCH  19  20
ENDBRANCH   2  19
TORSDOF 6
ENDMDL
MODEL 2
REMARK VINA RESULT:      -0.3      1.994      5.558
REMARK  Name = *****
REMARK                            x       y       z     vdW  Elec       q    Type
REMARK                         _______ _______ _______ _____ _____    ______ ____
ROOT
ATOM      1  C   LIG    1       27.730 -18.908   5.333  0.00  0.00    +0.037 A 
ATOM      2  C   LIG    1       26.975 -20.097   5.262  0.00  0.00    -0.026 A 
ATOM      3  C   LIG    1       27.467 -21.238   5.933  0.00  0.00    +0.005 A 
ATOM      4  C   LIG    1       28.677 -21.207   6.631  0.00  0.00    +0.000 A 
ATOM      5  C   LIG    1       29.423 -20.041   6.668  0.00  0.00    +0.002 A 
ATOM      6  C   LIG    1       28.948 -18.905   6.027  0.00  0.00    +0.023 A 
ENDROOT
BRANCH   1   8
ATOM      7  C   LIG    1       27.975 -16.530   4.638  0.00  0.00    +0.248 C 
ATOM      8  N   LIG    1       27.279 -17.735   4.695  0.00  0.00    -0.281 N 
ATOM      9  H   LIG    1       26.372 -17.791   4.261  0.00  0.00    +0.155 HD
ATOM     10  O   LIG    1       29.054 -16.269   5.138  0.00  0.00    -0.270 OA
BRANCH   7  14
ATOM     11  C   LIG    1       25.957 -13.447   2.475  0.00  0.00    +0.120 A 
ATOM     12  C   LIG    1       25.291 -14.620   2.834  0.00  0.00    +0.046 A 
ATOM     13  C   LIG    1       25.959 -15.620   3.534  0.00  0.00    +0.016 A 
ATOM     14  C   LIG    1       27.303 -15.450   3.879  0.00  0.00    +0.037 A 
ATOM     15  C   LIG    1       27.989 -14.303   3.474  0.00  0.00    +0.016 A 
ATOM     16  C   LIG    1       27.315 -13.306   2.769  0.00  0.00    +0.046 A 
BRANCH  11  18
ATOM     17  C   LIG    1       23.999 -12.188   2.157  0.00  0.00    +0.277 C 
ATOM     18  O   LIG    1       25.367 -12.405   1.812  0.00  0.00    -0.495 OA
ENDBRANCH  11  18
ENDBRANCH   7  14
ENDBRANCH   1   8
BRANCH   2  19
ATOM     19  C   LIG    1       25.629 -20.207   4.561  0.00  0.00    +0.038 C 
BRANCH  19  20
ATOM     20  C   LIG    1       24.451 -20.498   5.509  0.00  0.00    +0.023 C 
BRANCH  20  21
ATOM     21  C   LIG    1       23.165 -19.656   5.239  0.00  0.00    +0.057 C 
ATOM     22  N   LIG    1       22.100 -20.400   4.513  0.00  0.00    -0.302 NA
ATOM     23  C   LIG    1       21.632 -21.572   5.264  0.00  0.00    +0.105 C 
ATOM     24  C   LIG    1       20.934 -19.542   4.220  0.00  0.00    +0.084 C 
ATOM     25  C   LIG    1       21.322 -18.321   3.397  0.00  0.00    +0.015 C 
ATOM     26  C   LIG    1       22.344 -17.488   4.152  0.00  0.00    +0.003 C 
ATOM     27  C   LIG    1       23.548 -18.352   4.499  0.00  0.00    +0.019 C 
ENDBRANCH  20  21
ENDBRANCH  19  20
ENDBRANCH   2  19
TORSDOF 6
ENDMDL
MODEL 3
REMARK VINA RESULT:       0.4      2.641      7.867
REMARK  Name = *****
REMARK                            x       y       z     vdW  Elec       q    Type
REMARK                         _______ _______ _______ _____ _____    ______ ____
ROOT
ATOM      1  C   LIG    1       27.436 -14.427   4.013  0.00  0.00    +0.037 A 
ATOM      2  C   LIG    1       27.210 -13.519   5.069  0.00  0.00    -0.026 A 
ATOM      3  C   LIG    1       27.960 -12.323   5.089  0.00  0.00    +0.005 A 
ATOM      4  C   LIG    1       28.918 -12.047   4.110  0.00  0.00    +0.000 A 
ATOM      5  C   LIG    1       29.152 -12.961   3.096  0.00  0.00    +0.002 A 
ATOM      6  C   LIG    1       28.413 -14.135   3.051  0.00  0.00    +0.023 A 
ENDROOT
BRANCH   1   8
ATOM      7  C   LIG    1       27.231 -16.906   4.122  0.00  0.00    +0.248 C 
ATOM      8  N   LIG    1       26.705 -15.630   3.934  0.00  0.00    -0.281 N 
ATOM      9  H   LIG    1       25.727 -15.536   3.712  0.00  0.00    +0.155 HD
ATOM     10  O   LIG    1       28.388 -17.208   4.354  0.00  0.00    -0.270 OA
BRANCH   7  14
ATOM     11  C   LIG    1       24.445 -20.138   3.896  0.00  0.00    +0.120 A 
ATOM     12  C   LIG    1       25.699 -20.316   4.482  0.00  0.00    +0.046 A 
ATOM     13  C   LIG    1       26.601 -19.258   4.546  0.00  0.00    +0.016 A 
ATOM     14  C   LIG    1       26.250 -18.011   4.020  0.00  0.00    +0.037 A 
ATOM     15  C   LIG    1       25.019 -17.842   3.383  0.00  0.00    +0.016 A 
ATOM     16  C   LIG    1       24.120 -18.907   3.319  0.00  0.00    +0.046 A 
BRANCH  11  18
ATOM     17  C   LIG    1       22.498 -21.050   4.840  0.00  0.00    +0.277 C 
ATOM     18  O   LIG    1       23.491 -21.116   3.818  0.00  0.00    -0.495 OA
ENDBRANCH  11  18
ENDBRANCH   7  14
ENDBRANCH   1   8
BRANCH   2  19
ATOM     19  C   LIG    1       26.159 -13.720   6.150  0.00  0.00    +0.038 C 
BRANCH  19  20
ATOM     20  C   LIG    1       25.002 -12.706   6.096  0.00  0.00    +0.023 C 
BRANCH  20  21
ATOM     21  C   LIG    1       24.245 -12.643   4.733  0.00  0.00    +0.057 C 
ATOM     22  N   LIG    1       24.146 -13.955   4.039  0.00  0.00    -0.302 NA
ATOM     23  C   LIG    1       23.410 -14.948   4.832  0.00  0.00    +0.105 C 
ATOM     24  C   LIG    1       23.484 -13.832   2.724  0.00  0.00    +0.084 C 
ATOM     25  C   LIG    1       24.213 -12.853   1.813  0.00  0.00    +0.015 C 
ATOM     26  C   LIG    1       24.253 -11.476   2.453  0.00  0.00    +0.003 C 
ATOM     27  C   LIG    1       24.901 -11.573   3.827  0.00  0.00    +0.019 C 
ENDBRANCH  20  21
ENDBRANCH  19  20
ENDBRANCH   2  19
TORSDOF 6
ENDMDL
MODEL 4
REMARK VINA RESULT:       0.8      2.383      5.797
REMARK  Name = *****
REMARK                            x       y       z     vdW  Elec       q    Type
REMARK                         _______ _______ _______ _____ _____    ______ ____
ROOT
ATOM      1  C   LIG    1       25.277 -14.557   3.768  0.00  0.00    +0.037 A 
ATOM      2  C   LIG    1       23.885 -14.446   3.971  0.00  0.00    -0.026 A 
ATOM      3  C   LIG    1       23.231 -13.294   3.483  0.00  0.00    +0.005 A 
ATOM      4  C   LIG    1       23.936 -12.275   2.836  0.00  0.00    +0.000 A 
ATOM      5  C   LIG    1       25.307 -12.382   2.670  0.00  0.00    +0.002 A 
ATOM      6  C   LIG    1       25.965 -13.515   3.130  0.00  0.00    +0.023 A 
ENDROOT
BRANCH   1   8
ATOM      7  C   LIG    1       27.241 -16.086   3.786  0.00  0.00    +0.248 C 
ATOM      8  N   LIG    1       25.978 -15.692   4.221  0.00  0.00    -0.281 N 
ATOM      9  H   LIG    1       25.504 -16.257   4.907  0.00  0.00    +0.155 HD
ATOM     10  O   LIG    1       27.937 -15.552   2.941  0.00  0.00    -0.270 OA
BRANCH   7  14
ATOM     11  C   LIG    1       28.748 -19.641   5.615  0.00  0.00    +0.120 A 
ATOM     12  C   LIG    1       27.532 -19.651   4.930  0.00  0.00    +0.046 A 
ATOM     13  C   LIG    1       27.048 -18.487   4.342  0.00  0.00    +0.016 A 
ATOM     14  C   LIG    1       27.782 -17.300   4.439  0.00  0.00    +0.037 A 
ATOM     15  C   LIG    1       28.971 -17.272   5.170  0.00  0.00    +0.016 A 
ATOM     16  C   LIG    1       29.450 -18.441   5.760  0.00  0.00    +0.046 A 
BRANCH  11  18
ATOM     17  C   LIG    1       28.428 -21.466   7.058  0.00  0.00    +0.277 C 
ATOM     18  O   LIG    1       29.308 -20.746   6.196  0.00  0.00    -0.495 OA
ENDBRANCH  11  18
ENDBRANCH   7  14
ENDBRANCH   1   8
BRANCH   2  19
ATOM     19  C   LIG    1       23.035 -15.525   4.625  0.00  0.00    +0.038 C 
BRANCH  19  20
ATOM     20  C   LIG    1       22.846 -16.785   3.761  0.00  0.00    +0.023 C 
BRANCH  20  21
ATOM     21  C   LIG    1       23.335 -18.113   4.418  0.00  0.00    +0.057 C 
ATOM     22  N   LIG    1       23.759 -19.149   3.438  0.00  0.00    -0.302 NA
ATOM     23  C   LIG    1       24.886 -18.702   2.611  0.00  0.00    +0.105 C 
ATOM     24  C   LIG    1       24.146 -20.410   4.104  0.00  0.00    +0.084 C 
ATOM     25  C   LIG    1       23.011 -20.974   4.949  0.00  0.00    +0.015 C 
ATOM     26  C   LIG    1       22.614 -19.975   6.022  0.00  0.00    +0.003 C 
ATOM     27  C   LIG    1       22.240 -18.652   5.370  0.00  0.00    +0.019 C 
ENDBRANCH  20  21
ENDBRANCH  19  20
ENDBRANCH   2  19
TORSDOF 6
ENDMDL
MODEL 5
REMARK VINA RESULT:       1.7      2.009      6.032
REMARK  Name = *****
REMARK                            x       y       z     vdW  Elec       q    Type
REMARK                         _______ _______ _______ _____ _____    ______ ____
ROOT
ATOM      1  C   LIG    1       25.950 -14.835   3.339  0.00  0.00    +0.037 A 
ATOM      2  C   LIG    1       27.235 -14.628   3.882  0.00  0.00    -0.026 A 
ATOM      3  C   LIG    1       27.866 -13.387   3.645  0.00  0.00    +0.005 A 
ATOM      4  C   LIG    1       27.252 -12.394   2.876  0.00  0.00    +0.000 A 
ATOM      5  C   LIG    1       26.003 -12.621   2.324  0.00  0.00    +0.002 A 
ATOM      6  C   LIG    1       25.361 -13.829   2.560  0.00  0.00    +0.023 A 
ENDROOT
BRANCH   1   8
ATOM      7  C   LIG    1       23.986 -16.169   4.087  0.00  0.00    +0.248 C 
ATOM      8  N   LIG    1       25.268 -16.049   3.557  0.00  0.00    -0.281 N 
ATOM      9  H   LIG    1       25.772 -16.886   3.313  0.00  0.00    +0.155 HD
ATOM     10  O   LIG    1       23.253 -15.276   4.473  0.00  0.00    -0.270 OA
BRANCH   7  14
ATOM     11  C   LIG    1       22.594 -20.199   4.366  0.00  0.00    +0.120 A 
ATOM     12  C   LIG    1       23.815 -19.907   3.756  0.00  0.00    +0.046 A 
ATOM     13  C   LIG    1       24.257 -18.590   3.666  0.00  0.00    +0.016 A 
ATOM     14  C   LIG    1       23.474 -17.555   4.187  0.00  0.00    +0.037 A 
ATOM     15  C   LIG    1       22.227 -17.838   4.749  0.00  0.00    +0.016 A 
ATOM     16  C   LIG    1       21.788 -19.158   4.833  0.00  0.00    +0.046 A 
BRANCH  11  18
ATOM     17  C   LIG    1       20.690 -21.527   4.723  0.00  0.00    +0.277 C 
ATOM     18  O   LIG    1       22.101 -21.466   4.521  0.00  0.00    -0.495 OA
ENDBRANCH  11  18
ENDBRANCH   7  14
ENDBRANCH   1   8
BRANCH   2  19
ATOM     19  C   LIG    1       27.957 -15.636   4.763  0.00  0.00    +0.038 C 
BRANCH  19  20
ATOM     20  C   LIG    1       27.983 -17.065   4.190  0.00  0.00    +0.023 C 
BRANCH  20  21
ATOM     21  C   LIG    1       27.672 -18.194   5.221  0.00  0.00    +0.057 C 
ATOM     22  N   LIG    1       28.864 -18.662   5.978  0.00  0.00    -0.302 NA
ATOM     23  C   LIG    1       29.475 -17.588   6.770  0.00  0.00    +0.105 C 
ATOM     24  C   LIG    1       28.533 -19.777   6.889  0.00  0.00    +0.084 C 
ATOM     25  C   LIG    1       27.936 -20.962   6.140  0.00  0.00    +0.015 C 
ATOM     26  C   LIG    1       26.663 -20.539   5.427  0.00  0.00    +0.003 C 
ATOM     27  C   LIG    1       26.963 -19.368   4.502  0.00  0.00    +0.019 C 
ENDBRANCH  20  21
ENDBRANCH  19  20
ENDBRANCH   2  19
TORSDOF 6
ENDMDL
MODEL 6
REMARK VINA RESULT:       2.2      2.515      5.058
REMARK  Name = *****
REMARK                            x       y       z     vdW  Elec       q    Type
REMARK                         _______ _______ _______ _____ _____    ______ ____
ROOT
ATOM      1  C   LIG    1       23.852 -18.069   4.164  0.00  0.00    +0.037 A 
ATOM      2  C   LIG    1       22.481 -17.769   4.301  0.00  0.00    -0.026 A 
ATOM      3  C   LIG    1       21.567 -18.844   4.363  0.00  0.00    +0.005 A 
ATOM      4  C   LIG    1       21.996 -20.170   4.269  0.00  0.00    +0.000 A 
ATOM      5  C   LIG    1       23.343 -20.451   4.104  0.00  0.00    +0.002 A 
ATOM      6  C   LIG    1       24.257 -19.407   4.057  0.00  0.00    +0.023 A 
ENDROOT
BRANCH   1   8
ATOM      7  C   LIG    1       25.945 -17.029   3.307  0.00  0.00    +0.248 C 
ATOM      8  N   LIG    1       24.809 -17.036   4.113  0.00  0.00    -0.281 N 
ATOM      9  H   LIG    1       24.645 -16.253   4.725  0.00  0.00    +0.155 HD
ATOM     10  O   LIG    1       26.322 -17.901   2.544  0.00  0.00    -0.270 OA
BRANCH   7  14
ATOM     11  C   LIG    1       28.300 -13.472   3.544  0.00  0.00    +0.120 A 
ATOM     12  C   LIG    1       27.422 -13.677   2.478  0.00  0.00    +0.046 A 
ATOM     13  C   LIG    1       26.664 -14.842   2.408  0.00  0.00    +0.016 A 
ATOM     14  C   LIG    1       26.782 -15.811   3.408  0.00  0.00    +0.037 A 
ATOM     15  C   LIG    1       27.699 -15.636   4.447  0.00  0.00    +0.016 A 
ATOM     16  C   LIG    1       28.459 -14.468   4.510  0.00  0.00    +0.046 A 
BRANCH  11  18
ATOM     17  C   LIG    1       29.106 -11.851   5.041  0.00  0.00    +0.277 C 
ATOM     18  O   LIG    1       29.059 -12.345   3.703  0.00  0.00    -0.495 OA
ENDBRANCH  11  18
ENDBRANCH   7  14
ENDBRANCH   1   8
BRANCH   2  19
ATOM     19  C   LIG    1       21.932 -16.358   4.454  0.00  0.00    +0.038 C 
BRANCH  19  20
ATOM     20  C   LIG    1       22.887 -15.389   5.175  0.00  0.00    +0.023 C 
BRANCH  20  21
ATOM     21  C   LIG    1       23.716 -14.459   4.235  0.00  0.00    +0.057 C 
ATOM     22  N   LIG    1       24.204 -13.218   4.895  0.00  0.00    -0.302 NA
ATOM     23  C   LIG    1       25.099 -13.506   6.023  0.00  0.00    +0.105 C 
ATOM     24  C   LIG    1       24.923 -12.340   3.949  0.00  0.00    +0.084 C 
ATOM     25  C   LIG    1       24.048 -11.950   2.764  0.00  0.00    +0.015 C 
ATOM     26  C   LIG    1       23.604 -13.193   2.012  0.00  0.00    +0.003 C 
ATOM     27  C   LIG    1       22.888 -14.136   2.968  0.00  0.00    +0.019 C 
ENDBRANCH  20  21
ENDBRANCH  19  20
ENDBRANCH   2  19
TORSDOF 6
ENDMDL
