MODEL 1
REMARK VINA RESULT:      -9.2      0.000      0.000
REMARK  Name = *****
REMARK                            x       y       z     vdW  Elec       q    Type
REMARK                         _______ _______ _______ _____ _____    ______ ____
ROOT
ATOM      1  O   LIG    1       29.492 -20.170   6.017  0.00  0.00    -0.271 OA
ATOM      2  C   LIG    1       28.259 -20.150   6.051  0.00  0.00    +0.269 C 
ATOM      3  C   LIG    1       27.443 -20.406   7.344  0.00  0.00    +0.320 C 
ATOM      4  N   LIG    1       26.715 -21.654   7.188  0.00  0.00    -0.243 NA
ATOM      5  C   LIG    1       25.739 -21.714   6.348  0.00  0.00    +0.079 C 
ATOM      6  C   LIG    1       25.272 -20.593   5.474  0.00  0.00    +0.023 A 
ATOM      7  C   LIG    1       26.172 -19.786   4.753  0.00  0.00    +0.043 A 
ATOM      8  C   LIG    1       25.676 -18.913   3.774  0.00  0.00    +0.025 A 
ATOM      9  C   LIG    1       24.301 -18.784   3.567  0.00  0.00    +0.022 A 
ATOM     10  C   LIG    1       23.415 -19.537   4.329  0.00  0.00    +0.042 A 
ATOM     11 CL   LIG    1       21.721 -19.371   4.081  0.00  0.00    -0.084 Cl
ATOM     12  C   LIG    1       23.890 -20.443   5.274  0.00  0.00    +0.032 A 
ATOM     13  N   LIG    1       27.564 -19.805   4.919  0.00  0.00    -0.281 N 
ATOM     14  H   LIG    1       28.158 -19.434   4.187  0.00  0.00    +0.155 HD
ENDROOT
BRANCH   5  15
ATOM     15  C   LIG    1       25.016 -23.019   6.274  0.00  0.00    +0.019 A 
ATOM     16  C   LIG    1       23.759 -23.237   6.853  0.00  0.00    +0.050 A 
ATOM     17 CL   LIG    1       22.868 -21.997   7.660  0.00  0.00    -0.083 Cl
ATOM     18  C   LIG    1       23.160 -24.497   6.751  0.00  0.00    +0.021 A 
ATOM     19  C   LIG    1       23.802 -25.530   6.065  0.00  0.00    +0.002 A 
ATOM     20  C   LIG    1       25.041 -25.308   5.469  0.00  0.00    +0.001 A 
ATOM     21  C   LIG    1       25.646 -24.054   5.566  0.00  0.00    +0.011 A 
ENDBRANCH   5  15
BRANCH   3  22
ATOM     22  O   LIG    1       28.301 -20.426   8.474  0.00  0.00    -0.364 OA
ATOM     23  H   LIG    1       28.042 -21.235   8.948  0.00  0.00    +0.212 HD
ENDBRANCH   3  22
TORSDOF 2
ENDMDL
MODEL 2
REMARK VINA RESULT:      -8.9      2.654      4.630
REMARK  Name = *****
REMARK                            x       y       z     vdW  Elec       q    Type
REMARK                         _______ _______ _______ _____ _____    ______ ____
ROOT
ATOM      1  O   LIG    1       22.971 -24.302   6.905  0.00  0.00    -0.271 OA
ATOM      2  C   LIG    1       23.631 -23.480   6.263  0.00  0.00    +0.269 C 
ATOM      3  C   LIG    1       25.003 -23.809   5.621  0.00  0.00    +0.320 C 
ATOM      4  N   LIG    1       26.027 -23.040   6.308  0.00  0.00    -0.243 NA
ATOM      5  C   LIG    1       26.063 -21.761   6.155  0.00  0.00    +0.079 C 
ATOM      6  C   LIG    1       25.113 -20.955   5.326  0.00  0.00    +0.023 A 
ATOM      7  C   LIG    1       23.722 -21.161   5.375  0.00  0.00    +0.043 A 
ATOM      8  C   LIG    1       22.870 -20.229   4.765  0.00  0.00    +0.025 A 
ATOM      9  C   LIG    1       23.392 -19.151   4.047  0.00  0.00    +0.022 A 
ATOM     10  C   LIG    1       24.770 -18.990   3.949  0.00  0.00    +0.042 A 
ATOM     11 CL   LIG    1       25.414 -17.668   3.057  0.00  0.00    -0.084 Cl
ATOM     12  C   LIG    1       25.632 -19.879   4.586  0.00  0.00    +0.032 A 
ATOM     13  N   LIG    1       23.101 -22.236   6.027  0.00  0.00    -0.281 N 
ATOM     14  H   LIG    1       22.121 -22.169   6.275  0.00  0.00    +0.155 HD
ENDROOT
BRANCH   5  15
ATOM     15  C   LIG    1       27.169 -21.047   6.862  0.00  0.00    +0.019 A 
ATOM     16  C   LIG    1       27.023 -20.459   8.125  0.00  0.00    +0.050 A 
ATOM     17 CL   LIG    1       25.563 -20.552   9.043  0.00  0.00    -0.083 Cl
ATOM     18  C   LIG    1       28.108 -19.794   8.708  0.00  0.00    +0.021 A 
ATOM     19  C   LIG    1       29.334 -19.728   8.044  0.00  0.00    +0.002 A 
ATOM     20  C   LIG    1       29.487 -20.334   6.799  0.00  0.00    +0.001 A 
ATOM     21  C   LIG    1       28.411 -20.998   6.210  0.00  0.00    +0.011 A 
ENDBRANCH   5  15
BRANCH   3  22
ATOM     22  O   LIG    1       25.253 -25.205   5.680  0.00  0.00    -0.364 OA
ATOM     23  H   LIG    1       26.171 -25.289   5.366  0.00  0.00    +0.212 HD
ENDBRANCH   3  22
TORSDOF 2
ENDMDL
MODEL 3
REMARK VINA RESULT:      -8.4      1.443      4.351
REMARK  Name = *****
REMARK                            x       y       z     vdW  Elec       q    Type
REMARK                         _______ _______ _______ _____ _____    ______ ____
ROOT
ATOM      1  O   LIG    1       28.744 -19.765   8.456  0.00  0.00    -0.271 OA
ATOM      2  C   LIG    1       28.114 -20.463   7.657  0.00  0.00    +0.269 C 
ATOM      3  C   LIG    1       28.202 -20.280   6.120  0.00  0.00    +0.320 C 
ATOM      4  N   LIG    1       26.914 -19.810   5.639  0.00  0.00    -0.243 NA
ATOM      5  C   LIG    1       25.902 -20.607   5.665  0.00  0.00    +0.079 C 
ATOM      6  C   LIG    1       25.914 -22.015   6.173  0.00  0.00    +0.023 A 
ATOM      7  C   LIG    1       26.537 -22.364   7.385  0.00  0.00    +0.043 A 
ATOM      8  C   LIG    1       26.316 -23.638   7.927  0.00  0.00    +0.025 A 
ATOM      9  C   LIG    1       25.552 -24.582   7.236  0.00  0.00    +0.022 A 
ATOM     10  C   LIG    1       24.993 -24.251   6.006  0.00  0.00    +0.042 A 
ATOM     11 CL   LIG    1       24.061 -25.415   5.151  0.00  0.00    -0.084 Cl
ATOM     12  C   LIG    1       25.164 -22.975   5.474  0.00  0.00    +0.032 A 
ATOM     13  N   LIG    1       27.361 -21.507   8.130  0.00  0.00    -0.281 N 
ATOM     14  H   LIG    1       27.529 -21.706   9.109  0.00  0.00    +0.155 HD
ENDROOT
BRANCH   5  15
ATOM     15  C   LIG    1       24.623 -20.062   5.117  0.00  0.00    +0.019 A 
ATOM     16  C   LIG    1       23.404 -20.119   5.805  0.00  0.00    +0.050 A 
ATOM     17 CL   LIG    1       23.253 -20.765   7.400  0.00  0.00    -0.083 Cl
ATOM     18  C   LIG    1       22.250 -19.598   5.210  0.00  0.00    +0.021 A 
ATOM     19  C   LIG    1       22.311 -19.012   3.944  0.00  0.00    +0.002 A 
ATOM     20  C   LIG    1       23.527 -18.933   3.270  0.00  0.00    +0.001 A 
ATOM     21  C   LIG    1       24.683 -19.450   3.855  0.00  0.00    +0.011 A 
ENDBRANCH   5  15
BRANCH   3  22
ATOM     22  O   LIG    1       29.255 -19.388   5.788  0.00  0.00    -0.364 OA
ATOM     23  H   LIG    1       28.826 -18.514   5.789  0.00  0.00    +0.212 HD
ENDBRANCH   3  22
TORSDOF 2
ENDMDL
MODEL 4
REMARK VINA RESULT:      -7.3      7.279      9.273
REMARK  Name = *****
REMARK                            x       y       z     vdW  Elec       q    Type
REMARK                         _______ _______ _______ _____ _____    ______ ____
ROOT
ATOM      1  O   LIG    1       24.066 -32.756   5.744  0.00  0.00    -0.271 OA
ATOM      2  C   LIG    1       24.632 -31.704   6.052  0.00  0.00    +0.269 C 
ATOM      3  C   LIG    1       26.064 -31.655   6.645  0.00  0.00    +0.320 C 
ATOM      4  N   LIG    1       25.976 -31.185   8.017  0.00  0.00    -0.243 NA
ATOM      5  C   LIG    1       25.648 -29.959   8.244  0.00  0.00    +0.079 C 
ATOM      6  C   LIG    1       25.321 -28.938   7.201  0.00  0.00    +0.023 A 
ATOM      7  C   LIG    1       24.472 -29.225   6.117  0.00  0.00    +0.043 A 
ATOM      8  C   LIG    1       24.012 -28.176   5.309  0.00  0.00    +0.025 A 
ATOM      9  C   LIG    1       24.452 -26.867   5.524  0.00  0.00    +0.022 A 
ATOM     10  C   LIG    1       25.342 -26.600   6.559  0.00  0.00    +0.042 A 
ATOM     11 CL   LIG    1       25.891 -24.992   6.819  0.00  0.00    -0.084 Cl
ATOM     12  C   LIG    1       25.774 -27.623   7.400  0.00  0.00    +0.032 A 
ATOM     13  N   LIG    1       24.013 -30.509   5.786  0.00  0.00    -0.281 N 
ATOM     14  H   LIG    1       23.193 -30.609   5.199  0.00  0.00    +0.155 HD
ENDROOT
BRANCH   5  15
ATOM     15  C   LIG    1       25.618 -29.543   9.679  0.00  0.00    +0.019 A 
ATOM     16  C   LIG    1       24.481 -29.656  10.490  0.00  0.00    +0.050 A 
ATOM     17 CL   LIG    1       23.000 -30.354   9.942  0.00  0.00    -0.083 Cl
ATOM     18  C   LIG    1       24.537 -29.226  11.820  0.00  0.00    +0.021 A 
ATOM     19  C   LIG    1       25.720 -28.701  12.344  0.00  0.00    +0.002 A 
ATOM     20  C   LIG    1       26.857 -28.612  11.545  0.00  0.00    +0.001 A 
ATOM     21  C   LIG    1       26.811 -29.037  10.217  0.00  0.00    +0.011 A 
ENDBRANCH   5  15
BRANCH   3  22
ATOM     22  O   LIG    1       26.680 -32.930   6.555  0.00  0.00    -0.364 OA
ATOM     23  H   LIG    1       26.710 -33.105   5.598  0.00  0.00    +0.212 HD
ENDBRANCH   3  22
TORSDOF 2
ENDMDL
MODEL 5
REMARK VINA RESULT:      -7.1      7.708      9.699
REMARK  Name = *****
REMARK                            x       y       z     vdW  Elec       q    Type
REMARK                         _______ _______ _______ _____ _____    ______ ____
ROOT
ATOM      1  O   LIG    1       24.124 -33.232   5.498  0.00  0.00    -0.271 OA
ATOM      2  C   LIG    1       24.614 -32.192   5.944  0.00  0.00    +0.269 C 
ATOM      3  C   LIG    1       25.842 -32.172   6.890  0.00  0.00    +0.320 C 
ATOM      4  N   LIG    1       25.410 -31.692   8.193  0.00  0.00    -0.243 NA
ATOM      5  C   LIG    1       25.063 -30.459   8.327  0.00  0.00    +0.079 C 
ATOM      6  C   LIG    1       25.044 -29.435   7.235  0.00  0.00    +0.023 A 
ATOM      7  C   LIG    1       24.502 -29.709   5.967  0.00  0.00    +0.043 A 
ATOM      8  C   LIG    1       24.294 -28.654   5.068  0.00  0.00    +0.025 A 
ATOM      9  C   LIG    1       24.693 -27.355   5.392  0.00  0.00    +0.022 A 
ATOM     10  C   LIG    1       25.288 -27.103   6.623  0.00  0.00    +0.042 A 
ATOM     11 CL   LIG    1       25.788 -25.506   7.018  0.00  0.00    -0.084 Cl
ATOM     12  C   LIG    1       25.461 -28.130   7.547  0.00  0.00    +0.032 A 
ATOM     13  N   LIG    1       24.115 -30.984   5.527  0.00  0.00    -0.281 N 
ATOM     14  H   LIG    1       23.475 -31.068   4.746  0.00  0.00    +0.155 HD
ENDROOT
BRANCH   5  15
ATOM     15  C   LIG    1       24.670 -30.034   9.704  0.00  0.00    +0.019 A 
ATOM     16  C   LIG    1       25.581 -29.541  10.648  0.00  0.00    +0.050 A 
ATOM     17 CL   LIG    1       27.256 -29.300  10.302  0.00  0.00    -0.083 Cl
ATOM     18  C   LIG    1       25.129 -29.182  11.922  0.00  0.00    +0.021 A 
ATOM     19  C   LIG    1       23.778 -29.300  12.252  0.00  0.00    +0.002 A 
ATOM     20  C   LIG    1       22.867 -29.768  11.306  0.00  0.00    +0.001 A 
ATOM     21  C   LIG    1       23.309 -30.129  10.033  0.00  0.00    +0.011 A 
ENDBRANCH   5  15
BRANCH   3  22
ATOM     22  O   LIG    1       26.431 -33.461   6.963  0.00  0.00    -0.364 OA
ATOM     23  H   LIG    1       25.678 -34.066   6.841  0.00  0.00    +0.212 HD
ENDBRANCH   3  22
TORSDOF 2
ENDMDL
MODEL 6
REMARK VINA RESULT:      -6.9      1.423      1.649
REMARK  Name = *****
REMARK                            x       y       z     vdW  Elec       q    Type
REMARK                         _______ _______ _______ _____ _____    ______ ____
ROOT
ATOM      1  O   LIG    1       29.049 -19.855   5.900  0.00  0.00    -0.271 OA
ATOM      2  C   LIG    1       27.866 -20.174   6.042  0.00  0.00    +0.269 C 
ATOM      3  C   LIG    1       27.297 -20.751   7.363  0.00  0.00    +0.320 C 
ATOM      4  N   LIG    1       26.907 -22.132   7.131  0.00  0.00    -0.243 NA
ATOM      5  C   LIG    1       25.893 -22.382   6.376  0.00  0.00    +0.079 C 
ATOM      6  C   LIG    1       25.053 -21.360   5.678  0.00  0.00    +0.023 A 
ATOM      7  C   LIG    1       25.623 -20.280   4.978  0.00  0.00    +0.043 A 
ATOM      8  C   LIG    1       24.809 -19.494   4.149  0.00  0.00    +0.025 A 
ATOM      9  C   LIG    1       23.433 -19.726   4.078  0.00  0.00    +0.022 A 
ATOM     10  C   LIG    1       22.867 -20.755   4.823  0.00  0.00    +0.042 A 
ATOM     11 CL   LIG    1       21.172 -21.034   4.743  0.00  0.00    -0.084 Cl
ATOM     12  C   LIG    1       23.666 -21.574   5.616  0.00  0.00    +0.032 A 
ATOM     13  N   LIG    1       26.982 -19.934   5.021  0.00  0.00    -0.281 N 
ATOM     14  H   LIG    1       27.371 -19.355   4.286  0.00  0.00    +0.155 HD
ENDROOT
BRANCH   5  15
ATOM     15  C   LIG    1       25.533 -23.824   6.218  0.00  0.00    +0.019 A 
ATOM     16  C   LIG    1       24.939 -24.348   5.062  0.00  0.00    +0.050 A 
ATOM     17 CL   LIG    1       24.619 -23.397   3.657  0.00  0.00    -0.083 Cl
ATOM     18  C   LIG    1       24.619 -25.708   5.006  0.00  0.00    +0.021 A 
ATOM     19  C   LIG    1       24.901 -26.545   6.087  0.00  0.00    +0.002 A 
ATOM     20  C   LIG    1       25.514 -26.031   7.227  0.00  0.00    +0.001 A 
ATOM     21  C   LIG    1       25.836 -24.675   7.293  0.00  0.00    +0.011 A 
ENDBRANCH   5  15
BRANCH   3  22
ATOM     22  O   LIG    1       28.252 -20.634   8.406  0.00  0.00    -0.364 OA
ATOM     23  H   LIG    1       28.306 -19.675   8.564  0.00  0.00    +0.212 HD
ENDBRANCH   3  22
TORSDOF 2
ENDMDL
MODEL 7
REMARK VINA RESULT:      -6.6      7.131     10.156
REMARK  Name = *****
REMARK                            x       y       z     vdW  Elec       q    Type
REMARK                         _______ _______ _______ _____ _____    ______ ____
ROOT
ATOM      1  O   LIG    1       27.436 -32.978   5.373  0.00  0.00    -0.271 OA
ATOM      2  C   LIG    1       26.512 -32.402   5.954  0.00  0.00    +0.269 C 
ATOM      3  C   LIG    1       25.265 -31.847   5.219  0.00  0.00    +0.320 C 
ATOM      4  N   LIG    1       25.286 -30.396   5.311  0.00  0.00    -0.243 NA
ATOM      5  C   LIG    1       25.085 -29.834   6.452  0.00  0.00    +0.079 C 
ATOM      6  C   LIG    1       24.838 -30.547   7.744  0.00  0.00    +0.023 A 
ATOM      7  C   LIG    1       25.611 -31.652   8.145  0.00  0.00    +0.043 A 
ATOM      8  C   LIG    1       25.495 -32.129   9.458  0.00  0.00    +0.025 A 
ATOM      9  C   LIG    1       24.567 -31.569  10.339  0.00  0.00    +0.022 A 
ATOM     10  C   LIG    1       23.760 -30.519   9.915  0.00  0.00    +0.042 A 
ATOM     11 CL   LIG    1       22.611 -29.836  10.996  0.00  0.00    -0.084 Cl
ATOM     12  C   LIG    1       23.893 -30.002   8.629  0.00  0.00    +0.032 A 
ATOM     13  N   LIG    1       26.534 -32.315   7.323  0.00  0.00    -0.281 N 
ATOM     14  H   LIG    1       27.253 -32.891   7.745  0.00  0.00    +0.155 HD
ENDROOT
BRANCH   5  15
ATOM     15  C   LIG    1       25.084 -28.339   6.455  0.00  0.00    +0.019 A 
ATOM     16  C   LIG    1       25.789 -27.570   7.391  0.00  0.00    +0.050 A 
ATOM     17 CL   LIG    1       26.799 -28.264   8.608  0.00  0.00    -0.083 Cl
ATOM     18  C   LIG    1       25.719 -26.174   7.331  0.00  0.00    +0.021 A 
ATOM     19  C   LIG    1       24.964 -25.547   6.338  0.00  0.00    +0.002 A 
ATOM     20  C   LIG    1       24.283 -26.311   5.393  0.00  0.00    +0.001 A 
ATOM     21  C   LIG    1       24.346 -27.703   5.445  0.00  0.00    +0.011 A 
ENDBRANCH   5  15
BRANCH   3  22
ATOM     22  O   LIG    1       25.242 -32.298   3.874  0.00  0.00    -0.364 OA
ATOM     23  H   LIG    1       25.632 -31.558   3.376  0.00  0.00    +0.212 HD
ENDBRANCH   3  22
TORSDOF 2
ENDMDL
MODEL 8
REMARK VINA RESULT:      -6.5      3.187      5.512
REMARK  Name = *****
REMARK                            x       y       z     vdW  Elec       q    Type
REMARK                         _______ _______ _______ _____ _____    ______ ____
ROOT
ATOM      1  O   LIG    1       22.478 -20.008   5.300  0.00  0.00    -0.271 OA
ATOM      2  C   LIG    1       23.211 -20.868   5.795  0.00  0.00    +0.269 C 
ATOM      3  C   LIG    1       23.619 -20.875   7.291  0.00  0.00    +0.320 C 
ATOM      4  N   LIG    1       25.047 -20.617   7.378  0.00  0.00    -0.243 NA
ATOM      5  C   LIG    1       25.876 -21.513   6.964  0.00  0.00    +0.079 C 
ATOM      6  C   LIG    1       25.505 -22.833   6.366  0.00  0.00    +0.023 A 
ATOM      7  C   LIG    1       24.501 -22.953   5.387  0.00  0.00    +0.043 A 
ATOM      8  C   LIG    1       24.360 -24.163   4.695  0.00  0.00    +0.025 A 
ATOM      9  C   LIG    1       25.150 -25.267   5.023  0.00  0.00    +0.022 A 
ATOM     10  C   LIG    1       26.097 -25.161   6.037  0.00  0.00    +0.042 A 
ATOM     11 CL   LIG    1       27.063 -26.522   6.448  0.00  0.00    -0.084 Cl
ATOM     12  C   LIG    1       26.283 -23.953   6.704  0.00  0.00    +0.032 A 
ATOM     13  N   LIG    1       23.625 -21.921   5.018  0.00  0.00    -0.281 N 
ATOM     14  H   LIG    1       23.142 -21.973   4.129  0.00  0.00    +0.155 HD
ENDROOT
BRANCH   5  15
ATOM     15  C   LIG    1       27.326 -21.188   7.124  0.00  0.00    +0.019 A 
ATOM     16  C   LIG    1       28.031 -20.359   6.242  0.00  0.00    +0.050 A 
ATOM     17 CL   LIG    1       27.287 -19.560   4.904  0.00  0.00    -0.083 Cl
ATOM     18  C   LIG    1       29.393 -20.122   6.458  0.00  0.00    +0.021 A 
ATOM     19  C   LIG    1       30.045 -20.693   7.552  0.00  0.00    +0.002 A 
ATOM     20  C   LIG    1       29.338 -21.498   8.443  0.00  0.00    +0.001 A 
ATOM     21  C   LIG    1       27.980 -21.741   8.236  0.00  0.00    +0.011 A 
ENDBRANCH   5  15
BRANCH   3  22
ATOM     22  O   LIG    1       22.858 -19.922   8.015  0.00  0.00    -0.364 OA
ATOM     23  H   LIG    1       22.323 -20.464   8.620  0.00  0.00    +0.212 HD
ENDBRANCH   3  22
TORSDOF 2
ENDMDL
MODEL 9
REMARK VINA RESULT:      -6.5      9.556     10.477
REMARK  Name = *****
REMARK                            x       y       z     vdW  Elec       q    Type
REMARK                         _______ _______ _______ _____ _____    ______ ____
ROOT
ATOM      1  O   LIG    1       29.507 -29.315  13.912  0.00  0.00    -0.271 OA
ATOM      2  C   LIG    1       28.281 -29.191  13.846  0.00  0.00    +0.269 C 
ATOM      3  C   LIG    1       27.297 -30.367  14.070  0.00  0.00    +0.320 C 
ATOM      4  N   LIG    1       26.628 -30.652  12.811  0.00  0.00    -0.243 NA
ATOM      5  C   LIG    1       25.783 -29.801  12.340  0.00  0.00    +0.079 C 
ATOM      6  C   LIG    1       25.418 -28.494  12.971  0.00  0.00    +0.023 A 
ATOM      7  C   LIG    1       26.390 -27.619  13.487  0.00  0.00    +0.043 A 
ATOM      8  C   LIG    1       26.017 -26.316  13.848  0.00  0.00    +0.025 A 
ATOM      9  C   LIG    1       24.682 -25.912  13.773  0.00  0.00    +0.022 A 
ATOM     10  C   LIG    1       23.716 -26.804  13.322  0.00  0.00    +0.042 A 
ATOM     11 CL   LIG    1       22.071 -26.311  13.239  0.00  0.00    -0.084 Cl
ATOM     12  C   LIG    1       24.074 -28.088  12.917  0.00  0.00    +0.032 A 
ATOM     13  N   LIG    1       27.745 -27.943  13.649  0.00  0.00    -0.281 N 
ATOM     14  H   LIG    1       28.428 -27.199  13.739  0.00  0.00    +0.155 HD
ENDROOT
BRANCH   5  15
ATOM     15  C   LIG    1       25.109 -30.185  11.063  0.00  0.00    +0.019 A 
ATOM     16  C   LIG    1       25.393 -29.581   9.830  0.00  0.00    +0.050 A 
ATOM     17 CL   LIG    1       26.608 -28.370   9.634  0.00  0.00    -0.083 Cl
ATOM     18  C   LIG    1       24.702 -29.991   8.685  0.00  0.00    +0.021 A 
ATOM     19  C   LIG    1       23.745 -31.004   8.763  0.00  0.00    +0.002 A 
ATOM     20  C   LIG    1       23.479 -31.621   9.983  0.00  0.00    +0.001 A 
ATOM     21  C   LIG    1       24.163 -31.219  11.130  0.00  0.00    +0.011 A 
ENDBRANCH   5  15
BRANCH   3  22
ATOM     22  O   LIG    1       27.986 -31.499  14.577  0.00  0.00    -0.364 OA
ATOM     23  H   LIG    1       27.477 -31.745  15.369  0.00  0.00    +0.212 HD
ENDBRANCH   3  22
TORSDOF 2
ENDMDL
