MODEL 1
REMARK VINA RESULT:      -3.8      0.000      0.000
REMARK  Name = *****
REMARK                            x       y       z     vdW  Elec       q    Type
REMARK                         _______ _______ _______ _____ _____    ______ ____
ROOT
ATOM      1  N   LIG    1       25.632 -16.149   3.373  0.00  0.00    -0.298 N 
ATOM      2  C   LIG    1       24.608 -17.042   3.801  0.00  0.00    +0.048 A 
ATOM      3  C   LIG    1       23.378 -16.574   4.309  0.00  0.00    +0.034 A 
ATOM      4  C   LIG    1       22.333 -17.464   4.623  0.00  0.00    +0.017 A 
ATOM      5  C   LIG    1       22.491 -18.837   4.469  0.00  0.00    +0.013 A 
ATOM      6  C   LIG    1       23.702 -19.341   3.999  0.00  0.00    +0.057 A 
ATOM      7  S   LIG    1       23.068 -14.859   4.659  0.00  0.00    -0.086 S 
ATOM      8  C   LIG    1       24.317 -14.068   3.673  0.00  0.00    +0.034 A 
ATOM      9  C   LIG    1       24.136 -12.690   3.441  0.00  0.00    +0.017 A 
ATOM     10  C   LIG    1       25.029 -11.978   2.655  0.00  0.00    +0.001 A 
ATOM     11  C   LIG    1       26.103 -12.639   2.081  0.00  0.00    +0.002 A 
ATOM     12  C   LIG    1       26.295 -14.004   2.322  0.00  0.00    +0.024 A 
ATOM     13  C   LIG    1       24.735 -18.441   3.666  0.00  0.00    +0.037 A 
ATOM     14  C   LIG    1       25.431 -14.755   3.149  0.00  0.00    +0.048 A 
ENDROOT
BRANCH   6  15
ATOM     15  C   LIG    1       23.927 -20.823   3.835  0.00  0.00    +0.417 C 
ATOM     16  F   LIG    1       23.939 -21.200   2.526  0.00  0.00    -0.166 F 
ATOM     17  F   LIG    1       22.952 -21.568   4.426  0.00  0.00    -0.166 F 
ATOM     18  F   LIG    1       25.103 -21.261   4.361  0.00  0.00    -0.166 F 
ENDBRANCH   6  15
BRANCH   1  19
ATOM     19  C   LIG    1       27.047 -16.622   3.439  0.00  0.00    +0.112 C 
BRANCH  19  20
ATOM     20  C   LIG    1       27.180 -17.889   4.291  0.00  0.00    +0.035 C 
BRANCH  20  21
ATOM     21  C   LIG    1       28.592 -18.076   4.879  0.00  0.00    +0.085 C 
BRANCH  21  23
ATOM     22  C   LIG    1       29.417 -18.997   6.985  0.00  0.00    +0.104 C 
ATOM     23  N   LIG    1       28.793 -19.290   5.692  0.00  0.00    -0.308 NA
ATOM     24  C   LIG    1       27.503 -19.958   5.922  0.00  0.00    +0.104 C 
ENDBRANCH  21  23
ENDBRANCH  20  21
ENDBRANCH  19  20
ENDBRANCH   1  19
TORSDOF 5
ENDMDL
MODEL 2
REMARK VINA RESULT:      -3.8      1.841      2.654
REMARK  Name = *****
REMARK                            x       y       z     vdW  Elec       q    Type
REMARK                         _______ _______ _______ _____ _____    ______ ____
ROOT
ATOM      1  N   LIG    1       25.390 -15.892   3.273  0.00  0.00    -0.298 N 
ATOM      2  C   LIG    1       24.483 -16.872   3.770  0.00  0.00    +0.048 A 
ATOM      3  C   LIG    1       23.255 -16.513   4.366  0.00  0.00    +0.034 A 
ATOM      4  C   LIG    1       22.319 -17.492   4.752  0.00  0.00    +0.017 A 
ATOM      5  C   LIG    1       22.588 -18.846   4.583  0.00  0.00    +0.013 A 
ATOM      6  C   LIG    1       23.802 -19.241   4.027  0.00  0.00    +0.057 A 
ATOM      7  S   LIG    1       22.820 -14.832   4.743  0.00  0.00    -0.086 S 
ATOM      8  C   LIG    1       23.919 -13.935   3.671  0.00  0.00    +0.034 A 
ATOM      9  C   LIG    1       23.600 -12.580   3.457  0.00  0.00    +0.017 A 
ATOM     10  C   LIG    1       24.367 -11.794   2.611  0.00  0.00    +0.001 A 
ATOM     11  C   LIG    1       25.452 -12.359   1.960  0.00  0.00    +0.002 A 
ATOM     12  C   LIG    1       25.782 -13.700   2.182  0.00  0.00    +0.024 A 
ATOM     13  C   LIG    1       24.725 -18.254   3.623  0.00  0.00    +0.037 A 
ATOM     14  C   LIG    1       25.050 -14.523   3.067  0.00  0.00    +0.048 A 
ENDROOT
BRANCH   6  15
ATOM     15  C   LIG    1       24.146 -20.699   3.842  0.00  0.00    +0.417 C 
ATOM     16  F   LIG    1       24.083 -21.081   2.537  0.00  0.00    -0.166 F 
ATOM     17  F   LIG    1       23.296 -21.525   4.513  0.00  0.00    -0.166 F 
ATOM     18  F   LIG    1       25.398 -21.025   4.267  0.00  0.00    -0.166 F 
ENDBRANCH   6  15
BRANCH   1  19
ATOM     19  C   LIG    1       26.842 -16.237   3.235  0.00  0.00    +0.112 C 
BRANCH  19  20
ATOM     20  C   LIG    1       27.614 -15.558   4.373  0.00  0.00    +0.035 C 
BRANCH  20  21
ATOM     21  C   LIG    1       28.267 -14.228   3.952  0.00  0.00    +0.085 C 
BRANCH  21  23
ATOM     22  C   LIG    1       27.002 -13.338   5.842  0.00  0.00    +0.104 C 
ATOM     23  N   LIG    1       27.758 -13.020   4.628  0.00  0.00    -0.308 NA
ATOM     24  C   LIG    1       28.879 -12.134   4.978  0.00  0.00    +0.104 C 
ENDBRANCH  21  23
ENDBRANCH  20  21
ENDBRANCH  19  20
ENDBRANCH   1  19
TORSDOF 5
ENDMDL
