MODEL 1
REMARK VINA RESULT:      -9.2      0.000      0.000
REMARK  Name = *****
REMARK                            x       y       z     vdW  Elec       q    Type
REMARK                         _______ _______ _______ _____ _____    ______ ____
ROOT
ATOM      1  N   LIG    1       25.267 -22.709   6.751  0.00  0.00    -0.288 N 
ENDROOT
BRANCH   1   6
ATOM      2  C   LIG    1       22.213 -18.494   4.239  0.00  0.00    +0.044 C 
ATOM      3  C   LIG    1       23.007 -19.591   4.881  0.00  0.00    -0.050 A 
ATOM      4  C   LIG    1       22.733 -20.000   6.188  0.00  0.00    +0.005 A 
ATOM      5  C   LIG    1       23.486 -21.017   6.795  0.00  0.00    +0.024 A 
ATOM      6  C   LIG    1       24.545 -21.656   6.125  0.00  0.00    +0.035 A 
ATOM      7  C   LIG    1       24.800 -21.228   4.810  0.00  0.00    +0.024 A 
ATOM      8  C   LIG    1       24.051 -20.214   4.198  0.00  0.00    +0.005 A 
ENDBRANCH   1   6
BRANCH   1   9
ATOM      9  C   LIG    1       25.206 -24.098   6.439  0.00  0.00    +0.038 A 
ATOM     10  C   LIG    1       26.364 -24.860   6.197  0.00  0.00    +0.069 A 
ATOM     11  C   LIG    1       26.290 -26.229   5.925  0.00  0.00    +0.119 A 
ATOM     12  C   LIG    1       25.067 -26.881   5.857  0.00  0.00    +0.045 A 
ATOM     13  C   LIG    1       23.905 -26.148   6.078  0.00  0.00    +0.005 A 
ATOM     14  C   LIG    1       23.976 -24.778   6.369  0.00  0.00    +0.024 A 
BRANCH  11  15
ATOM     15  O   LIG    1       27.460 -26.904   5.728  0.00  0.00    -0.507 OA
ATOM     16  H   LIG    1       28.181 -26.259   5.637  0.00  0.00    +0.292 HD
ENDBRANCH  11  15
ENDBRANCH   1   9
BRANCH   1  17
ATOM     17  C   LIG    1       25.986 -22.377   8.012  0.00  0.00    +0.238 C 
BRANCH  17  18
ATOM     18  C   LIG    1       27.168 -21.446   7.744  0.00  0.00    +0.299 C 
ATOM     19  N   LIG    1       28.113 -21.726   6.776  0.00  0.00    -0.232 N 
ATOM     20  H   LIG    1       27.749 -22.223   5.967  0.00  0.00    +0.291 HD
ATOM     21  C   LIG    1       28.868 -20.518   6.549  0.00  0.00    +0.273 C 
ATOM     22  C   LIG    1       28.585 -19.751   7.846  0.00  0.00    +0.333 C 
ATOM     23  N   LIG    1       27.339 -20.341   8.423  0.00  0.00    -0.082 NA
ENDBRANCH  17  18
ENDBRANCH   1  17
TORSDOF 5
ENDMDL
MODEL 2
REMARK VINA RESULT:      -8.6      2.053      5.063
REMARK  Name = *****
REMARK                            x       y       z     vdW  Elec       q    Type
REMARK                         _______ _______ _______ _____ _____    ______ ____
ROOT
ATOM      1  N   LIG    1       24.974 -22.258   6.665  0.00  0.00    -0.288 N 
ENDROOT
BRANCH   1   6
ATOM      2  C   LIG    1       25.803 -27.773   5.148  0.00  0.00    +0.044 C 
ATOM      3  C   LIG    1       25.589 -26.339   5.531  0.00  0.00    -0.050 A 
ATOM      4  C   LIG    1       25.906 -25.890   6.815  0.00  0.00    +0.005 A 
ATOM      5  C   LIG    1       25.692 -24.550   7.179  0.00  0.00    +0.024 A 
ATOM      6  C   LIG    1       25.144 -23.616   6.281  0.00  0.00    +0.035 A 
ATOM      7  C   LIG    1       24.836 -24.094   4.995  0.00  0.00    +0.024 A 
ATOM      8  C   LIG    1       25.048 -25.429   4.625  0.00  0.00    +0.005 A 
ENDBRANCH   1   6
BRANCH   1   9
ATOM      9  C   LIG    1       24.473 -21.193   5.863  0.00  0.00    +0.038 A 
ATOM     10  C   LIG    1       25.263 -20.560   4.885  0.00  0.00    +0.069 A 
ATOM     11  C   LIG    1       24.747 -19.538   4.083  0.00  0.00    +0.119 A 
ATOM     12  C   LIG    1       23.443 -19.092   4.242  0.00  0.00    +0.045 A 
ATOM     13  C   LIG    1       22.644 -19.690   5.212  0.00  0.00    +0.005 A 
ATOM     14  C   LIG    1       23.153 -20.728   6.007  0.00  0.00    +0.024 A 
BRANCH  11  15
ATOM     15  O   LIG    1       25.568 -18.993   3.138  0.00  0.00    -0.507 OA
ATOM     16  H   LIG    1       25.041 -18.412   2.564  0.00  0.00    +0.292 HD
ENDBRANCH  11  15
ENDBRANCH   1   9
BRANCH   1  17
ATOM     17  C   LIG    1       25.590 -21.840   7.955  0.00  0.00    +0.238 C 
BRANCH  17  18
ATOM     18  C   LIG    1       26.962 -21.204   7.730  0.00  0.00    +0.299 C 
ATOM     19  N   LIG    1       27.882 -21.744   6.853  0.00  0.00    -0.232 N 
ATOM     20  H   LIG    1       27.470 -22.203   6.045  0.00  0.00    +0.291 HD
ATOM     21  C   LIG    1       28.895 -20.744   6.623  0.00  0.00    +0.273 C 
ATOM     22  C   LIG    1       28.706 -19.850   7.854  0.00  0.00    +0.333 C 
ATOM     23  N   LIG    1       27.327 -20.119   8.363  0.00  0.00    -0.082 NA
ENDBRANCH  17  18
ENDBRANCH   1  17
TORSDOF 5
ENDMDL
MODEL 3
REMARK VINA RESULT:      -8.4      2.125      5.652
REMARK  Name = *****
REMARK                            x       y       z     vdW  Elec       q    Type
REMARK                         _______ _______ _______ _____ _____    ______ ____
ROOT
ATOM      1  N   LIG    1       26.185 -21.697   6.741  0.00  0.00    -0.288 N 
ENDROOT
BRANCH   1   6
ATOM      2  C   LIG    1       31.373 -19.215   7.319  0.00  0.00    +0.044 C 
ATOM      3  C   LIG    1       30.023 -19.849   7.165  0.00  0.00    -0.050 A 
ATOM      4  C   LIG    1       29.655 -20.942   7.953  0.00  0.00    +0.005 A 
ATOM      5  C   LIG    1       28.396 -21.546   7.799  0.00  0.00    +0.024 A 
ATOM      6  C   LIG    1       27.466 -21.090   6.849  0.00  0.00    +0.035 A 
ATOM      7  C   LIG    1       27.860 -19.987   6.070  0.00  0.00    +0.024 A 
ATOM      8  C   LIG    1       29.114 -19.379   6.219  0.00  0.00    +0.005 A 
ENDBRANCH   1   6
BRANCH   1   9
ATOM      9  C   LIG    1       25.052 -21.197   6.038  0.00  0.00    +0.038 A 
ATOM     10  C   LIG    1       24.982 -21.201   4.632  0.00  0.00    +0.069 A 
ATOM     11  C   LIG    1       23.850 -20.737   3.958  0.00  0.00    +0.119 A 
ATOM     12  C   LIG    1       22.761 -20.229   4.652  0.00  0.00    +0.045 A 
ATOM     13  C   LIG    1       22.808 -20.199   6.042  0.00  0.00    +0.005 A 
ATOM     14  C   LIG    1       23.936 -20.681   6.724  0.00  0.00    +0.024 A 
BRANCH  11  15
ATOM     15  O   LIG    1       23.850 -20.800   2.594  0.00  0.00    -0.507 OA
ATOM     16  H   LIG    1       23.670 -21.716   2.324  0.00  0.00    +0.292 HD
ENDBRANCH  11  15
ENDBRANCH   1   9
BRANCH   1  17
ATOM     17  C   LIG    1       25.911 -22.854   7.637  0.00  0.00    +0.238 C 
BRANCH  17  18
ATOM     18  C   LIG    1       25.499 -24.088   6.834  0.00  0.00    +0.299 C 
ATOM     19  N   LIG    1       24.182 -24.493   6.741  0.00  0.00    -0.232 N 
ATOM     20  H   LIG    1       23.508 -23.731   6.757  0.00  0.00    +0.291 HD
ATOM     21  C   LIG    1       24.100 -25.448   5.663  0.00  0.00    +0.273 C 
ATOM     22  C   LIG    1       25.563 -25.895   5.560  0.00  0.00    +0.333 C 
ATOM     23  N   LIG    1       26.379 -24.819   6.199  0.00  0.00    -0.082 NA
ENDBRANCH  17  18
ENDBRANCH   1  17
TORSDOF 5
ENDMDL
MODEL 4
REMARK VINA RESULT:      -8.2      2.240      4.952
REMARK  Name = *****
REMARK                            x       y       z     vdW  Elec       q    Type
REMARK                         _______ _______ _______ _____ _____    ______ ____
ROOT
ATOM      1  N   LIG    1       26.106 -21.247   7.104  0.00  0.00    -0.288 N 
ENDROOT
BRANCH   1   6
ATOM      2  C   LIG    1       21.797 -19.069   3.926  0.00  0.00    +0.044 C 
ATOM      3  C   LIG    1       22.910 -19.630   4.759  0.00  0.00    -0.050 A 
ATOM      4  C   LIG    1       24.172 -19.856   4.204  0.00  0.00    +0.005 A 
ATOM      5  C   LIG    1       25.210 -20.395   4.981  0.00  0.00    +0.024 A 
ATOM      6  C   LIG    1       25.026 -20.738   6.332  0.00  0.00    +0.035 A 
ATOM      7  C   LIG    1       23.748 -20.498   6.867  0.00  0.00    +0.024 A 
ATOM      8  C   LIG    1       22.707 -19.959   6.098  0.00  0.00    +0.005 A 
ENDBRANCH   1   6
BRANCH   1   9
ATOM      9  C   LIG    1       27.465 -20.821   7.069  0.00  0.00    +0.038 A 
ATOM     10  C   LIG    1       27.898 -19.773   6.235  0.00  0.00    +0.069 A 
ATOM     11  C   LIG    1       29.228 -19.345   6.236  0.00  0.00    +0.119 A 
ATOM     12  C   LIG    1       30.177 -19.957   7.043  0.00  0.00    +0.045 A 
ATOM     13  C   LIG    1       29.779 -21.005   7.867  0.00  0.00    +0.005 A 
ATOM     14  C   LIG    1       28.441 -21.426   7.881  0.00  0.00    +0.024 A 
BRANCH  11  15
ATOM     15  O   LIG    1       29.563 -18.304   5.419  0.00  0.00    -0.507 OA
ATOM     16  H   LIG    1       28.751 -17.839   5.157  0.00  0.00    +0.292 HD
ENDBRANCH  11  15
ENDBRANCH   1   9
BRANCH   1  17
ATOM     17  C   LIG    1       25.859 -22.506   7.860  0.00  0.00    +0.238 C 
BRANCH  17  18
ATOM     18  C   LIG    1       25.371 -23.619   6.933  0.00  0.00    +0.299 C 
ATOM     19  N   LIG    1       26.225 -24.275   6.067  0.00  0.00    -0.232 N 
ATOM     20  H   LIG    1       27.177 -24.372   6.412  0.00  0.00    +0.291 HD
ATOM     21  C   LIG    1       25.545 -25.461   5.608  0.00  0.00    +0.273 C 
ATOM     22  C   LIG    1       24.086 -25.087   5.892  0.00  0.00    +0.333 C 
ATOM     23  N   LIG    1       24.120 -24.000   6.916  0.00  0.00    -0.082 NA
ENDBRANCH  17  18
ENDBRANCH   1  17
TORSDOF 5
ENDMDL
MODEL 5
REMARK VINA RESULT:      -8.1      1.860      4.739
REMARK  Name = *****
REMARK                            x       y       z     vdW  Elec       q    Type
REMARK                         _______ _______ _______ _____ _____    ______ ____
ROOT
ATOM      1  N   LIG    1       25.984 -21.316   7.143  0.00  0.00    -0.288 N 
ENDROOT
BRANCH   1   6
ATOM      2  C   LIG    1       21.776 -19.075   3.875  0.00  0.00    +0.044 C 
ATOM      3  C   LIG    1       22.863 -19.652   4.731  0.00  0.00    -0.050 A 
ATOM      4  C   LIG    1       24.124 -19.924   4.196  0.00  0.00    +0.005 A 
ATOM      5  C   LIG    1       25.137 -20.478   4.994  0.00  0.00    +0.024 A 
ATOM      6  C   LIG    1       24.927 -20.790   6.349  0.00  0.00    +0.035 A 
ATOM      7  C   LIG    1       23.651 -20.505   6.864  0.00  0.00    +0.024 A 
ATOM      8  C   LIG    1       22.635 -19.950   6.073  0.00  0.00    +0.005 A 
ENDBRANCH   1   6
BRANCH   1   9
ATOM      9  C   LIG    1       27.349 -20.910   7.136  0.00  0.00    +0.038 A 
ATOM     10  C   LIG    1       28.293 -21.450   8.029  0.00  0.00    +0.069 A 
ATOM     11  C   LIG    1       29.636 -21.065   7.988  0.00  0.00    +0.119 A 
ATOM     12  C   LIG    1       30.082 -20.115   7.081  0.00  0.00    +0.045 A 
ATOM     13  C   LIG    1       29.167 -19.553   6.196  0.00  0.00    +0.005 A 
ATOM     14  C   LIG    1       27.821 -19.950   6.222  0.00  0.00    +0.024 A 
BRANCH  11  15
ATOM     15  O   LIG    1       30.495 -21.656   8.870  0.00  0.00    -0.507 OA
ATOM     16  H   LIG    1       30.614 -22.586   8.614  0.00  0.00    +0.292 HD
ENDBRANCH  11  15
ENDBRANCH   1   9
BRANCH   1  17
ATOM     17  C   LIG    1       25.703 -22.571   7.892  0.00  0.00    +0.238 C 
BRANCH  17  18
ATOM     18  C   LIG    1       25.270 -23.693   6.947  0.00  0.00    +0.299 C 
ATOM     19  N   LIG    1       26.171 -24.342   6.125  0.00  0.00    -0.232 N 
ATOM     20  H   LIG    1       27.106 -24.427   6.514  0.00  0.00    +0.291 HD
ATOM     21  C   LIG    1       25.525 -25.537   5.639  0.00  0.00    +0.273 C 
ATOM     22  C   LIG    1       24.050 -25.178   5.853  0.00  0.00    +0.333 C 
ATOM     23  N   LIG    1       24.025 -24.087   6.874  0.00  0.00    -0.082 NA
ENDBRANCH  17  18
ENDBRANCH   1  17
TORSDOF 5
ENDMDL
MODEL 6
REMARK VINA RESULT:      -7.9      2.087      5.656
REMARK  Name = *****
REMARK                            x       y       z     vdW  Elec       q    Type
REMARK                         _______ _______ _______ _____ _____    ______ ____
ROOT
ATOM      1  N   LIG    1       25.659 -21.736   6.788  0.00  0.00    -0.288 N 
ENDROOT
BRANCH   1   6
ATOM      2  C   LIG    1       24.289 -27.313   6.132  0.00  0.00    +0.044 C 
ATOM      3  C   LIG    1       24.635 -25.864   6.298  0.00  0.00    -0.050 A 
ATOM      4  C   LIG    1       25.969 -25.450   6.350  0.00  0.00    +0.005 A 
ATOM      5  C   LIG    1       26.293 -24.095   6.520  0.00  0.00    +0.024 A 
ATOM      6  C   LIG    1       25.302 -23.106   6.655  0.00  0.00    +0.035 A 
ATOM      7  C   LIG    1       23.968 -23.548   6.596  0.00  0.00    +0.024 A 
ATOM      8  C   LIG    1       23.637 -24.899   6.425  0.00  0.00    +0.005 A 
ENDBRANCH   1   6
BRANCH   1   9
ATOM      9  C   LIG    1       26.973 -21.196   6.887  0.00  0.00    +0.038 A 
ATOM     10  C   LIG    1       27.875 -21.602   7.887  0.00  0.00    +0.069 A 
ATOM     11  C   LIG    1       29.172 -21.086   7.951  0.00  0.00    +0.119 A 
ATOM     12  C   LIG    1       29.609 -20.132   7.044  0.00  0.00    +0.045 A 
ATOM     13  C   LIG    1       28.733 -19.701   6.052  0.00  0.00    +0.005 A 
ATOM     14  C   LIG    1       27.436 -20.229   5.974  0.00  0.00    +0.024 A 
BRANCH  11  15
ATOM     15  O   LIG    1       29.996 -21.552   8.935  0.00  0.00    -0.507 OA
ATOM     16  H   LIG    1       29.511 -21.545   9.777  0.00  0.00    +0.292 HD
ENDBRANCH  11  15
ENDBRANCH   1   9
BRANCH   1  17
ATOM     17  C   LIG    1       24.559 -20.779   7.089  0.00  0.00    +0.238 C 
BRANCH  17  18
ATOM     18  C   LIG    1       23.921 -20.250   5.805  0.00  0.00    +0.299 C 
ATOM     19  N   LIG    1       22.609 -19.818   5.766  0.00  0.00    -0.232 N 
ATOM     20  H   LIG    1       22.283 -19.392   6.629  0.00  0.00    +0.291 HD
ATOM     21  C   LIG    1       22.435 -19.083   4.537  0.00  0.00    +0.273 C 
ATOM     22  C   LIG    1       23.607 -19.620   3.708  0.00  0.00    +0.333 C 
ATOM     23  N   LIG    1       24.589 -20.185   4.682  0.00  0.00    -0.082 NA
ENDBRANCH  17  18
ENDBRANCH   1  17
TORSDOF 5
ENDMDL
MODEL 7
REMARK VINA RESULT:      -7.9      1.393      4.049
REMARK  Name = *****
REMARK                            x       y       z     vdW  Elec       q    Type
REMARK                         _______ _______ _______ _____ _____    ______ ____
ROOT
ATOM      1  N   LIG    1       25.107 -22.656   7.065  0.00  0.00    -0.288 N 
ENDROOT
BRANCH   1   6
ATOM      2  C   LIG    1       29.486 -18.935   6.453  0.00  0.00    +0.044 C 
ATOM      3  C   LIG    1       28.356 -19.906   6.618  0.00  0.00    -0.050 A 
ATOM      4  C   LIG    1       27.382 -20.042   5.626  0.00  0.00    +0.005 A 
ATOM      5  C   LIG    1       26.316 -20.941   5.788  0.00  0.00    +0.024 A 
ATOM      6  C   LIG    1       26.176 -21.727   6.946  0.00  0.00    +0.035 A 
ATOM      7  C   LIG    1       27.171 -21.573   7.927  0.00  0.00    +0.024 A 
ATOM      8  C   LIG    1       28.239 -20.678   7.772  0.00  0.00    +0.005 A 
ENDBRANCH   1   6
BRANCH   1   9
ATOM      9  C   LIG    1       25.088 -24.009   6.620  0.00  0.00    +0.038 A 
ATOM     10  C   LIG    1       26.270 -24.722   6.347  0.00  0.00    +0.069 A 
ATOM     11  C   LIG    1       26.236 -26.059   5.942  0.00  0.00    +0.119 A 
ATOM     12  C   LIG    1       25.031 -26.725   5.769  0.00  0.00    +0.045 A 
ATOM     13  C   LIG    1       23.846 -26.040   6.018  0.00  0.00    +0.005 A 
ATOM     14  C   LIG    1       23.876 -24.703   6.441  0.00  0.00    +0.024 A 
BRANCH  11  15
ATOM     15  O   LIG    1       27.427 -26.690   5.724  0.00  0.00    -0.507 OA
ATOM     16  H   LIG    1       27.787 -26.390   4.872  0.00  0.00    +0.292 HD
ENDBRANCH  11  15
ENDBRANCH   1   9
BRANCH   1  17
ATOM     17  C   LIG    1       23.785 -22.112   7.484  0.00  0.00    +0.238 C 
BRANCH  17  18
ATOM     18  C   LIG    1       23.176 -21.236   6.389  0.00  0.00    +0.299 C 
ATOM     19  N   LIG    1       22.669 -21.774   5.222  0.00  0.00    -0.232 N 
ATOM     20  H   LIG    1       22.256 -22.696   5.332  0.00  0.00    +0.291 HD
ATOM     21  C   LIG    1       21.883 -20.748   4.583  0.00  0.00    +0.273 C 
ATOM     22  C   LIG    1       22.457 -19.488   5.241  0.00  0.00    +0.333 C 
ATOM     23  N   LIG    1       23.111 -19.935   6.508  0.00  0.00    -0.082 NA
ENDBRANCH  17  18
ENDBRANCH   1  17
TORSDOF 5
ENDMDL
MODEL 8
REMARK VINA RESULT:      -7.7      2.491      6.064
REMARK  Name = *****
REMARK                            x       y       z     vdW  Elec       q    Type
REMARK                         _______ _______ _______ _____ _____    ______ ____
ROOT
ATOM      1  N   LIG    1       25.973 -21.224   6.399  0.00  0.00    -0.288 N 
ENDROOT
BRANCH   1   6
ATOM      2  C   LIG    1       31.395 -19.925   7.924  0.00  0.00    +0.044 C 
ATOM      3  C   LIG    1       29.990 -20.272   7.532  0.00  0.00    -0.050 A 
ATOM      4  C   LIG    1       29.351 -19.591   6.494  0.00  0.00    +0.005 A 
ATOM      5  C   LIG    1       28.029 -19.906   6.137  0.00  0.00    +0.024 A 
ATOM      6  C   LIG    1       27.296 -20.901   6.807  0.00  0.00    +0.035 A 
ATOM      7  C   LIG    1       27.964 -21.573   7.846  0.00  0.00    +0.024 A 
ATOM      8  C   LIG    1       29.283 -21.265   8.208  0.00  0.00    +0.005 A 
ENDBRANCH   1   6
BRANCH   1   9
ATOM      9  C   LIG    1       25.172 -20.528   5.449  0.00  0.00    +0.038 A 
ATOM     10  C   LIG    1       23.771 -20.451   5.567  0.00  0.00    +0.069 A 
ATOM     11  C   LIG    1       23.002 -19.737   4.645  0.00  0.00    +0.119 A 
ATOM     12  C   LIG    1       23.590 -19.100   3.562  0.00  0.00    +0.045 A 
ATOM     13  C   LIG    1       24.972 -19.172   3.412  0.00  0.00    +0.005 A 
ATOM     14  C   LIG    1       25.750 -19.873   4.346  0.00  0.00    +0.024 A 
BRANCH  11  15
ATOM     15  O   LIG    1       21.652 -19.686   4.845  0.00  0.00    -0.507 OA
ATOM     16  H   LIG    1       21.205 -19.818   3.992  0.00  0.00    +0.292 HD
ENDBRANCH  11  15
ENDBRANCH   1   9
BRANCH   1  17
ATOM     17  C   LIG    1       25.252 -22.250   7.202  0.00  0.00    +0.238 C 
BRANCH  17  18
ATOM     18  C   LIG    1       25.308 -23.620   6.525  0.00  0.00    +0.299 C 
ATOM     19  N   LIG    1       24.581 -23.900   5.384  0.00  0.00    -0.232 N 
ATOM     20  H   LIG    1       24.453 -23.105   4.763  0.00  0.00    +0.291 HD
ATOM     21  C   LIG    1       25.110 -25.120   4.826  0.00  0.00    +0.273 C 
ATOM     22  C   LIG    1       25.809 -25.721   6.050  0.00  0.00    +0.333 C 
ATOM     23  N   LIG    1       26.046 -24.590   6.999  0.00  0.00    -0.082 NA
ENDBRANCH  17  18
ENDBRANCH   1  17
TORSDOF 5
ENDMDL
MODEL 9
REMARK VINA RESULT:      -7.6      1.535      4.438
REMARK  Name = *****
REMARK                            x       y       z     vdW  Elec       q    Type
REMARK                         _______ _______ _______ _____ _____    ______ ____
ROOT
ATOM      1  N   LIG    1       25.478 -21.760   7.040  0.00  0.00    -0.288 N 
ENDROOT
BRANCH   1   6
ATOM      2  C   LIG    1       30.757 -19.421   6.765  0.00  0.00    +0.044 C 
ATOM      3  C   LIG    1       29.392 -20.036   6.841  0.00  0.00    -0.050 A 
ATOM      4  C   LIG    1       28.418 -19.731   5.888  0.00  0.00    +0.005 A 
ATOM      5  C   LIG    1       27.134 -20.296   5.968  0.00  0.00    +0.024 A 
ATOM      6  C   LIG    1       26.773 -21.174   7.006  0.00  0.00    +0.035 A 
ATOM      7  C   LIG    1       27.772 -21.466   7.951  0.00  0.00    +0.024 A 
ATOM      8  C   LIG    1       29.056 -20.907   7.876  0.00  0.00    +0.005 A 
ENDBRANCH   1   6
BRANCH   1   9
ATOM      9  C   LIG    1       25.132 -23.103   6.718  0.00  0.00    +0.038 A 
ATOM     10  C   LIG    1       26.102 -24.062   6.371  0.00  0.00    +0.069 A 
ATOM     11  C   LIG    1       25.750 -25.385   6.090  0.00  0.00    +0.119 A 
ATOM     12  C   LIG    1       24.425 -25.794   6.117  0.00  0.00    +0.045 A 
ATOM     13  C   LIG    1       23.443 -24.864   6.443  0.00  0.00    +0.005 A 
ATOM     14  C   LIG    1       23.794 -23.539   6.743  0.00  0.00    +0.024 A 
BRANCH  11  15
ATOM     15  O   LIG    1       26.753 -26.261   5.789  0.00  0.00    -0.507 OA
ATOM     16  H   LIG    1       26.359 -27.123   5.574  0.00  0.00    +0.292 HD
ENDBRANCH  11  15
ENDBRANCH   1   9
BRANCH   1  17
ATOM     17  C   LIG    1       24.324 -20.833   7.202  0.00  0.00    +0.238 C 
BRANCH  17  18
ATOM     18  C   LIG    1       23.803 -20.358   5.845  0.00  0.00    +0.299 C 
ATOM     19  N   LIG    1       22.620 -19.656   5.722  0.00  0.00    -0.232 N 
ATOM     20  H   LIG    1       22.407 -19.053   6.513  0.00  0.00    +0.291 HD
ATOM     21  C   LIG    1       22.598 -19.078   4.401  0.00  0.00    +0.273 C 
ATOM     22  C   LIG    1       23.611 -19.971   3.676  0.00  0.00    +0.333 C 
ATOM     23  N   LIG    1       24.455 -20.600   4.737  0.00  0.00    -0.082 NA
ENDBRANCH  17  18
ENDBRANCH   1  17
TORSDOF 5
ENDMDL
