MODEL 1
REMARK VINA RESULT:      -7.9      0.000      0.000
REMARK  Name = *****
REMARK                            x       y       z     vdW  Elec       q    Type
REMARK                         _______ _______ _______ _____ _____    ______ ____
ROOT
ATOM      1  C   LIG    1       29.276 -19.859   7.102  0.00  0.00    +0.341 C 
ATOM      2  O   LIG    1       29.334 -18.991   6.225  0.00  0.00    -0.247 OA
ENDROOT
BRANCH   1   3
ATOM      3  O   LIG    1       28.258 -20.761   7.232  0.00  0.00    -0.459 OA
BRANCH   3   8
ATOM      4  C   LIG    1       23.458 -20.610   7.110  0.00  0.00    +0.105 C 
ATOM      5  N   LIG    1       24.365 -21.740   7.182  0.00  0.00    -0.299 NA
ATOM      6  C   LIG    1       25.226 -21.795   8.364  0.00  0.00    +0.060 C 
ATOM      7  C   LIG    1       26.143 -20.565   8.478  0.00  0.00    +0.063 C 
ATOM      8  C   LIG    1       26.913 -20.216   7.189  0.00  0.00    +0.179 C 
ATOM      9  C   LIG    1       26.232 -20.690   5.893  0.00  0.00    +0.063 C 
ATOM     10  C   LIG    1       26.003 -23.080   8.066  0.00  0.00    +0.020 C 
ATOM     11  C   LIG    1       26.071 -23.142   6.538  0.00  0.00    +0.020 C 
ATOM     12  C   LIG    1       25.302 -21.903   6.069  0.00  0.00    +0.060 C 
ENDBRANCH   3   8
ENDBRANCH   1   3
BRANCH   1  13
ATOM     13  C   LIG    1       30.362 -20.033   8.182  0.00  0.00    +0.253 C 
BRANCH  13  14
ATOM     14  C   LIG    1       30.765 -18.765   8.910  0.00  0.00    -0.008 A 
ATOM     15  C   LIG    1       31.945 -18.095   8.541  0.00  0.00    +0.007 A 
ATOM     16  C   LIG    1       32.345 -16.929   9.201  0.00  0.00    +0.000 A 
ATOM     17  C   LIG    1       31.555 -16.398  10.217  0.00  0.00    +0.000 A 
ATOM     18  C   LIG    1       30.359 -17.021  10.559  0.00  0.00    +0.000 A 
ATOM     19  C   LIG    1       29.961 -18.191   9.906  0.00  0.00    +0.007 A 
ENDBRANCH  13  14
BRANCH  13  20
ATOM     20  O   LIG    1       31.558 -20.597   7.634  0.00  0.00    -0.376 OA
ATOM     21  H   LIG    1       32.227 -20.545   8.343  0.00  0.00    +0.211 HD
ENDBRANCH  13  20
ENDBRANCH   1  13
TORSDOF 5
ENDMDL
MODEL 2
REMARK VINA RESULT:      -7.6      1.451      2.754
REMARK  Name = *****
REMARK                            x       y       z     vdW  Elec       q    Type
REMARK                         _______ _______ _______ _____ _____    ______ ____
ROOT
ATOM      1  C   LIG    1       27.947 -20.902   7.661  0.00  0.00    +0.341 C 
ATOM      2  O   LIG    1       28.221 -21.663   8.594  0.00  0.00    -0.247 OA
ENDROOT
BRANCH   1   3
ATOM      3  O   LIG    1       26.679 -20.615   7.242  0.00  0.00    -0.459 OA
BRANCH   3   8
ATOM      4  C   LIG    1       22.701 -23.271   6.801  0.00  0.00    +0.105 C 
ATOM      5  N   LIG    1       23.241 -22.232   5.945  0.00  0.00    -0.299 NA
ATOM      6  C   LIG    1       24.560 -22.499   5.370  0.00  0.00    +0.060 C 
ATOM      7  C   LIG    1       25.638 -22.701   6.448  0.00  0.00    +0.063 C 
ATOM      8  C   LIG    1       25.668 -21.613   7.540  0.00  0.00    +0.179 C 
ATOM      9  C   LIG    1       24.323 -20.899   7.762  0.00  0.00    +0.063 C 
ATOM     10  C   LIG    1       24.765 -21.210   4.570  0.00  0.00    +0.020 C 
ATOM     11  C   LIG    1       24.002 -20.142   5.359  0.00  0.00    +0.020 C 
ATOM     12  C   LIG    1       23.389 -20.902   6.539  0.00  0.00    +0.060 C 
ENDBRANCH   3   8
ENDBRANCH   1   3
BRANCH   1  13
ATOM     13  C   LIG    1       29.023 -20.168   6.835  0.00  0.00    +0.253 C 
BRANCH  13  14
ATOM     14  C   LIG    1       29.928 -19.240   7.622  0.00  0.00    -0.008 A 
ATOM     15  C   LIG    1       29.396 -18.481   8.680  0.00  0.00    +0.007 A 
ATOM     16  C   LIG    1       30.205 -17.610   9.416  0.00  0.00    +0.000 A 
ATOM     17  C   LIG    1       31.563 -17.510   9.128  0.00  0.00    +0.000 A 
ATOM     18  C   LIG    1       32.115 -18.293   8.117  0.00  0.00    +0.000 A 
ATOM     19  C   LIG    1       31.306 -19.158   7.375  0.00  0.00    +0.007 A 
ENDBRANCH  13  14
BRANCH  13  20
ATOM     20  O   LIG    1       28.436 -19.389   5.787  0.00  0.00    -0.376 OA
ATOM     21  H   LIG    1       27.516 -19.704   5.704  0.00  0.00    +0.211 HD
ENDBRANCH  13  20
ENDBRANCH   1  13
TORSDOF 5
ENDMDL
MODEL 3
REMARK VINA RESULT:      -7.5      2.402      6.952
REMARK  Name = *****
REMARK                            x       y       z     vdW  Elec       q    Type
REMARK                         _______ _______ _______ _____ _____    ______ ____
ROOT
ATOM      1  C   LIG    1       27.373 -21.083   7.168  0.00  0.00    +0.341 C 
ATOM      2  O   LIG    1       26.875 -20.301   6.352  0.00  0.00    -0.247 OA
ENDROOT
BRANCH   1   3
ATOM      3  O   LIG    1       28.709 -21.352   7.267  0.00  0.00    -0.459 OA
BRANCH   3   8
ATOM      4  C   LIG    1       31.510 -18.144   9.489  0.00  0.00    +0.105 C 
ATOM      5  N   LIG    1       31.122 -18.252   8.095  0.00  0.00    -0.299 NA
ATOM      6  C   LIG    1       29.689 -18.146   7.820  0.00  0.00    +0.060 C 
ATOM      7  C   LIG    1       28.874 -19.243   8.528  0.00  0.00    +0.063 C 
ATOM      8  C   LIG    1       29.418 -20.672   8.336  0.00  0.00    +0.179 C 
ATOM      9  C   LIG    1       30.928 -20.745   8.047  0.00  0.00    +0.063 C 
ATOM     10  C   LIG    1       29.699 -18.312   6.299  0.00  0.00    +0.020 C 
ATOM     11  C   LIG    1       30.902 -19.216   6.019  0.00  0.00    +0.020 C 
ATOM     12  C   LIG    1       31.514 -19.479   7.399  0.00  0.00    +0.060 C 
ENDBRANCH   3   8
ENDBRANCH   1   3
BRANCH   1  13
ATOM     13  C   LIG    1       26.533 -21.873   8.192  0.00  0.00    +0.253 C 
BRANCH  13  14
ATOM     14  C   LIG    1       25.404 -22.700   7.609  0.00  0.00    -0.008 A 
ATOM     15  C   LIG    1       24.114 -22.149   7.516  0.00  0.00    +0.007 A 
ATOM     16  C   LIG    1       23.052 -22.893   6.991  0.00  0.00    +0.000 A 
ATOM     17  C   LIG    1       23.272 -24.184   6.521  0.00  0.00    +0.000 A 
ATOM     18  C   LIG    1       24.554 -24.725   6.560  0.00  0.00    +0.000 A 
ATOM     19  C   LIG    1       25.615 -23.986   7.092  0.00  0.00    +0.007 A 
ENDBRANCH  13  14
BRANCH  13  20
ATOM     20  O   LIG    1       25.952 -21.004   9.171  0.00  0.00    -0.376 OA
ATOM     21  H   LIG    1       25.018 -20.894   8.909  0.00  0.00    +0.211 HD
ENDBRANCH  13  20
ENDBRANCH   1  13
TORSDOF 5
ENDMDL
MODEL 4
REMARK VINA RESULT:      -7.5      1.281      2.627
REMARK  Name = *****
REMARK                            x       y       z     vdW  Elec       q    Type
REMARK                         _______ _______ _______ _____ _____    ______ ____
ROOT
ATOM      1  C   LIG    1       27.874 -20.057   6.428  0.00  0.00    +0.341 C 
ATOM      2  O   LIG    1       28.284 -19.573   5.368  0.00  0.00    -0.247 OA
ENDROOT
BRANCH   1   3
ATOM      3  O   LIG    1       26.557 -20.259   6.729  0.00  0.00    -0.459 OA
BRANCH   3   8
ATOM      4  C   LIG    1       23.585 -24.032   6.639  0.00  0.00    +0.105 C 
ATOM      5  N   LIG    1       23.306 -22.610   6.572  0.00  0.00    -0.299 NA
ATOM      6  C   LIG    1       23.881 -21.899   5.428  0.00  0.00    +0.060 C 
ATOM      7  C   LIG    1       25.416 -21.988   5.396  0.00  0.00    +0.063 C 
ATOM      8  C   LIG    1       26.108 -21.640   6.729  0.00  0.00    +0.179 C 
ATOM      9  C   LIG    1       25.238 -21.874   7.977  0.00  0.00    +0.063 C 
ATOM     10  C   LIG    1       23.381 -20.482   5.720  0.00  0.00    +0.020 C 
ATOM     11  C   LIG    1       23.294 -20.411   7.246  0.00  0.00    +0.020 C 
ATOM     12  C   LIG    1       23.723 -21.804   7.720  0.00  0.00    +0.060 C 
ENDBRANCH   3   8
ENDBRANCH   1   3
BRANCH   1  13
ATOM     13  C   LIG    1       28.815 -20.497   7.568  0.00  0.00    +0.253 C 
BRANCH  13  14
ATOM     14  C   LIG    1       29.792 -19.442   8.049  0.00  0.00    -0.008 A 
ATOM     15  C   LIG    1       29.405 -18.542   9.058  0.00  0.00    +0.007 A 
ATOM     16  C   LIG    1       30.283 -17.554   9.513  0.00  0.00    +0.000 A 
ATOM     17  C   LIG    1       31.570 -17.470   8.991  0.00  0.00    +0.000 A 
ATOM     18  C   LIG    1       31.985 -18.386   8.028  0.00  0.00    +0.000 A 
ATOM     19  C   LIG    1       31.107 -19.370   7.565  0.00  0.00    +0.007 A 
ENDBRANCH  13  14
BRANCH  13  20
ATOM     20  O   LIG    1       29.589 -21.642   7.193  0.00  0.00    -0.376 OA
ATOM     21  H   LIG    1       30.244 -21.322   6.545  0.00  0.00    +0.211 HD
ENDBRANCH  13  20
ENDBRANCH   1  13
TORSDOF 5
ENDMDL
MODEL 5
REMARK VINA RESULT:      -7.3      4.786      8.621
REMARK  Name = *****
REMARK                            x       y       z     vdW  Elec       q    Type
REMARK                         _______ _______ _______ _____ _____    ______ ____
ROOT
ATOM      1  C   LIG    1       25.516 -25.283   6.363  0.00  0.00    +0.341 C 
ATOM      2  O   LIG    1       26.646 -25.583   5.965  0.00  0.00    -0.247 OA
ENDROOT
BRANCH   1   3
ATOM      3  O   LIG    1       25.178 -24.068   6.890  0.00  0.00    -0.459 OA
BRANCH   3   8
ATOM      4  C   LIG    1       22.632 -20.354   5.217  0.00  0.00    +0.105 C 
ATOM      5  N   LIG    1       23.835 -20.384   6.028  0.00  0.00    -0.299 NA
ATOM      6  C   LIG    1       25.004 -21.013   5.412  0.00  0.00    +0.060 C 
ATOM      7  C   LIG    1       24.753 -22.487   5.050  0.00  0.00    +0.063 C 
ATOM      8  C   LIG    1       24.143 -23.333   6.185  0.00  0.00    +0.179 C 
ATOM      9  C   LIG    1       23.327 -22.528   7.211  0.00  0.00    +0.063 C 
ATOM     10  C   LIG    1       26.018 -20.853   6.548  0.00  0.00    +0.020 C 
ATOM     11  C   LIG    1       25.175 -20.896   7.825  0.00  0.00    +0.020 C 
ATOM     12  C   LIG    1       23.733 -21.048   7.328  0.00  0.00    +0.060 C 
ENDBRANCH   3   8
ENDBRANCH   1   3
BRANCH   1  13
ATOM     13  C   LIG    1       24.324 -26.260   6.319  0.00  0.00    +0.253 C 
BRANCH  13  14
ATOM     14  C   LIG    1       24.684 -27.730   6.418  0.00  0.00    -0.008 A 
ATOM     15  C   LIG    1       24.765 -28.507   5.249  0.00  0.00    +0.007 A 
ATOM     16  C   LIG    1       25.086 -29.867   5.311  0.00  0.00    +0.000 A 
ATOM     17  C   LIG    1       25.362 -30.461   6.539  0.00  0.00    +0.000 A 
ATOM     18  C   LIG    1       25.336 -29.694   7.700  0.00  0.00    +0.000 A 
ATOM     19  C   LIG    1       25.008 -28.336   7.641  0.00  0.00    +0.007 A 
ENDBRANCH  13  14
BRANCH  13  20
ATOM     20  O   LIG    1       23.559 -26.098   5.120  0.00  0.00    -0.376 OA
ATOM     21  H   LIG    1       22.756 -25.607   5.379  0.00  0.00    +0.211 HD
ENDBRANCH  13  20
ENDBRANCH   1  13
TORSDOF 5
ENDMDL
MODEL 6
REMARK VINA RESULT:      -7.3      5.526      7.000
REMARK  Name = *****
REMARK                            x       y       z     vdW  Elec       q    Type
REMARK                         _______ _______ _______ _____ _____    ______ ____
ROOT
ATOM      1  C   LIG    1       25.547 -22.907   6.557  0.00  0.00    +0.341 C 
ATOM      2  O   LIG    1       26.647 -22.549   6.990  0.00  0.00    -0.247 OA
ENDROOT
BRANCH   1   3
ATOM      3  O   LIG    1       25.334 -24.041   5.827  0.00  0.00    -0.459 OA
BRANCH   3   8
ATOM      4  C   LIG    1       24.380 -28.565   7.133  0.00  0.00    +0.105 C 
ATOM      5  N   LIG    1       25.303 -28.044   6.142  0.00  0.00    -0.299 NA
ATOM      6  C   LIG    1       26.363 -27.173   6.652  0.00  0.00    +0.060 C 
ATOM      7  C   LIG    1       25.806 -25.919   7.349  0.00  0.00    +0.063 C 
ATOM      8  C   LIG    1       24.738 -25.156   6.541  0.00  0.00    +0.179 C 
ATOM      9  C   LIG    1       23.960 -26.024   5.536  0.00  0.00    +0.063 C 
ATOM     10  C   LIG    1       27.086 -26.844   5.344  0.00  0.00    +0.020 C 
ATOM     11  C   LIG    1       25.990 -26.888   4.277  0.00  0.00    +0.020 C 
ATOM     12  C   LIG    1       24.720 -27.268   5.046  0.00  0.00    +0.060 C 
ENDBRANCH   3   8
ENDBRANCH   1   3
BRANCH   1  13
ATOM     13  C   LIG    1       24.253 -22.100   6.787  0.00  0.00    +0.253 C 
BRANCH  13  14
ATOM     14  C   LIG    1       23.976 -21.012   5.767  0.00  0.00    -0.008 A 
ATOM     15  C   LIG    1       24.914 -20.752   4.753  0.00  0.00    +0.007 A 
ATOM     16  C   LIG    1       24.689 -19.748   3.806  0.00  0.00    +0.000 A 
ATOM     17  C   LIG    1       23.508 -19.013   3.838  0.00  0.00    +0.000 A 
ATOM     18  C   LIG    1       22.546 -19.292   4.805  0.00  0.00    +0.000 A 
ATOM     19  C   LIG    1       22.774 -20.290   5.758  0.00  0.00    +0.007 A 
ENDBRANCH  13  14
BRANCH  13  20
ATOM     20  O   LIG    1       24.249 -21.475   8.075  0.00  0.00    -0.376 OA
ATOM     21  H   LIG    1       23.326 -21.203   8.237  0.00  0.00    +0.211 HD
ENDBRANCH  13  20
ENDBRANCH   1  13
TORSDOF 5
ENDMDL
MODEL 7
REMARK VINA RESULT:      -7.3      1.799      2.482
REMARK  Name = *****
REMARK                            x       y       z     vdW  Elec       q    Type
REMARK                         _______ _______ _______ _____ _____    ______ ____
ROOT
ATOM      1  C   LIG    1       27.593 -21.413   7.593  0.00  0.00    +0.341 C 
ATOM      2  O   LIG    1       27.433 -21.463   8.816  0.00  0.00    -0.247 OA
ENDROOT
BRANCH   1   3
ATOM      3  O   LIG    1       26.623 -21.690   6.672  0.00  0.00    -0.459 OA
BRANCH   3   8
ATOM      4  C   LIG    1       22.527 -19.543   5.371  0.00  0.00    +0.105 C 
ATOM      5  N   LIG    1       22.895 -20.946   5.382  0.00  0.00    -0.299 NA
ATOM      6  C   LIG    1       23.230 -21.509   6.690  0.00  0.00    +0.060 C 
ATOM      7  C   LIG    1       24.428 -20.798   7.344  0.00  0.00    +0.063 C 
ATOM      8  C   LIG    1       25.656 -20.635   6.427  0.00  0.00    +0.179 C 
ATOM      9  C   LIG    1       25.329 -20.607   4.924  0.00  0.00    +0.063 C 
ATOM     10  C   LIG    1       23.554 -22.949   6.283  0.00  0.00    +0.020 C 
ATOM     11  C   LIG    1       24.104 -22.831   4.859  0.00  0.00    +0.020 C 
ATOM     12  C   LIG    1       24.028 -21.334   4.541  0.00  0.00    +0.060 C 
ENDBRANCH   3   8
ENDBRANCH   1   3
BRANCH   1  13
ATOM     13  C   LIG    1       28.936 -21.028   6.939  0.00  0.00    +0.253 C 
BRANCH  13  14
ATOM     14  C   LIG    1       29.796 -20.067   7.736  0.00  0.00    -0.008 A 
ATOM     15  C   LIG    1       30.880 -20.559   8.485  0.00  0.00    +0.007 A 
ATOM     16  C   LIG    1       31.684 -19.697   9.237  0.00  0.00    +0.000 A 
ATOM     17  C   LIG    1       31.437 -18.328   9.226  0.00  0.00    +0.000 A 
ATOM     18  C   LIG    1       30.399 -17.819   8.450  0.00  0.00    +0.000 A 
ATOM     19  C   LIG    1       29.589 -18.680   7.704  0.00  0.00    +0.007 A 
ENDBRANCH  13  14
BRANCH  13  20
ATOM     20  O   LIG    1       28.738 -20.438   5.649  0.00  0.00    -0.376 OA
ATOM     21  H   LIG    1       27.813 -20.632   5.405  0.00  0.00    +0.211 HD
ENDBRANCH  13  20
ENDBRANCH   1  13
TORSDOF 5
ENDMDL
MODEL 8
REMARK VINA RESULT:      -7.2      2.130      3.592
REMARK  Name = *****
REMARK                            x       y       z     vdW  Elec       q    Type
REMARK                         _______ _______ _______ _____ _____    ______ ____
ROOT
ATOM      1  C   LIG    1       26.764 -20.728   7.508  0.00  0.00    +0.341 C 
ATOM      2  O   LIG    1       26.624 -21.008   8.702  0.00  0.00    -0.247 OA
ENDROOT
BRANCH   1   3
ATOM      3  O   LIG    1       25.770 -20.251   6.702  0.00  0.00    -0.459 OA
BRANCH   3   8
ATOM      4  C   LIG    1       21.603 -21.971   5.042  0.00  0.00    +0.105 C 
ATOM      5  N   LIG    1       22.458 -20.916   4.532  0.00  0.00    -0.299 NA
ATOM      6  C   LIG    1       23.809 -21.320   4.141  0.00  0.00    +0.060 C 
ATOM      7  C   LIG    1       24.603 -21.919   5.315  0.00  0.00    +0.063 C 
ATOM      8  C   LIG    1       24.578 -21.075   6.605  0.00  0.00    +0.179 C 
ATOM      9  C   LIG    1       23.342 -20.170   6.749  0.00  0.00    +0.063 C 
ATOM     10  C   LIG    1       24.367 -19.970   3.684  0.00  0.00    +0.020 C 
ATOM     11  C   LIG    1       23.633 -18.939   4.546  0.00  0.00    +0.020 C 
ATOM     12  C   LIG    1       22.685 -19.771   5.416  0.00  0.00    +0.060 C 
ENDBRANCH   3   8
ENDBRANCH   1   3
BRANCH   1  13
ATOM     13  C   LIG    1       28.105 -20.887   6.762  0.00  0.00    +0.253 C 
BRANCH  13  14
ATOM     14  C   LIG    1       29.308 -20.268   7.446  0.00  0.00    -0.008 A 
ATOM     15  C   LIG    1       30.152 -21.071   8.233  0.00  0.00    +0.007 A 
ATOM     16  C   LIG    1       31.263 -20.523   8.883  0.00  0.00    +0.000 A 
ATOM     17  C   LIG    1       31.564 -19.174   8.729  0.00  0.00    +0.000 A 
ATOM     18  C   LIG    1       30.768 -18.376   7.912  0.00  0.00    +0.000 A 
ATOM     19  C   LIG    1       29.652 -18.919   7.268  0.00  0.00    +0.007 A 
ENDBRANCH  13  14
BRANCH  13  20
ATOM     20  O   LIG    1       28.039 -20.328   5.446  0.00  0.00    -0.376 OA
ATOM     21  H   LIG    1       28.372 -21.020   4.844  0.00  0.00    +0.211 HD
ENDBRANCH  13  20
ENDBRANCH   1  13
TORSDOF 5
ENDMDL
MODEL 9
REMARK VINA RESULT:      -7.2      4.353      8.468
REMARK  Name = *****
REMARK                            x       y       z     vdW  Elec       q    Type
REMARK                         _______ _______ _______ _____ _____    ______ ____
ROOT
ATOM      1  C   LIG    1       24.436 -25.099   5.962  0.00  0.00    +0.341 C 
ATOM      2  O   LIG    1       23.288 -25.228   6.397  0.00  0.00    -0.247 OA
ENDROOT
BRANCH   1   3
ATOM      3  O   LIG    1       25.106 -23.911   5.883  0.00  0.00    -0.459 OA
BRANCH   3   8
ATOM      4  C   LIG    1       25.971 -20.388   9.031  0.00  0.00    +0.105 C 
ATOM      5  N   LIG    1       25.699 -20.335   7.607  0.00  0.00    -0.299 NA
ATOM      6  C   LIG    1       24.398 -20.854   7.185  0.00  0.00    +0.060 C 
ATOM      7  C   LIG    1       24.213 -22.337   7.552  0.00  0.00    +0.063 C 
ATOM      8  C   LIG    1       25.385 -23.251   7.145  0.00  0.00    +0.179 C 
ATOM      9  C   LIG    1       26.743 -22.534   7.035  0.00  0.00    +0.063 C 
ATOM     10  C   LIG    1       24.503 -20.633   5.674  0.00  0.00    +0.020 C 
ATOM     11  C   LIG    1       25.996 -20.768   5.368  0.00  0.00    +0.020 C 
ATOM     12  C   LIG    1       26.645 -21.029   6.732  0.00  0.00    +0.060 C 
ENDBRANCH   3   8
ENDBRANCH   1   3
BRANCH   1  13
ATOM     13  C   LIG    1       25.272 -26.285   5.440  0.00  0.00    +0.253 C 
BRANCH  13  14
ATOM     14  C   LIG    1       25.013 -27.614   6.122  0.00  0.00    -0.008 A 
ATOM     15  C   LIG    1       24.286 -28.613   5.451  0.00  0.00    +0.007 A 
ATOM     16  C   LIG    1       24.024 -29.844   6.060  0.00  0.00    +0.000 A 
ATOM     17  C   LIG    1       24.514 -30.107   7.336  0.00  0.00    +0.000 A 
ATOM     18  C   LIG    1       25.279 -29.148   7.994  0.00  0.00    +0.000 A 
ATOM     19  C   LIG    1       25.534 -27.913   7.390  0.00  0.00    +0.007 A 
ENDBRANCH  13  14
BRANCH  13  20
ATOM     20  O   LIG    1       26.676 -26.025   5.553  0.00  0.00    -0.376 OA
ATOM     21  H   LIG    1       27.121 -26.873   5.366  0.00  0.00    +0.211 HD
ENDBRANCH  13  20
ENDBRANCH   1  13
TORSDOF 5
ENDMDL
