MODEL 1
REMARK VINA RESULT:      -8.9      0.000      0.000
REMARK  Name = *****
REMARK                            x       y       z     vdW  Elec       q    Type
REMARK                         _______ _______ _______ _____ _____    ______ ____
ROOT
ATOM      1  C   LIG    1       24.802 -23.216   5.710  0.00  0.00    +0.117 C 
ENDROOT
BRANCH   1   2
ATOM      2  N   LIG    1       23.726 -22.259   5.343  0.00  0.00    -0.310 NA
ATOM      3  H   LIG    1       23.653 -22.285   4.319  0.00  0.00    +0.122 HD
BRANCH   2   5
ATOM      4  C   LIG    1       22.813 -19.926   5.383  0.00  0.00    +0.024 C 
ATOM      5  C   LIG    1       23.984 -20.860   5.753  0.00  0.00    +0.055 C 
BRANCH   5   6
ATOM      6  C   LIG    1       25.290 -20.296   5.102  0.00  0.00    +0.053 C 
BRANCH   6   7
ATOM      7  C   LIG    1       26.511 -20.197   6.002  0.00  0.00    -0.046 A 
ATOM      8  C   LIG    1       26.408 -20.467   7.378  0.00  0.00    +0.007 A 
ATOM      9  C   LIG    1       27.530 -20.347   8.209  0.00  0.00    +0.045 A 
ATOM     10  C   LIG    1       28.750 -19.968   7.680  0.00  0.00    +0.117 A 
ATOM     11  C   LIG    1       28.889 -19.742   6.312  0.00  0.00    +0.045 A 
ATOM     12  C   LIG    1       27.766 -19.860   5.481  0.00  0.00    +0.007 A 
BRANCH  10  13
ATOM     13  O   LIG    1       29.804 -19.819   8.538  0.00  0.00    -0.507 OA
ATOM     14  H   LIG    1       30.613 -19.707   8.021  0.00  0.00    +0.292 HD
ENDBRANCH  10  13
ENDBRANCH   6   7
ENDBRANCH   5   6
ENDBRANCH   2   5
ENDBRANCH   1   2
BRANCH   1  15
ATOM     15  C   LIG    1       24.279 -24.433   6.537  0.00  0.00    +0.158 C 
BRANCH  15  16
ATOM     16  C   LIG    1       24.765 -25.790   6.035  0.00  0.00    -0.011 A 
ATOM     17  C   LIG    1       23.925 -26.918   6.039  0.00  0.00    +0.051 A 
ATOM     18  C   LIG    1       24.385 -28.147   5.568  0.00  0.00    +0.121 A 
ATOM     19  C   LIG    1       25.683 -28.297   5.098  0.00  0.00    +0.090 A 
ATOM     20  C   LIG    1       26.530 -27.195   5.122  0.00  0.00    +0.121 A 
ATOM     21  C   LIG    1       26.090 -25.954   5.587  0.00  0.00    +0.051 A 
BRANCH  18  22
ATOM     22  O   LIG    1       23.518 -29.202   5.584  0.00  0.00    -0.507 OA
ATOM     23  H   LIG    1       22.945 -29.120   6.364  0.00  0.00    +0.292 HD
ENDBRANCH  18  22
BRANCH  20  24
ATOM     24  O   LIG    1       27.806 -27.383   4.674  0.00  0.00    -0.507 OA
ATOM     25  H   LIG    1       28.311 -26.562   4.804  0.00  0.00    +0.292 HD
ENDBRANCH  20  24
ENDBRANCH  15  16
BRANCH  15  26
ATOM     26  O   LIG    1       22.846 -24.412   6.554  0.00  0.00    -0.386 OA
ATOM     27  H   LIG    1       22.549 -24.760   7.413  0.00  0.00    +0.210 HD
ENDBRANCH  15  26
ENDBRANCH   1  15
TORSDOF 10
ENDMDL
MODEL 2
REMARK VINA RESULT:      -8.9      1.370      2.600
REMARK  Name = *****
REMARK                            x       y       z     vdW  Elec       q    Type
REMARK                         _______ _______ _______ _____ _____    ______ ____
ROOT
ATOM      1  C   LIG    1       24.856 -22.921   5.734  0.00  0.00    +0.117 C 
ENDROOT
BRANCH   1   2
ATOM      2  N   LIG    1       24.872 -21.643   6.493  0.00  0.00    -0.310 NA
ATOM      3  H   LIG    1       24.794 -20.893   5.796  0.00  0.00    +0.122 HD
BRANCH   2   5
ATOM      4  C   LIG    1       25.809 -20.695   8.615  0.00  0.00    +0.024 C 
ATOM      5  C   LIG    1       26.104 -21.415   7.283  0.00  0.00    +0.055 C 
BRANCH   5   6
ATOM      6  C   LIG    1       27.155 -20.572   6.488  0.00  0.00    +0.053 C 
BRANCH   6   7
ATOM      7  C   LIG    1       28.508 -20.372   7.149  0.00  0.00    -0.046 A 
ATOM      8  C   LIG    1       29.131 -21.430   7.836  0.00  0.00    +0.007 A 
ATOM      9  C   LIG    1       30.366 -21.234   8.468  0.00  0.00    +0.045 A 
ATOM     10  C   LIG    1       30.985 -19.999   8.416  0.00  0.00    +0.117 A 
ATOM     11  C   LIG    1       30.413 -18.948   7.702  0.00  0.00    +0.045 A 
ATOM     12  C   LIG    1       29.176 -19.144   7.071  0.00  0.00    +0.007 A 
BRANCH  10  13
ATOM     13  O   LIG    1       32.166 -19.843   9.089  0.00  0.00    -0.507 OA
ATOM     14  H   LIG    1       32.887 -20.168   8.532  0.00  0.00    +0.292 HD
ENDBRANCH  10  13
ENDBRANCH   6   7
ENDBRANCH   5   6
ENDBRANCH   2   5
ENDBRANCH   1   2
BRANCH   1  15
ATOM     15  C   LIG    1       24.297 -24.118   6.568  0.00  0.00    +0.158 C 
BRANCH  15  16
ATOM     16  C   LIG    1       24.798 -25.487   6.116  0.00  0.00    -0.011 A 
ATOM     17  C   LIG    1       26.146 -25.701   5.781  0.00  0.00    +0.051 A 
ATOM     18  C   LIG    1       26.587 -26.962   5.378  0.00  0.00    +0.121 A 
ATOM     19  C   LIG    1       25.708 -28.033   5.281  0.00  0.00    +0.090 A 
ATOM     20  C   LIG    1       24.367 -27.821   5.578  0.00  0.00    +0.121 A 
ATOM     21  C   LIG    1       23.904 -26.568   5.986  0.00  0.00    +0.051 A 
BRANCH  18  22
ATOM     22  O   LIG    1       27.911 -27.111   5.080  0.00  0.00    -0.507 OA
ATOM     23  H   LIG    1       28.382 -26.307   5.353  0.00  0.00    +0.292 HD
ENDBRANCH  18  22
BRANCH  20  24
ATOM     24  O   LIG    1       23.526 -28.890   5.451  0.00  0.00    -0.507 OA
ATOM     25  H   LIG    1       23.066 -29.033   6.296  0.00  0.00    +0.292 HD
ENDBRANCH  20  24
ENDBRANCH  15  16
BRANCH  15  26
ATOM     26  O   LIG    1       22.864 -24.094   6.527  0.00  0.00    -0.386 OA
ATOM     27  H   LIG    1       22.537 -24.898   6.964  0.00  0.00    +0.210 HD
ENDBRANCH  15  26
ENDBRANCH   1  15
TORSDOF 10
ENDMDL
MODEL 3
REMARK VINA RESULT:      -8.9      1.365      1.914
REMARK  Name = *****
REMARK                            x       y       z     vdW  Elec       q    Type
REMARK                         _______ _______ _______ _____ _____    ______ ____
ROOT
ATOM      1  C   LIG    1       24.824 -22.914   5.738  0.00  0.00    +0.117 C 
ENDROOT
BRANCH   1   2
ATOM      2  N   LIG    1       24.849 -21.648   6.514  0.00  0.00    -0.310 NA
ATOM      3  H   LIG    1       24.762 -20.888   5.829  0.00  0.00    +0.122 HD
BRANCH   2   5
ATOM      4  C   LIG    1       25.815 -20.708   8.627  0.00  0.00    +0.024 C 
ATOM      5  C   LIG    1       26.091 -21.430   7.292  0.00  0.00    +0.055 C 
BRANCH   5   6
ATOM      6  C   LIG    1       27.140 -20.596   6.486  0.00  0.00    +0.053 C 
BRANCH   6   7
ATOM      7  C   LIG    1       28.497 -20.394   7.141  0.00  0.00    -0.046 A 
ATOM      8  C   LIG    1       29.113 -21.443   7.847  0.00  0.00    +0.007 A 
ATOM      9  C   LIG    1       30.350 -21.244   8.473  0.00  0.00    +0.045 A 
ATOM     10  C   LIG    1       30.979 -20.014   8.397  0.00  0.00    +0.117 A 
ATOM     11  C   LIG    1       30.413 -18.974   7.663  0.00  0.00    +0.045 A 
ATOM     12  C   LIG    1       29.174 -19.173   7.037  0.00  0.00    +0.007 A 
BRANCH  10  13
ATOM     13  O   LIG    1       32.161 -19.855   9.064  0.00  0.00    -0.507 OA
ATOM     14  H   LIG    1       32.007 -19.307   9.846  0.00  0.00    +0.292 HD
ENDBRANCH  10  13
ENDBRANCH   6   7
ENDBRANCH   5   6
ENDBRANCH   2   5
ENDBRANCH   1   2
BRANCH   1  15
ATOM     15  C   LIG    1       24.270 -24.122   6.560  0.00  0.00    +0.158 C 
BRANCH  15  16
ATOM     16  C   LIG    1       24.782 -25.484   6.098  0.00  0.00    -0.011 A 
ATOM     17  C   LIG    1       23.923 -26.592   5.989  0.00  0.00    +0.051 A 
ATOM     18  C   LIG    1       24.408 -27.826   5.557  0.00  0.00    +0.121 A 
ATOM     19  C   LIG    1       25.749 -28.001   5.240  0.00  0.00    +0.090 A 
ATOM     20  C   LIG    1       26.611 -26.919   5.378  0.00  0.00    +0.121 A 
ATOM     21  C   LIG    1       26.147 -25.674   5.807  0.00  0.00    +0.051 A 
BRANCH  18  22
ATOM     22  O   LIG    1       23.523 -28.861   5.457  0.00  0.00    -0.507 OA
ATOM     23  H   LIG    1       22.729 -28.546   4.993  0.00  0.00    +0.292 HD
ENDBRANCH  18  22
BRANCH  20  24
ATOM     24  O   LIG    1       27.927 -27.131   5.080  0.00  0.00    -0.507 OA
ATOM     25  H   LIG    1       28.240 -27.912   5.567  0.00  0.00    +0.292 HD
ENDBRANCH  20  24
ENDBRANCH  15  16
BRANCH  15  26
ATOM     26  O   LIG    1       22.837 -24.107   6.515  0.00  0.00    -0.386 OA
ATOM     27  H   LIG    1       22.562 -23.376   5.935  0.00  0.00    +0.210 HD
ENDBRANCH  15  26
ENDBRANCH   1  15
TORSDOF 10
ENDMDL
MODEL 4
REMARK VINA RESULT:      -8.8      3.414      6.860
REMARK  Name = *****
REMARK                            x       y       z     vdW  Elec       q    Type
REMARK                         _______ _______ _______ _____ _____    ______ ____
ROOT
ATOM      1  C   LIG    1       26.803 -22.586   7.028  0.00  0.00    +0.117 C 
ENDROOT
BRANCH   1   2
ATOM      2  N   LIG    1       25.637 -23.331   7.569  0.00  0.00    -0.310 NA
ATOM      3  H   LIG    1       25.956 -24.295   7.723  0.00  0.00    +0.122 HD
BRANCH   2   5
ATOM      4  C   LIG    1       23.979 -24.814   6.415  0.00  0.00    +0.024 C 
ATOM      5  C   LIG    1       24.463 -23.371   6.666  0.00  0.00    +0.055 C 
BRANCH   5   6
ATOM      6  C   LIG    1       24.772 -22.706   5.285  0.00  0.00    +0.053 C 
BRANCH   6   7
ATOM      7  C   LIG    1       24.116 -21.362   5.015  0.00  0.00    -0.046 A 
ATOM      8  C   LIG    1       23.106 -20.876   5.864  0.00  0.00    +0.007 A 
ATOM      9  C   LIG    1       22.484 -19.650   5.595  0.00  0.00    +0.045 A 
ATOM     10  C   LIG    1       22.864 -18.904   4.494  0.00  0.00    +0.117 A 
ATOM     11  C   LIG    1       23.894 -19.340   3.665  0.00  0.00    +0.045 A 
ATOM     12  C   LIG    1       24.516 -20.568   3.933  0.00  0.00    +0.007 A 
BRANCH  10  13
ATOM     13  O   LIG    1       22.195 -17.737   4.247  0.00  0.00    -0.507 OA
ATOM     14  H   LIG    1       22.684 -17.232   3.583  0.00  0.00    +0.292 HD
ENDBRANCH  10  13
ENDBRANCH   6   7
ENDBRANCH   5   6
ENDBRANCH   2   5
ENDBRANCH   1   2
BRANCH   1  15
ATOM     15  C   LIG    1       26.931 -21.144   7.616  0.00  0.00    +0.158 C 
BRANCH  15  16
ATOM     16  C   LIG    1       28.302 -20.504   7.418  0.00  0.00    -0.011 A 
ATOM     17  C   LIG    1       28.536 -19.574   6.390  0.00  0.00    +0.051 A 
ATOM     18  C   LIG    1       29.794 -18.993   6.230  0.00  0.00    +0.121 A 
ATOM     19  C   LIG    1       30.852 -19.328   7.066  0.00  0.00    +0.090 A 
ATOM     20  C   LIG    1       30.638 -20.272   8.063  0.00  0.00    +0.121 A 
ATOM     21  C   LIG    1       29.386 -20.864   8.243  0.00  0.00    +0.051 A 
BRANCH  18  22
ATOM     22  O   LIG    1       29.955 -18.085   5.224  0.00  0.00    -0.507 OA
ATOM     23  H   LIG    1       29.144 -18.066   4.691  0.00  0.00    +0.292 HD
ENDBRANCH  18  22
BRANCH  20  24
ATOM     24  O   LIG    1       31.704 -20.595   8.853  0.00  0.00    -0.507 OA
ATOM     25  H   LIG    1       32.341 -19.860   8.840  0.00  0.00    +0.292 HD
ENDBRANCH  20  24
ENDBRANCH  15  16
BRANCH  15  26
ATOM     26  O   LIG    1       26.613 -21.174   9.013  0.00  0.00    -0.386 OA
ATOM     27  H   LIG    1       26.182 -20.333   9.242  0.00  0.00    +0.210 HD
ENDBRANCH  15  26
ENDBRANCH   1  15
TORSDOF 10
ENDMDL
MODEL 5
REMARK VINA RESULT:      -8.8      3.619      5.523
REMARK  Name = *****
REMARK                            x       y       z     vdW  Elec       q    Type
REMARK                         _______ _______ _______ _____ _____    ______ ____
ROOT
ATOM      1  C   LIG    1       24.978 -22.857   6.596  0.00  0.00    +0.117 C 
ENDROOT
BRANCH   1   2
ATOM      2  N   LIG    1       25.448 -22.801   8.005  0.00  0.00    -0.310 NA
ATOM      3  H   LIG    1       24.646 -22.490   8.565  0.00  0.00    +0.122 HD
BRANCH   2   5
ATOM      4  C   LIG    1       26.071 -20.472   8.685  0.00  0.00    +0.024 C 
ATOM      5  C   LIG    1       26.569 -21.862   8.239  0.00  0.00    +0.055 C 
BRANCH   5   6
ATOM      6  C   LIG    1       27.453 -21.684   6.961  0.00  0.00    +0.053 C 
BRANCH   6   7
ATOM      7  C   LIG    1       28.709 -20.843   7.115  0.00  0.00    -0.046 A 
ATOM      8  C   LIG    1       29.674 -21.169   8.085  0.00  0.00    +0.007 A 
ATOM      9  C   LIG    1       30.817 -20.375   8.242  0.00  0.00    +0.045 A 
ATOM     10  C   LIG    1       31.009 -19.265   7.439  0.00  0.00    +0.117 A 
ATOM     11  C   LIG    1       30.093 -18.947   6.439  0.00  0.00    +0.045 A 
ATOM     12  C   LIG    1       28.948 -19.742   6.282  0.00  0.00    +0.007 A 
BRANCH  10  13
ATOM     13  O   LIG    1       32.116 -18.494   7.663  0.00  0.00    -0.507 OA
ATOM     14  H   LIG    1       31.971 -17.621   7.273  0.00  0.00    +0.292 HD
ENDBRANCH  10  13
ENDBRANCH   6   7
ENDBRANCH   5   6
ENDBRANCH   2   5
ENDBRANCH   1   2
BRANCH   1  15
ATOM     15  C   LIG    1       23.594 -22.163   6.389  0.00  0.00    +0.158 C 
BRANCH  15  16
ATOM     16  C   LIG    1       23.637 -20.932   5.487  0.00  0.00    -0.011 A 
ATOM     17  C   LIG    1       22.473 -20.207   5.179  0.00  0.00    +0.051 A 
ATOM     18  C   LIG    1       22.534 -19.080   4.359  0.00  0.00    +0.121 A 
ATOM     19  C   LIG    1       23.738 -18.653   3.812  0.00  0.00    +0.090 A 
ATOM     20  C   LIG    1       24.887 -19.385   4.084  0.00  0.00    +0.121 A 
ATOM     21  C   LIG    1       24.850 -20.515   4.904  0.00  0.00    +0.051 A 
BRANCH  18  22
ATOM     22  O   LIG    1       21.372 -18.408   4.109  0.00  0.00    -0.507 OA
ATOM     23  H   LIG    1       20.638 -19.043   4.126  0.00  0.00    +0.292 HD
ENDBRANCH  18  22
BRANCH  20  24
ATOM     24  O   LIG    1       26.050 -18.951   3.513  0.00  0.00    -0.507 OA
ATOM     25  H   LIG    1       25.874 -18.130   3.024  0.00  0.00    +0.292 HD
ENDBRANCH  20  24
ENDBRANCH  15  16
BRANCH  15  26
ATOM     26  O   LIG    1       23.049 -21.803   7.665  0.00  0.00    -0.386 OA
ATOM     27  H   LIG    1       23.768 -21.433   8.206  0.00  0.00    +0.210 HD
ENDBRANCH  15  26
ENDBRANCH   1  15
TORSDOF 10
ENDMDL
MODEL 6
REMARK VINA RESULT:      -8.8      3.389      6.847
REMARK  Name = *****
REMARK                            x       y       z     vdW  Elec       q    Type
REMARK                         _______ _______ _______ _____ _____    ______ ____
ROOT
ATOM      1  C   LIG    1       26.771 -22.596   7.049  0.00  0.00    +0.117 C 
ENDROOT
BRANCH   1   2
ATOM      2  N   LIG    1       25.591 -23.319   7.588  0.00  0.00    -0.310 NA
ATOM      3  H   LIG    1       25.913 -24.267   7.816  0.00  0.00    +0.122 HD
BRANCH   2   5
ATOM      4  C   LIG    1       24.069 -24.900   6.378  0.00  0.00    +0.024 C 
ATOM      5  C   LIG    1       24.456 -23.430   6.643  0.00  0.00    +0.055 C 
BRANCH   5   6
ATOM      6  C   LIG    1       24.774 -22.747   5.273  0.00  0.00    +0.053 C 
BRANCH   6   7
ATOM      7  C   LIG    1       24.116 -21.402   5.013  0.00  0.00    -0.046 A 
ATOM      8  C   LIG    1       23.119 -20.915   5.878  0.00  0.00    +0.007 A 
ATOM      9  C   LIG    1       22.495 -19.688   5.619  0.00  0.00    +0.045 A 
ATOM     10  C   LIG    1       22.858 -18.942   4.513  0.00  0.00    +0.117 A 
ATOM     11  C   LIG    1       23.875 -19.379   3.667  0.00  0.00    +0.045 A 
ATOM     12  C   LIG    1       24.500 -20.608   3.925  0.00  0.00    +0.007 A 
BRANCH  10  13
ATOM     13  O   LIG    1       22.187 -17.775   4.276  0.00  0.00    -0.507 OA
ATOM     14  H   LIG    1       21.319 -17.984   3.906  0.00  0.00    +0.292 HD
ENDBRANCH  10  13
ENDBRANCH   6   7
ENDBRANCH   5   6
ENDBRANCH   2   5
ENDBRANCH   1   2
BRANCH   1  15
ATOM     15  C   LIG    1       26.911 -21.147   7.616  0.00  0.00    +0.158 C 
BRANCH  15  16
ATOM     16  C   LIG    1       28.286 -20.520   7.407  0.00  0.00    -0.011 A 
ATOM     17  C   LIG    1       29.372 -20.837   8.242  0.00  0.00    +0.051 A 
ATOM     18  C   LIG    1       30.624 -20.259   8.030  0.00  0.00    +0.121 A 
ATOM     19  C   LIG    1       30.829 -19.346   7.003  0.00  0.00    +0.090 A 
ATOM     20  C   LIG    1       29.752 -19.001   6.195  0.00  0.00    +0.121 A 
ATOM     21  C   LIG    1       28.491 -19.570   6.388  0.00  0.00    +0.051 A 
BRANCH  18  22
ATOM     22  O   LIG    1       31.643 -20.618   8.864  0.00  0.00    -0.507 OA
ATOM     23  H   LIG    1       32.458 -20.698   8.341  0.00  0.00    +0.292 HD
ENDBRANCH  18  22
BRANCH  20  24
ATOM     24  O   LIG    1       29.983 -18.084   5.210  0.00  0.00    -0.507 OA
ATOM     25  H   LIG    1       30.699 -17.490   5.492  0.00  0.00    +0.292 HD
ENDBRANCH  20  24
ENDBRANCH  15  16
BRANCH  15  26
ATOM     26  O   LIG    1       26.595 -21.156   9.015  0.00  0.00    -0.386 OA
ATOM     27  H   LIG    1       25.879 -20.515   9.166  0.00  0.00    +0.210 HD
ENDBRANCH  15  26
ENDBRANCH   1  15
TORSDOF 10
ENDMDL
MODEL 7
REMARK VINA RESULT:      -8.8      3.599      5.718
REMARK  Name = *****
REMARK                            x       y       z     vdW  Elec       q    Type
REMARK                         _______ _______ _______ _____ _____    ______ ____
ROOT
ATOM      1  C   LIG    1       25.032 -22.899   6.598  0.00  0.00    +0.117 C 
ENDROOT
BRANCH   1   2
ATOM      2  N   LIG    1       25.507 -22.828   8.004  0.00  0.00    -0.310 NA
ATOM      3  H   LIG    1       24.695 -22.553   8.570  0.00  0.00    +0.122 HD
BRANCH   2   5
ATOM      4  C   LIG    1       26.039 -20.497   8.752  0.00  0.00    +0.024 C 
ATOM      5  C   LIG    1       26.588 -21.844   8.236  0.00  0.00    +0.055 C 
BRANCH   5   6
ATOM      6  C   LIG    1       27.417 -21.575   6.937  0.00  0.00    +0.053 C 
BRANCH   6   7
ATOM      7  C   LIG    1       28.688 -20.758   7.097  0.00  0.00    -0.046 A 
ATOM      8  C   LIG    1       29.663 -21.131   8.041  0.00  0.00    +0.007 A 
ATOM      9  C   LIG    1       30.821 -20.360   8.205  0.00  0.00    +0.045 A 
ATOM     10  C   LIG    1       31.017 -19.227   7.436  0.00  0.00    +0.117 A 
ATOM     11  C   LIG    1       30.091 -18.863   6.462  0.00  0.00    +0.045 A 
ATOM     12  C   LIG    1       28.931 -19.635   6.298  0.00  0.00    +0.007 A 
BRANCH  10  13
ATOM     13  O   LIG    1       32.140 -18.481   7.666  0.00  0.00    -0.507 OA
ATOM     14  H   LIG    1       32.918 -19.022   7.476  0.00  0.00    +0.292 HD
ENDBRANCH  10  13
ENDBRANCH   6   7
ENDBRANCH   5   6
ENDBRANCH   2   5
ENDBRANCH   1   2
BRANCH   1  15
ATOM     15  C   LIG    1       23.646 -22.209   6.388  0.00  0.00    +0.158 C 
BRANCH  15  16
ATOM     16  C   LIG    1       23.680 -20.998   5.460  0.00  0.00    -0.011 A 
ATOM     17  C   LIG    1       24.849 -20.636   4.769  0.00  0.00    +0.051 A 
ATOM     18  C   LIG    1       24.859 -19.531   3.919  0.00  0.00    +0.121 A 
ATOM     19  C   LIG    1       23.724 -18.749   3.742  0.00  0.00    +0.090 A 
ATOM     20  C   LIG    1       22.573 -19.081   4.448  0.00  0.00    +0.121 A 
ATOM     21  C   LIG    1       22.540 -20.185   5.303  0.00  0.00    +0.051 A 
BRANCH  18  22
ATOM     22  O   LIG    1       26.020 -19.238   3.264  0.00  0.00    -0.507 OA
ATOM     23  H   LIG    1       26.716 -19.834   3.587  0.00  0.00    +0.292 HD
ENDBRANCH  18  22
BRANCH  20  24
ATOM     24  O   LIG    1       21.482 -18.280   4.269  0.00  0.00    -0.507 OA
ATOM     25  H   LIG    1       21.078 -18.097   5.134  0.00  0.00    +0.292 HD
ENDBRANCH  20  24
ENDBRANCH  15  16
BRANCH  15  26
ATOM     26  O   LIG    1       23.113 -21.822   7.662  0.00  0.00    -0.386 OA
ATOM     27  H   LIG    1       22.429 -22.467   7.911  0.00  0.00    +0.210 HD
ENDBRANCH  15  26
ENDBRANCH   1  15
TORSDOF 10
ENDMDL
MODEL 8
REMARK VINA RESULT:      -8.8      0.274      2.053
REMARK  Name = *****
REMARK                            x       y       z     vdW  Elec       q    Type
REMARK                         _______ _______ _______ _____ _____    ______ ____
ROOT
ATOM      1  C   LIG    1       24.527 -23.121   5.271  0.00  0.00    +0.117 C 
ENDROOT
BRANCH   1   2
ATOM      2  N   LIG    1       23.434 -22.118   5.177  0.00  0.00    -0.310 NA
ATOM      3  H   LIG    1       23.188 -22.052   4.182  0.00  0.00    +0.122 HD
BRANCH   2   5
ATOM      4  C   LIG    1       22.717 -19.721   5.316  0.00  0.00    +0.024 C 
ATOM      5  C   LIG    1       23.802 -20.765   5.654  0.00  0.00    +0.055 C 
BRANCH   5   6
ATOM      6  C   LIG    1       25.158 -20.283   5.041  0.00  0.00    +0.053 C 
BRANCH   6   7
ATOM      7  C   LIG    1       26.358 -20.266   5.973  0.00  0.00    -0.046 A 
ATOM      8  C   LIG    1       27.650 -20.025   5.471  0.00  0.00    +0.007 A 
ATOM      9  C   LIG    1       28.757 -20.039   6.329  0.00  0.00    +0.045 A 
ATOM     10  C   LIG    1       28.588 -20.283   7.680  0.00  0.00    +0.117 A 
ATOM     11  C   LIG    1       27.314 -20.477   8.210  0.00  0.00    +0.045 A 
ATOM     12  C   LIG    1       26.206 -20.465   7.351  0.00  0.00    +0.007 A 
BRANCH  10  13
ATOM     13  O   LIG    1       29.704 -20.333   8.468  0.00  0.00    -0.507 OA
ATOM     14  H   LIG    1       29.506 -19.910   9.315  0.00  0.00    +0.292 HD
ENDBRANCH  10  13
ENDBRANCH   6   7
ENDBRANCH   5   6
ENDBRANCH   2   5
ENDBRANCH   1   2
BRANCH   1  15
ATOM     15  C   LIG    1       24.248 -24.229   6.336  0.00  0.00    +0.158 C 
BRANCH  15  16
ATOM     16  C   LIG    1       24.764 -25.613   5.953  0.00  0.00    -0.011 A 
ATOM     17  C   LIG    1       26.109 -25.823   5.601  0.00  0.00    +0.051 A 
ATOM     18  C   LIG    1       26.564 -27.097   5.262  0.00  0.00    +0.121 A 
ATOM     19  C   LIG    1       25.703 -28.187   5.246  0.00  0.00    +0.090 A 
ATOM     20  C   LIG    1       24.365 -27.982   5.560  0.00  0.00    +0.121 A 
ATOM     21  C   LIG    1       23.888 -26.715   5.905  0.00  0.00    +0.051 A 
BRANCH  18  22
ATOM     22  O   LIG    1       27.884 -27.241   4.944  0.00  0.00    -0.507 OA
ATOM     23  H   LIG    1       28.072 -28.186   4.820  0.00  0.00    +0.292 HD
ENDBRANCH  18  22
BRANCH  20  24
ATOM     24  O   LIG    1       23.542 -29.070   5.514  0.00  0.00    -0.507 OA
ATOM     25  H   LIG    1       23.952 -29.754   4.958  0.00  0.00    +0.292 HD
ENDBRANCH  20  24
ENDBRANCH  15  16
BRANCH  15  26
ATOM     26  O   LIG    1       22.838 -24.296   6.589  0.00  0.00    -0.386 OA
ATOM     27  H   LIG    1       22.438 -24.873   5.916  0.00  0.00    +0.210 HD
ENDBRANCH  15  26
ENDBRANCH   1  15
TORSDOF 10
ENDMDL
MODEL 9
REMARK VINA RESULT:      -8.8      3.384      5.955
REMARK  Name = *****
REMARK                            x       y       z     vdW  Elec       q    Type
REMARK                         _______ _______ _______ _____ _____    ______ ____
ROOT
ATOM      1  C   LIG    1       27.855 -20.536   6.812  0.00  0.00    +0.117 C 
ENDROOT
BRANCH   1   2
ATOM      2  N   LIG    1       29.298 -20.789   6.566  0.00  0.00    -0.310 NA
ATOM      3  H   LIG    1       29.430 -21.805   6.639  0.00  0.00    +0.122 HD
BRANCH   2   5
ATOM      4  C   LIG    1       30.699 -21.115   8.617  0.00  0.00    +0.024 C 
ATOM      5  C   LIG    1       30.208 -20.133   7.533  0.00  0.00    +0.055 C 
BRANCH   5   6
ATOM      6  C   LIG    1       29.525 -18.917   8.240  0.00  0.00    +0.053 C 
BRANCH   6   7
ATOM      7  C   LIG    1       30.424 -18.022   9.077  0.00  0.00    -0.046 A 
ATOM      8  C   LIG    1       30.029 -17.614  10.363  0.00  0.00    +0.007 A 
ATOM      9  C   LIG    1       30.847 -16.766  11.119  0.00  0.00    +0.045 A 
ATOM     10  C   LIG    1       32.056 -16.328  10.609  0.00  0.00    +0.117 A 
ATOM     11  C   LIG    1       32.493 -16.756   9.357  0.00  0.00    +0.045 A 
ATOM     12  C   LIG    1       31.673 -17.604   8.600  0.00  0.00    +0.007 A 
BRANCH  10  13
ATOM     13  O   LIG    1       32.798 -15.464  11.365  0.00  0.00    -0.507 OA
ATOM     14  H   LIG    1       32.993 -14.677  10.838  0.00  0.00    +0.292 HD
ENDBRANCH  10  13
ENDBRANCH   6   7
ENDBRANCH   5   6
ENDBRANCH   2   5
ENDBRANCH   1   2
BRANCH   1  15
ATOM     15  C   LIG    1       27.130 -21.748   7.481  0.00  0.00    +0.158 C 
BRANCH  15  16
ATOM     16  C   LIG    1       25.670 -21.913   7.066  0.00  0.00    -0.011 A 
ATOM     17  C   LIG    1       24.867 -20.804   6.747  0.00  0.00    +0.051 A 
ATOM     18  C   LIG    1       23.538 -20.977   6.362  0.00  0.00    +0.121 A 
ATOM     19  C   LIG    1       22.966 -22.241   6.299  0.00  0.00    +0.090 A 
ATOM     20  C   LIG    1       23.743 -23.340   6.646  0.00  0.00    +0.121 A 
ATOM     21  C   LIG    1       25.077 -23.191   7.032  0.00  0.00    +0.051 A 
BRANCH  18  22
ATOM     22  O   LIG    1       22.813 -19.863   6.050  0.00  0.00    -0.507 OA
ATOM     23  H   LIG    1       22.318 -19.585   6.839  0.00  0.00    +0.292 HD
ENDBRANCH  18  22
BRANCH  20  24
ATOM     24  O   LIG    1       23.144 -24.566   6.594  0.00  0.00    -0.507 OA
ATOM     25  H   LIG    1       22.911 -24.843   7.497  0.00  0.00    +0.292 HD
ENDBRANCH  20  24
ENDBRANCH  15  16
BRANCH  15  26
ATOM     26  O   LIG    1       27.212 -21.619   8.906  0.00  0.00    -0.386 OA
ATOM     27  H   LIG    1       26.509 -22.165   9.299  0.00  0.00    +0.210 HD
ENDBRANCH  15  26
ENDBRANCH   1  15
TORSDOF 10
ENDMDL
