MODEL 1
REMARK VINA RESULT:      -1.9      0.000      0.000
REMARK  Name = *****
REMARK                            x       y       z     vdW  Elec       q    Type
REMARK                         _______ _______ _______ _____ _____    ______ ____
ROOT
ATOM      1  C   LIG    1       26.884 -20.995   6.574  0.00  0.00    +0.134 A 
ATOM      2  C   LIG    1       26.976 -19.853   5.775  0.00  0.00    +0.079 A 
ATOM      3  C   LIG    1       25.810 -19.295   5.208  0.00  0.00    +0.030 A 
ATOM      4  C   LIG    1       24.553 -19.950   5.343  0.00  0.00    +0.044 A 
ATOM      5  C   LIG    1       24.469 -20.978   6.308  0.00  0.00    +0.078 A 
ATOM      6  N   LIG    1       23.323 -21.568   6.665  0.00  0.00    -0.255 NA
ATOM      7  C   LIG    1       22.227 -21.287   5.954  0.00  0.00    +0.115 A 
ATOM      8  C   LIG    1       22.243 -20.479   4.845  0.00  0.00    +0.066 A 
ATOM      9  C   LIG    1       23.377 -19.719   4.565  0.00  0.00    +0.139 A 
ATOM     10  C   LIG    1       25.617 -21.476   6.902  0.00  0.00    +0.074 A 
ENDROOT
BRANCH   2  11
ATOM     11  C   LIG    1       28.284 -19.251   5.370  0.00  0.00    +0.245 C 
ATOM     12  O   LIG    1       28.491 -18.065   5.434  0.00  0.00    -0.270 OA
ATOM     13  N   LIG    1       29.218 -20.121   4.849  0.00  0.00    -0.325 N 
ATOM     14  H   LIG    1       30.115 -19.747   4.579  0.00  0.00    +0.145 HD
ATOM     15  H   LIG    1       29.110 -21.107   4.941  0.00  0.00    +0.145 HD
ENDBRANCH   2  11
BRANCH   1  17
ATOM     16  C   LIG    1       29.247 -20.860   6.794  0.00  0.00    +0.277 C 
ATOM     17  O   LIG    1       28.036 -21.572   7.052  0.00  0.00    -0.494 OA
ENDBRANCH   1  17
BRANCH   9  18
ATOM     18  O   LIG    1       23.448 -18.847   3.482  0.00  0.00    -0.455 OA
BRANCH  18  19
ATOM     19  C   LIG    1       24.197 -17.678   3.512  0.00  0.00    +0.130 A 
ATOM     20  C   LIG    1       23.801 -16.464   4.078  0.00  0.00    +0.068 A 
ATOM     21  C   LIG    1       24.566 -15.306   3.924  0.00  0.00    +0.066 A 
ATOM     22 CL   LIG    1       23.868 -13.799   4.420  0.00  0.00    -0.082 Cl
ATOM     23  C   LIG    1       25.853 -15.374   3.388  0.00  0.00    +0.053 A 
ATOM     24  C   LIG    1       26.324 -16.620   2.974  0.00  0.00    +0.028 A 
ATOM     25  C   LIG    1       25.492 -17.753   2.995  0.00  0.00    +0.048 A 
BRANCH  23  26
ATOM     26  N   LIG    1       26.616 -14.192   3.325  0.00  0.00    -0.268 N 
ATOM     27  H   LIG    1       27.488 -14.214   3.840  0.00  0.00    +0.156 HD
ATOM     28  C   LIG    1       26.365 -13.072   2.592  0.00  0.00    +0.304 C 
ATOM     29  N   LIG    1       27.267 -12.055   2.731  0.00  0.00    -0.296 N 
ATOM     30  H   LIG    1       27.026 -11.248   2.167  0.00  0.00    +0.150 HD
ATOM     31  O   LIG    1       25.414 -12.893   1.828  0.00  0.00    -0.253 OA
BRANCH  29  32
ATOM     32  C   LIG    1       28.435 -12.012   3.542  0.00  0.00    +0.075 C 
ATOM     33  C   LIG    1       28.533 -12.856   4.779  0.00  0.00    +0.024 C 
ATOM     34  C   LIG    1       29.372 -13.185   3.578  0.00  0.00    +0.024 C 
ENDBRANCH  29  32
ENDBRANCH  23  26
ENDBRANCH  18  19
ENDBRANCH   9  18
TORSDOF 6
ENDMDL
