MODEL 1
REMARK VINA RESULT:       9.3      0.000      0.000
REMARK  Name = *****
REMARK                            x       y       z     vdW  Elec       q    Type
REMARK                         _______ _______ _______ _____ _____    ______ ____
ROOT
ATOM      1  C   LIG    1       26.775 -18.946   4.500  0.00  0.00    +0.064 A 
ATOM      2  C   LIG    1       27.210 -17.600   4.434  0.00  0.00    +0.049 A 
ATOM      3  I   LIG    1       28.972 -17.008   5.508  0.00  0.00    -0.041 I 
ATOM      4  C   LIG    1       26.364 -16.618   3.879  0.00  0.00    +0.065 A 
ATOM      5  C   LIG    1       24.991 -16.927   3.761  0.00  0.00    +0.040 A 
ATOM      6  I   LIG    1       23.634 -15.276   4.081  0.00  0.00    -0.042 I 
ATOM      7  C   LIG    1       24.539 -18.269   3.759  0.00  0.00    +0.065 A 
ATOM      8  C   LIG    1       25.498 -19.274   3.988  0.00  0.00    +0.049 A 
ATOM      9  I   LIG    1       25.213 -21.311   3.296  0.00  0.00    -0.041 I 
ENDROOT
BRANCH   1  11
ATOM     10  C   LIG    1       28.794 -20.392   4.569  0.00  0.00    +0.138 C 
ATOM     11  N   LIG    1       27.539 -19.962   5.173  0.00  0.00    -0.271 N 
ATOM     12  C   LIG    1       27.010 -20.534   6.342  0.00  0.00    +0.245 C 
ATOM     13  O   LIG    1       25.932 -20.182   6.829  0.00  0.00    -0.273 OA
BRANCH  12  14
ATOM     14  C   LIG    1       27.892 -21.571   7.059  0.00  0.00    +0.252 C 
BRANCH  14  15
ATOM     15  O   LIG    1       29.278 -21.333   6.882  0.00  0.00    -0.386 OA
ATOM     16  H   LIG    1       29.691 -22.163   6.586  0.00  0.00    +0.210 HD
ENDBRANCH  14  15
ENDBRANCH  12  14
ENDBRANCH   1  11
BRANCH   4  17
ATOM     17  C   LIG    1       26.932 -15.374   3.221  0.00  0.00    +0.246 C 
ATOM     18  N   LIG    1       27.987 -14.763   3.894  0.00  0.00    -0.309 N 
ATOM     19  H   LIG    1       28.429 -15.236   4.673  0.00  0.00    +0.149 HD
ATOM     20  O   LIG    1       26.457 -14.870   2.212  0.00  0.00    -0.270 OA
BRANCH  18  21
ATOM     21  C   LIG    1       28.596 -13.513   3.435  0.00  0.00    +0.138 C 
BRANCH  21  22
ATOM     22  C   LIG    1       28.278 -12.267   4.295  0.00  0.00    +0.157 C 
BRANCH  22  23
ATOM     23  O   LIG    1       29.378 -11.897   5.140  0.00  0.00    -0.388 OA
ATOM     24  H   LIG    1       30.198 -12.015   4.622  0.00  0.00    +0.210 HD
ENDBRANCH  22  23
BRANCH  22  25
ATOM     25  C   LIG    1       27.075 -12.574   5.204  0.00  0.00    +0.188 C 
BRANCH  25  26
ATOM     26  O   LIG    1       25.897 -12.811   4.438  0.00  0.00    -0.392 OA
ATOM     27  H   LIG    1       25.154 -12.777   5.071  0.00  0.00    +0.209 HD
ENDBRANCH  25  26
ENDBRANCH  22  25
ENDBRANCH  21  22
ENDBRANCH  18  21
ENDBRANCH   4  17
BRANCH   7  28
ATOM     28  C   LIG    1       23.096 -18.600   3.538  0.00  0.00    +0.246 C 
ATOM     29  N   LIG    1       22.358 -18.930   4.649  0.00  0.00    -0.309 N 
ATOM     30  H   LIG    1       22.861 -19.255   5.472  0.00  0.00    +0.149 HD
ATOM     31  O   LIG    1       22.607 -18.567   2.400  0.00  0.00    -0.270 OA
BRANCH  29  32
ATOM     32  C   LIG    1       20.971 -19.361   4.566  0.00  0.00    +0.138 C 
BRANCH  32  33
ATOM     33  C   LIG    1       20.792 -20.857   4.858  0.00  0.00    +0.157 C 
BRANCH  33  34
ATOM     34  O   LIG    1       20.175 -21.501   3.732  0.00  0.00    -0.388 OA
ATOM     35  H   LIG    1       20.517 -21.044   2.938  0.00  0.00    +0.210 HD
ENDBRANCH  33  34
BRANCH  33  36
ATOM     36  C   LIG    1       22.108 -21.571   5.185  0.00  0.00    +0.188 C 
BRANCH  36  37
ATOM     37  O   LIG    1       22.644 -21.021   6.393  0.00  0.00    -0.392 OA
ATOM     38  H   LIG    1       21.898 -20.705   6.931  0.00  0.00    +0.209 HD
ENDBRANCH  36  37
ENDBRANCH  33  36
ENDBRANCH  32  33
ENDBRANCH  29  32
ENDBRANCH   7  28
TORSDOF 15
ENDMDL
MODEL 2
REMARK VINA RESULT:      11.2      1.615      1.929
REMARK  Name = *****
REMARK                            x       y       z     vdW  Elec       q    Type
REMARK                         _______ _______ _______ _____ _____    ______ ____
ROOT
ATOM      1  C   LIG    1       27.040 -18.160   4.501  0.00  0.00    +0.064 A 
ATOM      2  C   LIG    1       27.082 -16.753   4.342  0.00  0.00    +0.049 A 
ATOM      3  I   LIG    1       28.630 -15.629   5.317  0.00  0.00    -0.041 I 
ATOM      4  C   LIG    1       25.987 -16.081   3.764  0.00  0.00    +0.065 A 
ATOM      5  C   LIG    1       24.752 -16.764   3.713  0.00  0.00    +0.040 A 
ATOM      6  I   LIG    1       22.995 -15.536   3.988  0.00  0.00    -0.042 I 
ATOM      7  C   LIG    1       24.690 -18.176   3.803  0.00  0.00    +0.065 A 
ATOM      8  C   LIG    1       25.896 -18.860   4.054  0.00  0.00    +0.049 A 
ATOM      9  I   LIG    1       26.176 -20.936   3.489  0.00  0.00    -0.041 I 
ENDROOT
BRANCH   1  11
ATOM     10  C   LIG    1       29.436 -18.787   4.702  0.00  0.00    +0.138 C 
ATOM     11  N   LIG    1       28.069 -18.879   5.201  0.00  0.00    -0.271 N 
ATOM     12  C   LIG    1       27.700 -19.684   6.292  0.00  0.00    +0.245 C 
ATOM     13  O   LIG    1       26.535 -19.778   6.688  0.00  0.00    -0.273 OA
BRANCH  12  14
ATOM     14  C   LIG    1       28.843 -20.385   7.047  0.00  0.00    +0.252 C 
BRANCH  14  15
ATOM     15  O   LIG    1       29.467 -21.403   6.282  0.00  0.00    -0.386 OA
ATOM     16  H   LIG    1       29.951 -21.984   6.893  0.00  0.00    +0.210 HD
ENDBRANCH  14  15
ENDBRANCH  12  14
ENDBRANCH   1  11
BRANCH   4  17
ATOM     17  C   LIG    1       26.173 -14.773   3.017  0.00  0.00    +0.246 C 
ATOM     18  N   LIG    1       25.999 -13.616   3.772  0.00  0.00    -0.309 N 
ATOM     19  H   LIG    1       25.922 -13.680   4.780  0.00  0.00    +0.149 HD
ATOM     20  O   LIG    1       26.377 -14.710   1.812  0.00  0.00    -0.270 OA
BRANCH  18  21
ATOM     21  C   LIG    1       26.068 -12.275   3.188  0.00  0.00    +0.138 C 
BRANCH  21  22
ATOM     22  C   LIG    1       24.715 -11.536   3.066  0.00  0.00    +0.157 C 
BRANCH  22  23
ATOM     23  O   LIG    1       23.886 -11.731   4.222  0.00  0.00    -0.388 OA
ATOM     24  H   LIG    1       23.005 -11.364   4.016  0.00  0.00    +0.210 HD
ENDBRANCH  22  23
BRANCH  22  25
ATOM     25  C   LIG    1       23.950 -12.081   1.846  0.00  0.00    +0.188 C 
BRANCH  25  26
ATOM     26  O   LIG    1       23.812 -13.498   1.914  0.00  0.00    -0.392 OA
ATOM     27  H   LIG    1       23.324 -13.759   1.110  0.00  0.00    +0.209 HD
ENDBRANCH  25  26
ENDBRANCH  22  25
ENDBRANCH  21  22
ENDBRANCH  18  21
ENDBRANCH   4  17
BRANCH   7  28
ATOM     28  C   LIG    1       23.393 -18.907   3.654  0.00  0.00    +0.246 C 
ATOM     29  N   LIG    1       22.477 -18.759   4.666  0.00  0.00    -0.309 N 
ATOM     30  H   LIG    1       22.822 -18.464   5.578  0.00  0.00    +0.149 HD
ATOM     31  O   LIG    1       23.172 -19.603   2.653  0.00  0.00    -0.270 OA
BRANCH  29  32
ATOM     32  C   LIG    1       21.215 -19.484   4.692  0.00  0.00    +0.138 C 
BRANCH  32  33
ATOM     33  C   LIG    1       21.403 -21.005   4.769  0.00  0.00    +0.157 C 
BRANCH  33  34
ATOM     34  O   LIG    1       22.242 -21.447   3.691  0.00  0.00    -0.388 OA
ATOM     35  H   LIG    1       23.038 -20.878   3.717  0.00  0.00    +0.210 HD
ENDBRANCH  33  34
BRANCH  33  36
ATOM     36  C   LIG    1       22.006 -21.474   6.098  0.00  0.00    +0.188 C 
BRANCH  36  37
ATOM     37  O   LIG    1       23.219 -20.751   6.335  0.00  0.00    -0.392 OA
ATOM     38  H   LIG    1       23.003 -19.803   6.336  0.00  0.00    +0.209 HD
ENDBRANCH  36  37
ENDBRANCH  33  36
ENDBRANCH  32  33
ENDBRANCH  29  32
ENDBRANCH   7  28
TORSDOF 15
ENDMDL
MODEL 3
REMARK VINA RESULT:      12.0      1.590      2.200
REMARK  Name = *****
REMARK                            x       y       z     vdW  Elec       q    Type
REMARK                         _______ _______ _______ _____ _____    ______ ____
ROOT
ATOM      1  C   LIG    1       26.083 -18.992   4.558  0.00  0.00    +0.064 A 
ATOM      2  C   LIG    1       26.498 -17.663   4.298  0.00  0.00    +0.049 A 
ATOM      3  I   LIG    1       28.476 -17.048   4.862  0.00  0.00    -0.041 I 
ATOM      4  C   LIG    1       25.548 -16.697   3.906  0.00  0.00    +0.065 A 
ATOM      5  C   LIG    1       24.187 -16.980   4.152  0.00  0.00    +0.040 A 
ATOM      6  I   LIG    1       22.964 -15.281   4.689  0.00  0.00    -0.042 I 
ATOM      7  C   LIG    1       23.738 -18.308   4.349  0.00  0.00    +0.065 A 
ATOM      8  C   LIG    1       24.716 -19.320   4.400  0.00  0.00    +0.049 A 
ATOM      9  I   LIG    1       24.253 -21.388   3.934  0.00  0.00    -0.041 I 
ENDROOT
BRANCH   1  11
ATOM     10  C   LIG    1       28.078 -20.437   4.239  0.00  0.00    +0.138 C 
ATOM     11  N   LIG    1       26.982 -19.982   5.085  0.00  0.00    -0.271 N 
ATOM     12  C   LIG    1       26.725 -20.507   6.363  0.00  0.00    +0.245 C 
ATOM     13  O   LIG    1       25.777 -20.135   7.059  0.00  0.00    -0.273 OA
BRANCH  12  14
ATOM     14  C   LIG    1       27.749 -21.518   6.909  0.00  0.00    +0.252 C 
BRANCH  14  15
ATOM     15  O   LIG    1       29.091 -21.119   6.685  0.00  0.00    -0.386 OA
ATOM     16  H   LIG    1       29.161 -20.795   5.771  0.00  0.00    +0.210 HD
ENDBRANCH  14  15
ENDBRANCH  12  14
ENDBRANCH   1  11
BRANCH   4  17
ATOM     17  C   LIG    1       25.944 -15.509   3.049  0.00  0.00    +0.246 C 
ATOM     18  N   LIG    1       26.506 -14.433   3.730  0.00  0.00    -0.309 N 
ATOM     19  H   LIG    1       26.772 -14.536   4.702  0.00  0.00    +0.149 HD
ATOM     20  O   LIG    1       25.717 -15.441   1.848  0.00  0.00    -0.270 OA
BRANCH  18  21
ATOM     21  C   LIG    1       26.872 -13.181   3.063  0.00  0.00    +0.138 C 
BRANCH  21  22
ATOM     22  C   LIG    1       28.262 -12.616   3.435  0.00  0.00    +0.157 C 
BRANCH  22  23
ATOM     23  O   LIG    1       29.287 -13.620   3.378  0.00  0.00    -0.388 OA
ATOM     24  H   LIG    1       30.147 -13.164   3.456  0.00  0.00    +0.210 HD
ENDBRANCH  22  23
BRANCH  22  25
ATOM     25  C   LIG    1       28.219 -12.073   4.874  0.00  0.00    +0.188 C 
BRANCH  25  26
ATOM     26  O   LIG    1       28.013 -13.124   5.815  0.00  0.00    -0.392 OA
ATOM     27  H   LIG    1       27.045 -13.219   5.902  0.00  0.00    +0.209 HD
ENDBRANCH  25  26
ENDBRANCH  22  25
ENDBRANCH  21  22
ENDBRANCH  18  21
ENDBRANCH   4  17
BRANCH   7  28
ATOM     28  C   LIG    1       22.283 -18.619   4.515  0.00  0.00    +0.246 C 
ATOM     29  N   LIG    1       21.662 -19.260   3.471  0.00  0.00    -0.309 N 
ATOM     30  H   LIG    1       22.093 -19.193   2.550  0.00  0.00    +0.149 HD
ATOM     31  O   LIG    1       21.686 -18.309   5.555  0.00  0.00    -0.270 OA
BRANCH  29  32
ATOM     32  C   LIG    1       20.234 -19.540   3.463  0.00  0.00    +0.138 C 
BRANCH  32  33
ATOM     33  C   LIG    1       19.383 -18.288   3.208  0.00  0.00    +0.157 C 
BRANCH  33  34
ATOM     34  O   LIG    1       19.665 -17.297   4.208  0.00  0.00    -0.388 OA
ATOM     35  H   LIG    1       20.278 -17.720   4.843  0.00  0.00    +0.210 HD
ENDBRANCH  33  34
BRANCH  33  36
ATOM     36  C   LIG    1       19.605 -17.677   1.820  0.00  0.00    +0.188 C 
BRANCH  36  37
ATOM     37  O   LIG    1       20.851 -16.974   1.819  0.00  0.00    -0.392 OA
ATOM     38  H   LIG    1       21.562 -17.632   1.729  0.00  0.00    +0.209 HD
ENDBRANCH  36  37
ENDBRANCH  33  36
ENDBRANCH  32  33
ENDBRANCH  29  32
ENDBRANCH   7  28
TORSDOF 15
ENDMDL
