MODEL 1
REMARK VINA RESULT:      -5.2      0.000      0.000
REMARK  Name = *****
REMARK                            x       y       z     vdW  Elec       q    Type
REMARK                         _______ _______ _______ _____ _____    ______ ____
ROOT
ATOM      1  C   LIG    1       24.284 -31.600   8.929  0.00  0.00    +0.009 A 
ATOM      2  C   LIG    1       23.778 -32.664   8.175  0.00  0.00    +0.125 A 
ATOM      3  C   LIG    1       22.499 -33.159   8.418  0.00  0.00    +0.092 A 
ATOM      4  C   LIG    1       21.734 -32.626   9.457  0.00  0.00    +0.140 A 
ATOM      5  O   LIG    1       20.524 -33.227   9.651  0.00  0.00    -0.455 OA
ATOM      6  C   LIG    1       19.638 -32.631  10.503  0.00  0.00    +0.140 A 
ATOM      7  C   LIG    1       19.905 -31.497  11.271  0.00  0.00    +0.048 A 
ATOM      8  C   LIG    1       21.347 -31.029  11.384  0.00  0.00    +0.196 C 
ATOM      9  C   LIG    1       21.868 -31.331  12.753  0.00  0.00    +0.019 A 
ATOM     10  C   LIG    1       22.167 -30.146  13.404  0.00  0.00    +0.067 A 
ATOM     11  C   LIG    1       22.671 -30.096  14.702  0.00  0.00    +0.015 A 
ATOM     12  C   LIG    1       22.853 -31.302  15.374  0.00  0.00    +0.001 A 
ATOM     13  C   LIG    1       22.531 -32.516  14.746  0.00  0.00    +0.001 A 
ATOM     14  C   LIG    1       21.912 -29.066  12.489  0.00  0.00    +0.341 C 
ATOM     15  O   LIG    1       22.097 -27.837  12.717  0.00  0.00    -0.245 OA
ATOM     16  C   LIG    1       22.035 -32.537  13.432  0.00  0.00    +0.009 A 
ATOM     17  O   LIG    1       21.400 -29.570  11.348  0.00  0.00    -0.440 OA
ATOM     18  C   LIG    1       18.849 -30.926  12.010  0.00  0.00    +0.020 A 
ATOM     19  C   LIG    1       17.583 -31.547  12.070  0.00  0.00    +0.009 A 
ATOM     20  C   LIG    1       17.448 -32.800  11.463  0.00  0.00    +0.125 A 
ATOM     21  C   LIG    1       18.422 -33.283  10.601  0.00  0.00    +0.092 A 
ATOM     22  C   LIG    1       22.183 -31.553  10.220  0.00  0.00    +0.048 A 
ATOM     23  C   LIG    1       23.423 -31.001   9.871  0.00  0.00    +0.020 A 
ENDROOT
BRANCH  20  24
ATOM     24  O   LIG    1       16.320 -33.547  11.641  0.00  0.00    -0.506 OA
ATOM     25  H   LIG    1       16.457 -34.095  12.432  0.00  0.00    +0.292 HD
ENDBRANCH  20  24
BRANCH   2  26
ATOM     26  O   LIG    1       24.526 -33.216   7.174  0.00  0.00    -0.506 OA
ATOM     27  H   LIG    1       24.882 -34.067   7.486  0.00  0.00    +0.292 HD
ENDBRANCH   2  26
BRANCH  19  28
ATOM     28  C   LIG    1       16.436 -30.843  12.771  0.00  0.00    +0.124 C 
BRANCH  28  29
ATOM     29  N   LIG    1       16.687 -30.378  14.175  0.00  0.00    -0.278 NA
BRANCH  29  30
ATOM     30  C   LIG    1       16.148 -28.984  14.330  0.00  0.00    +0.206 C 
BRANCH  30  31
ATOM     31  C   LIG    1       17.118 -27.779  14.375  0.00  0.00    +0.319 C 
ATOM     32  O   LIG    1       16.780 -26.698  14.853  0.00  0.00    -0.250 OA
BRANCH  31  33
ATOM     33  O   LIG    1       18.410 -27.936  14.023  0.00  0.00    -0.480 OA
ATOM     34  H   LIG    1       19.018 -27.225  14.275  0.00  0.00    +0.295 HD
ENDBRANCH  31  33
ENDBRANCH  30  31
ENDBRANCH  29  30
BRANCH  29  35
ATOM     35  C   LIG    1       16.241 -31.345  15.185  0.00  0.00    +0.206 C 
BRANCH  35  36
ATOM     36  C   LIG    1       16.899 -32.727  15.238  0.00  0.00    +0.319 C 
ATOM     37  O   LIG    1       18.067 -32.951  15.500  0.00  0.00    -0.250 OA
BRANCH  36  38
ATOM     38  O   LIG    1       16.087 -33.731  14.792  0.00  0.00    -0.480 OA
ATOM     39  H   LIG    1       15.143 -33.511  14.659  0.00  0.00    +0.295 HD
ENDBRANCH  36  38
ENDBRANCH  35  36
ENDBRANCH  29  35
ENDBRANCH  28  29
ENDBRANCH  19  28
BRANCH   1  40
ATOM     40  C   LIG    1       25.696 -31.068   8.763  0.00  0.00    +0.124 C 
BRANCH  40  41
ATOM     41  N   LIG    1       25.875 -29.744   8.073  0.00  0.00    -0.278 NA
BRANCH  41  42
ATOM     42  C   LIG    1       24.535 -29.451   7.434  0.00  0.00    +0.206 C 
BRANCH  42  43
ATOM     43  C   LIG    1       24.505 -29.719   5.931  0.00  0.00    +0.319 C 
ATOM     44  O   LIG    1       25.493 -29.968   5.255  0.00  0.00    -0.250 OA
BRANCH  43  45
ATOM     45  O   LIG    1       23.260 -29.670   5.403  0.00  0.00    -0.480 OA
ATOM     46  H   LIG    1       22.663 -29.070   5.892  0.00  0.00    +0.295 HD
ENDBRANCH  43  45
ENDBRANCH  42  43
ENDBRANCH  41  42
BRANCH  41  47
ATOM     47  C   LIG    1       26.177 -28.573   8.959  0.00  0.00    +0.206 C 
BRANCH  47  49
ATOM     48  O   LIG    1       25.828 -28.803  11.306  0.00  0.00    -0.250 OA
ATOM     49  C   LIG    1       26.607 -28.886  10.368  0.00  0.00    +0.319 C 
BRANCH  49  50
ATOM     50  O   LIG    1       27.900 -29.247  10.518  0.00  0.00    -0.480 OA
ATOM     51  H   LIG    1       28.399 -29.025   9.703  0.00  0.00    +0.295 HD
ENDBRANCH  49  50
ENDBRANCH  47  49
ENDBRANCH  41  47
ENDBRANCH  40  41
ENDBRANCH   1  40
TORSDOF 18
ENDMDL
MODEL 2
REMARK VINA RESULT:      -4.8      4.814      8.308
REMARK  Name = *****
REMARK                            x       y       z     vdW  Elec       q    Type
REMARK                         _______ _______ _______ _____ _____    ______ ____
ROOT
ATOM      1  C   LIG    1       25.172 -30.057   6.465  0.00  0.00    +0.009 A 
ATOM      2  C   LIG    1       25.506 -28.715   6.260  0.00  0.00    +0.125 A 
ATOM      3  C   LIG    1       25.932 -27.921   7.321  0.00  0.00    +0.092 A 
ATOM      4  C   LIG    1       25.977 -28.452   8.612  0.00  0.00    +0.140 A 
ATOM      5  O   LIG    1       26.344 -27.571   9.587  0.00  0.00    -0.455 OA
ATOM      6  C   LIG    1       26.612 -28.064  10.834  0.00  0.00    +0.140 A 
ATOM      7  C   LIG    1       26.449 -29.394  11.219  0.00  0.00    +0.048 A 
ATOM      8  C   LIG    1       25.680 -30.323  10.293  0.00  0.00    +0.196 C 
ATOM      9  C   LIG    1       24.339 -30.624  10.884  0.00  0.00    +0.019 A 
ATOM     10  C   LIG    1       24.254 -31.977  11.166  0.00  0.00    +0.067 A 
ATOM     11  C   LIG    1       23.124 -32.569  11.729  0.00  0.00    +0.015 A 
ATOM     12  C   LIG    1       22.047 -31.743  12.039  0.00  0.00    +0.001 A 
ATOM     13  C   LIG    1       22.119 -30.363  11.789  0.00  0.00    +0.001 A 
ATOM     14  C   LIG    1       25.477 -32.595  10.730  0.00  0.00    +0.341 C 
ATOM     15  O   LIG    1       25.756 -33.825  10.796  0.00  0.00    -0.245 OA
ATOM     16  C   LIG    1       23.266 -29.796  11.210  0.00  0.00    +0.009 A 
ATOM     17  O   LIG    1       26.312 -31.639  10.272  0.00  0.00    -0.440 OA
ATOM     18  C   LIG    1       26.885 -29.777  12.504  0.00  0.00    +0.020 A 
ATOM     19  C   LIG    1       27.366 -28.819  13.424  0.00  0.00    +0.009 A 
ATOM     20  C   LIG    1       27.291 -27.472  13.055  0.00  0.00    +0.125 A 
ATOM     21  C   LIG    1       27.023 -27.107  11.743  0.00  0.00    +0.092 A 
ATOM     22  C   LIG    1       25.676 -29.786   8.865  0.00  0.00    +0.048 A 
ATOM     23  C   LIG    1       25.367 -30.588   7.757  0.00  0.00    +0.020 A 
ENDROOT
BRANCH  20  24
ATOM     24  O   LIG    1       27.553 -26.483  13.957  0.00  0.00    -0.506 OA
ATOM     25  H   LIG    1       28.221 -25.899  13.561  0.00  0.00    +0.292 HD
ENDBRANCH  20  24
BRANCH   2  26
ATOM     26  O   LIG    1       25.440 -28.172   5.008  0.00  0.00    -0.506 OA
ATOM     27  H   LIG    1       24.504 -28.121   4.741  0.00  0.00    +0.292 HD
ENDBRANCH   2  26
BRANCH  19  28
ATOM     28  C   LIG    1       27.942 -29.280  14.751  0.00  0.00    +0.124 C 
BRANCH  28  29
ATOM     29  N   LIG    1       28.909 -30.425  14.705  0.00  0.00    -0.278 NA
BRANCH  29  30
ATOM     30  C   LIG    1       30.285 -29.912  15.020  0.00  0.00    +0.206 C 
BRANCH  30  31
ATOM     31  C   LIG    1       31.212 -29.430  13.878  0.00  0.00    +0.319 C 
ATOM     32  O   LIG    1       31.196 -29.960  12.769  0.00  0.00    -0.250 OA
BRANCH  31  33
ATOM     33  O   LIG    1       31.954 -28.316  14.032  0.00  0.00    -0.480 OA
ATOM     34  H   LIG    1       31.833 -27.618  13.370  0.00  0.00    +0.295 HD
ENDBRANCH  31  33
ENDBRANCH  30  31
ENDBRANCH  29  30
BRANCH  29  35
ATOM     35  C   LIG    1       28.466 -31.577  15.499  0.00  0.00    +0.206 C 
BRANCH  35  36
ATOM     36  C   LIG    1       27.151 -32.273  15.136  0.00  0.00    +0.319 C 
ATOM     37  O   LIG    1       26.035 -31.807  15.279  0.00  0.00    -0.250 OA
BRANCH  36  38
ATOM     38  O   LIG    1       27.313 -33.580  14.772  0.00  0.00    -0.480 OA
ATOM     39  H   LIG    1       26.791 -33.895  14.007  0.00  0.00    +0.295 HD
ENDBRANCH  36  38
ENDBRANCH  35  36
ENDBRANCH  29  35
ENDBRANCH  28  29
ENDBRANCH  19  28
BRANCH   1  40
ATOM     40  C   LIG    1       24.628 -30.951   5.365  0.00  0.00    +0.124 C 
BRANCH  40  41
ATOM     41  N   LIG    1       25.552 -31.978   4.771  0.00  0.00    -0.278 NA
BRANCH  41  42
ATOM     42  C   LIG    1       25.219 -33.268   5.487  0.00  0.00    +0.206 C 
BRANCH  42  43
ATOM     43  C   LIG    1       23.725 -33.458   5.739  0.00  0.00    +0.319 C 
ATOM     44  O   LIG    1       22.893 -33.622   4.858  0.00  0.00    -0.250 OA
BRANCH  43  45
ATOM     45  O   LIG    1       23.397 -33.445   7.052  0.00  0.00    -0.480 OA
ATOM     46  H   LIG    1       23.911 -32.791   7.565  0.00  0.00    +0.295 HD
ENDBRANCH  43  45
ENDBRANCH  42  43
ENDBRANCH  41  42
BRANCH  41  47
ATOM     47  C   LIG    1       25.376 -32.258   3.309  0.00  0.00    +0.206 C 
BRANCH  47  49
ATOM     48  O   LIG    1       27.484 -33.368   3.223  0.00  0.00    -0.250 OA
ATOM     49  C   LIG    1       26.532 -32.915   2.603  0.00  0.00    +0.319 C 
BRANCH  49  50
ATOM     50  O   LIG    1       26.448 -32.957   1.255  0.00  0.00    -0.480 OA
ATOM     51  H   LIG    1       26.831 -32.136   0.878  0.00  0.00    +0.295 HD
ENDBRANCH  49  50
ENDBRANCH  47  49
ENDBRANCH  41  47
ENDBRANCH  40  41
ENDBRANCH   1  40
TORSDOF 18
ENDMDL
MODEL 3
REMARK VINA RESULT:      -4.8      2.347      3.370
REMARK  Name = *****
REMARK                            x       y       z     vdW  Elec       q    Type
REMARK                         _______ _______ _______ _____ _____    ______ ____
ROOT
ATOM      1  C   LIG    1       25.494 -29.477   8.999  0.00  0.00    +0.009 A 
ATOM      2  C   LIG    1       25.240 -30.764   8.514  0.00  0.00    +0.125 A 
ATOM      3  C   LIG    1       24.434 -31.644   9.231  0.00  0.00    +0.092 A 
ATOM      4  C   LIG    1       23.918 -31.260  10.471  0.00  0.00    +0.140 A 
ATOM      5  O   LIG    1       23.198 -32.221  11.119  0.00  0.00    -0.455 OA
ATOM      6  C   LIG    1       22.490 -31.856  12.230  0.00  0.00    +0.140 A 
ATOM      7  C   LIG    1       22.519 -30.590  12.816  0.00  0.00    +0.048 A 
ATOM      8  C   LIG    1       23.594 -29.614  12.368  0.00  0.00    +0.196 C 
ATOM      9  C   LIG    1       24.620 -29.466  13.446  0.00  0.00    +0.019 A 
ATOM     10  C   LIG    1       24.616 -28.162  13.911  0.00  0.00    +0.067 A 
ATOM     11  C   LIG    1       25.462 -27.711  14.922  0.00  0.00    +0.015 A 
ATOM     12  C   LIG    1       26.330 -28.633  15.500  0.00  0.00    +0.001 A 
ATOM     13  C   LIG    1       26.335 -29.968  15.065  0.00  0.00    +0.001 A 
ATOM     14  C   LIG    1       23.655 -27.423  13.137  0.00  0.00    +0.341 C 
ATOM     15  O   LIG    1       23.392 -26.193  13.253  0.00  0.00    -0.245 OA
ATOM     16  C   LIG    1       25.479 -30.393  14.036  0.00  0.00    +0.009 A 
ATOM     17  O   LIG    1       23.038 -28.266  12.284  0.00  0.00    -0.440 OA
ATOM     18  C   LIG    1       21.639 -30.329  13.887  0.00  0.00    +0.020 A 
ATOM     19  C   LIG    1       20.833 -31.352  14.433  0.00  0.00    +0.009 A 
ATOM     20  C   LIG    1       21.019 -32.651  13.948  0.00  0.00    +0.125 A 
ATOM     21  C   LIG    1       21.752 -32.881  12.793  0.00  0.00    +0.092 A 
ATOM     22  C   LIG    1       24.124 -29.985  10.986  0.00  0.00    +0.048 A 
ATOM     23  C   LIG    1       24.838 -29.085  10.184  0.00  0.00    +0.020 A 
ENDROOT
BRANCH  20  24
ATOM     24  O   LIG    1       20.422 -33.717  14.554  0.00  0.00    -0.506 OA
ATOM     25  H   LIG    1       20.987 -33.981  15.299  0.00  0.00    +0.292 HD
ENDBRANCH  20  24
BRANCH   2  26
ATOM     26  O   LIG    1       25.761 -31.164   7.317  0.00  0.00    -0.506 OA
ATOM     27  H   LIG    1       25.246 -30.752   6.600  0.00  0.00    +0.292 HD
ENDBRANCH   2  26
BRANCH  19  28
ATOM     28  C   LIG    1       19.810 -31.009  15.500  0.00  0.00    +0.124 C 
BRANCH  28  29
ATOM     29  N   LIG    1       18.611 -30.223  15.057  0.00  0.00    -0.278 NA
BRANCH  29  30
ATOM     30  C   LIG    1       18.872 -28.763  15.292  0.00  0.00    +0.206 C 
BRANCH  30  31
ATOM     31  C   LIG    1       18.083 -27.697  14.495  0.00  0.00    +0.319 C 
ATOM     32  O   LIG    1       16.881 -27.516  14.679  0.00  0.00    -0.250 OA
BRANCH  31  33
ATOM     33  O   LIG    1       18.732 -26.839  13.684  0.00  0.00    -0.480 OA
ATOM     34  H   LIG    1       18.368 -25.944  13.617  0.00  0.00    +0.295 HD
ENDBRANCH  31  33
ENDBRANCH  30  31
ENDBRANCH  29  30
BRANCH  29  35
ATOM     35  C   LIG    1       18.166 -30.578  13.704  0.00  0.00    +0.206 C 
BRANCH  35  36
ATOM     36  C   LIG    1       16.677 -30.832  13.450  0.00  0.00    +0.319 C 
ATOM     37  O   LIG    1       16.188 -31.217  12.404  0.00  0.00    -0.250 OA
BRANCH  36  38
ATOM     38  O   LIG    1       15.875 -30.425  14.479  0.00  0.00    -0.480 OA
ATOM     39  H   LIG    1       14.941 -30.232  14.264  0.00  0.00    +0.295 HD
ENDBRANCH  36  38
ENDBRANCH  35  36
ENDBRANCH  29  35
ENDBRANCH  28  29
ENDBRANCH  19  28
BRANCH   1  40
ATOM     40  C   LIG    1       26.425 -28.500   8.302  0.00  0.00    +0.124 C 
BRANCH  40  41
ATOM     41  N   LIG    1       25.914 -27.789   7.080  0.00  0.00    -0.278 NA
BRANCH  41  42
ATOM     42  C   LIG    1       24.468 -28.214   6.955  0.00  0.00    +0.206 C 
BRANCH  42  43
ATOM     43  C   LIG    1       24.138 -28.873   5.618  0.00  0.00    +0.319 C 
ATOM     44  O   LIG    1       24.622 -28.537   4.546  0.00  0.00    -0.250 OA
BRANCH  43  45
ATOM     45  O   LIG    1       23.255 -29.892   5.726  0.00  0.00    -0.480 OA
ATOM     46  H   LIG    1       23.129 -30.377   4.887  0.00  0.00    +0.295 HD
ENDBRANCH  43  45
ENDBRANCH  42  43
ENDBRANCH  41  42
BRANCH  41  47
ATOM     47  C   LIG    1       25.903 -26.292   7.143  0.00  0.00    +0.206 C 
BRANCH  47  49
ATOM     48  O   LIG    1       25.366 -24.419   5.770  0.00  0.00    -0.250 OA
ATOM     49  C   LIG    1       25.797 -25.561   5.830  0.00  0.00    +0.319 C 
BRANCH  49  50
ATOM     50  O   LIG    1       26.196 -26.253   4.741  0.00  0.00    -0.480 OA
ATOM     51  H   LIG    1       26.095 -25.693   3.942  0.00  0.00    +0.295 HD
ENDBRANCH  49  50
ENDBRANCH  47  49
ENDBRANCH  41  47
ENDBRANCH  40  41
ENDBRANCH   1  40
TORSDOF 18
ENDMDL
MODEL 4
REMARK VINA RESULT:      -4.6      3.232      6.451
REMARK  Name = *****
REMARK                            x       y       z     vdW  Elec       q    Type
REMARK                         _______ _______ _______ _____ _____    ______ ____
ROOT
ATOM      1  C   LIG    1       22.214 -32.753   9.567  0.00  0.00    +0.009 A 
ATOM      2  C   LIG    1       20.830 -32.673   9.756  0.00  0.00    +0.125 A 
ATOM      3  C   LIG    1       20.287 -31.719  10.612  0.00  0.00    +0.092 A 
ATOM      4  C   LIG    1       21.130 -30.868  11.329  0.00  0.00    +0.140 A 
ATOM      5  O   LIG    1       20.498 -30.017  12.188  0.00  0.00    -0.455 OA
ATOM      6  C   LIG    1       21.233 -29.019  12.764  0.00  0.00    +0.140 A 
ATOM      7  C   LIG    1       22.610 -28.855  12.618  0.00  0.00    +0.048 A 
ATOM      8  C   LIG    1       23.409 -29.990  12.000  0.00  0.00    +0.196 C 
ATOM      9  C   LIG    1       24.218 -30.671  13.058  0.00  0.00    +0.019 A 
ATOM     10  C   LIG    1       25.565 -30.507  12.785  0.00  0.00    +0.067 A 
ATOM     11  C   LIG    1       26.576 -31.027  13.592  0.00  0.00    +0.015 A 
ATOM     12  C   LIG    1       26.196 -31.719  14.739  0.00  0.00    +0.001 A 
ATOM     13  C   LIG    1       24.837 -31.875  15.054  0.00  0.00    +0.001 A 
ATOM     14  C   LIG    1       25.678 -29.785  11.546  0.00  0.00    +0.341 C 
ATOM     15  O   LIG    1       26.752 -29.473  10.960  0.00  0.00    -0.245 OA
ATOM     16  C   LIG    1       23.840 -31.350  14.215  0.00  0.00    +0.009 A 
ATOM     17  O   LIG    1       24.443 -29.450  11.121  0.00  0.00    -0.440 OA
ATOM     18  C   LIG    1       23.209 -27.705  13.174  0.00  0.00    +0.020 A 
ATOM     19  C   LIG    1       22.460 -26.802  13.959  0.00  0.00    +0.009 A 
ATOM     20  C   LIG    1       21.137 -27.144  14.255  0.00  0.00    +0.125 A 
ATOM     21  C   LIG    1       20.501 -28.176  13.580  0.00  0.00    +0.092 A 
ATOM     22  C   LIG    1       22.511 -30.894  11.160  0.00  0.00    +0.048 A 
ATOM     23  C   LIG    1       23.016 -31.783  10.203  0.00  0.00    +0.020 A 
ENDROOT
BRANCH  20  24
ATOM     24  O   LIG    1       20.413 -26.426  15.160  0.00  0.00    -0.506 OA
ATOM     25  H   LIG    1       19.525 -26.297  14.786  0.00  0.00    +0.292 HD
ENDBRANCH  20  24
BRANCH   2  26
ATOM     26  O   LIG    1       19.994 -33.517   9.083  0.00  0.00    -0.506 OA
ATOM     27  H   LIG    1       20.515 -34.008   8.422  0.00  0.00    +0.292 HD
ENDBRANCH   2  26
BRANCH  19  28
ATOM     28  C   LIG    1       23.105 -25.513  14.437  0.00  0.00    +0.124 C 
BRANCH  28  29
ATOM     29  N   LIG    1       24.580 -25.556  14.704  0.00  0.00    -0.278 NA
BRANCH  29  30
ATOM     30  C   LIG    1       25.303 -25.782  13.407  0.00  0.00    +0.206 C 
BRANCH  30  31
ATOM     31  C   LIG    1       26.761 -26.301  13.413  0.00  0.00    +0.319 C 
ATOM     32  O   LIG    1       27.025 -27.476  13.658  0.00  0.00    -0.250 OA
BRANCH  31  33
ATOM     33  O   LIG    1       27.765 -25.502  13.001  0.00  0.00    -0.480 OA
ATOM     34  H   LIG    1       27.592 -24.952  12.222  0.00  0.00    +0.295 HD
ENDBRANCH  31  33
ENDBRANCH  30  31
ENDBRANCH  29  30
BRANCH  29  35
ATOM     35  C   LIG    1       25.049 -24.414  15.499  0.00  0.00    +0.206 C 
BRANCH  35  36
ATOM     36  C   LIG    1       25.933 -23.354  14.835  0.00  0.00    +0.319 C 
ATOM     37  O   LIG    1       27.140 -23.256  14.956  0.00  0.00    -0.250 OA
BRANCH  36  38
ATOM     38  O   LIG    1       25.221 -22.380  14.193  0.00  0.00    -0.480 OA
ATOM     39  H   LIG    1       25.715 -21.589  13.902  0.00  0.00    +0.295 HD
ENDBRANCH  36  38
ENDBRANCH  35  36
ENDBRANCH  29  35
ENDBRANCH  28  29
ENDBRANCH  19  28
BRANCH   1  40
ATOM     40  C   LIG    1       22.871 -33.820   8.709  0.00  0.00    +0.124 C 
BRANCH  40  41
ATOM     41  N   LIG    1       24.216 -33.514   8.111  0.00  0.00    -0.278 NA
BRANCH  41  42
ATOM     42  C   LIG    1       24.086 -32.117   7.546  0.00  0.00    +0.206 C 
BRANCH  42  43
ATOM     43  C   LIG    1       23.680 -32.089   6.074  0.00  0.00    +0.319 C 
ATOM     44  O   LIG    1       23.653 -33.073   5.348  0.00  0.00    -0.250 OA
BRANCH  43  45
ATOM     45  O   LIG    1       23.331 -30.857   5.638  0.00  0.00    -0.480 OA
ATOM     46  H   LIG    1       22.363 -30.736   5.574  0.00  0.00    +0.295 HD
ENDBRANCH  43  45
ENDBRANCH  42  43
ENDBRANCH  41  42
BRANCH  41  47
ATOM     47  C   LIG    1       25.369 -33.468   9.067  0.00  0.00    +0.206 C 
BRANCH  47  49
ATOM     48  O   LIG    1       26.952 -32.921   7.371  0.00  0.00    -0.250 OA
ATOM     49  C   LIG    1       26.649 -32.862   8.554  0.00  0.00    +0.319 C 
BRANCH  49  50
ATOM     50  O   LIG    1       27.429 -32.269   9.483  0.00  0.00    -0.480 OA
ATOM     51  H   LIG    1       27.988 -32.945   9.922  0.00  0.00    +0.295 HD
ENDBRANCH  49  50
ENDBRANCH  47  49
ENDBRANCH  41  47
ENDBRANCH  40  41
ENDBRANCH   1  40
TORSDOF 18
ENDMDL
MODEL 5
REMARK VINA RESULT:      -4.2      2.557      3.831
REMARK  Name = *****
REMARK                            x       y       z     vdW  Elec       q    Type
REMARK                         _______ _______ _______ _____ _____    ______ ____
ROOT
ATOM      1  C   LIG    1       25.165 -29.056   8.104  0.00  0.00    +0.009 A 
ATOM      2  C   LIG    1       24.622 -30.066   7.303  0.00  0.00    +0.125 A 
ATOM      3  C   LIG    1       23.699 -30.967   7.829  0.00  0.00    +0.092 A 
ATOM      4  C   LIG    1       23.351 -30.896   9.180  0.00  0.00    +0.140 A 
ATOM      5  O   LIG    1       22.491 -31.865   9.607  0.00  0.00    -0.455 OA
ATOM      6  C   LIG    1       21.944 -31.739  10.853  0.00  0.00    +0.140 A 
ATOM      7  C   LIG    1       22.268 -30.739  11.770  0.00  0.00    +0.048 A 
ATOM      8  C   LIG    1       23.490 -29.879  11.495  0.00  0.00    +0.196 C 
ATOM      9  C   LIG    1       24.590 -30.252  12.437  0.00  0.00    +0.019 A 
ATOM     10  C   LIG    1       24.883 -29.174  13.255  0.00  0.00    +0.067 A 
ATOM     11  C   LIG    1       25.865 -29.211  14.243  0.00  0.00    +0.015 A 
ATOM     12  C   LIG    1       26.560 -30.404  14.422  0.00  0.00    +0.001 A 
ATOM     13  C   LIG    1       26.263 -31.521  13.624  0.00  0.00    +0.001 A 
ATOM     14  C   LIG    1       24.048 -28.076  12.849  0.00  0.00    +0.341 C 
ATOM     15  O   LIG    1       24.051 -26.914  13.345  0.00  0.00    -0.245 OA
ATOM     16  C   LIG    1       25.276 -31.451  12.628  0.00  0.00    +0.009 A 
ATOM     17  O   LIG    1       23.218 -28.494  11.871  0.00  0.00    -0.440 OA
ATOM     18  C   LIG    1       21.529 -30.667  12.969  0.00  0.00    +0.020 A 
ATOM     19  C   LIG    1       20.566 -31.648  13.291  0.00  0.00    +0.009 A 
ATOM     20  C   LIG    1       20.451 -32.747  12.434  0.00  0.00    +0.125 A 
ATOM     21  C   LIG    1       21.048 -32.739  11.181  0.00  0.00    +0.092 A 
ATOM     22  C   LIG    1       23.846 -29.896  10.011  0.00  0.00    +0.048 A 
ATOM     23  C   LIG    1       24.678 -28.935   9.422  0.00  0.00    +0.020 A 
ENDROOT
BRANCH  20  24
ATOM     24  O   LIG    1       19.687 -33.824  12.775  0.00  0.00    -0.506 OA
ATOM     25  H   LIG    1       20.204 -34.361  13.399  0.00  0.00    +0.292 HD
ENDBRANCH  20  24
BRANCH   2  26
ATOM     26  O   LIG    1       24.975 -30.167   5.988  0.00  0.00    -0.506 OA
ATOM     27  H   LIG    1       25.258 -31.082   5.812  0.00  0.00    +0.292 HD
ENDBRANCH   2  26
BRANCH  19  28
ATOM     28  C   LIG    1       19.703 -31.473  14.527  0.00  0.00    +0.124 C 
BRANCH  28  29
ATOM     29  N   LIG    1       18.486 -30.609  14.383  0.00  0.00    -0.278 NA
BRANCH  29  30
ATOM     30  C   LIG    1       17.262 -31.477  14.453  0.00  0.00    +0.206 C 
BRANCH  30  31
ATOM     31  C   LIG    1       16.269 -31.511  13.267  0.00  0.00    +0.319 C 
ATOM     32  O   LIG    1       15.775 -30.481  12.811  0.00  0.00    -0.250 OA
BRANCH  31  33
ATOM     33  O   LIG    1       16.037 -32.665  12.610  0.00  0.00    -0.480 OA
ATOM     34  H   LIG    1       16.721 -32.956  11.988  0.00  0.00    +0.295 HD
ENDBRANCH  31  33
ENDBRANCH  30  31
ENDBRANCH  29  30
BRANCH  29  35
ATOM     35  C   LIG    1       18.496 -29.454  15.290  0.00  0.00    +0.206 C 
BRANCH  35  36
ATOM     36  C   LIG    1       18.670 -28.048  14.707  0.00  0.00    +0.319 C 
ATOM     37  O   LIG    1       18.121 -27.038  15.108  0.00  0.00    -0.250 OA
BRANCH  36  38
ATOM     38  O   LIG    1       19.395 -28.029  13.550  0.00  0.00    -0.480 OA
ATOM     39  H   LIG    1       18.896 -28.116  12.713  0.00  0.00    +0.295 HD
ENDBRANCH  36  38
ENDBRANCH  35  36
ENDBRANCH  29  35
ENDBRANCH  28  29
ENDBRANCH  19  28
BRANCH   1  40
ATOM     40  C   LIG    1       26.231 -28.094   7.610  0.00  0.00    +0.124 C 
BRANCH  40  41
ATOM     41  N   LIG    1       25.792 -26.733   7.145  0.00  0.00    -0.278 NA
BRANCH  41  42
ATOM     42  C   LIG    1       26.810 -26.327   6.103  0.00  0.00    +0.206 C 
BRANCH  42  43
ATOM     43  C   LIG    1       26.844 -27.252   4.888  0.00  0.00    +0.319 C 
ATOM     44  O   LIG    1       25.851 -27.733   4.361  0.00  0.00    -0.250 OA
BRANCH  43  45
ATOM     45  O   LIG    1       28.095 -27.486   4.428  0.00  0.00    -0.480 OA
ATOM     46  H   LIG    1       28.258 -27.087   3.550  0.00  0.00    +0.295 HD
ENDBRANCH  43  45
ENDBRANCH  42  43
ENDBRANCH  41  42
BRANCH  41  47
ATOM     47  C   LIG    1       24.456 -26.667   6.468  0.00  0.00    +0.206 C 
BRANCH  47  49
ATOM     48  O   LIG    1       23.266 -24.621   6.750  0.00  0.00    -0.250 OA
ATOM     49  C   LIG    1       23.986 -25.303   6.035  0.00  0.00    +0.319 C 
BRANCH  49  50
ATOM     50  O   LIG    1       24.401 -24.900   4.815  0.00  0.00    -0.480 OA
ATOM     51  H   LIG    1       25.280 -25.291   4.622  0.00  0.00    +0.295 HD
ENDBRANCH  49  50
ENDBRANCH  47  49
ENDBRANCH  41  47
ENDBRANCH  40  41
ENDBRANCH   1  40
TORSDOF 18
ENDMDL
MODEL 6
REMARK VINA RESULT:      -3.1      3.440      6.921
REMARK  Name = *****
REMARK                            x       y       z     vdW  Elec       q    Type
REMARK                         _______ _______ _______ _____ _____    ______ ____
ROOT
ATOM      1  C   LIG    1       22.483 -32.071   9.466  0.00  0.00    +0.009 A 
ATOM      2  C   LIG    1       21.115 -31.991   9.746  0.00  0.00    +0.125 A 
ATOM      3  C   LIG    1       20.637 -31.081  10.685  0.00  0.00    +0.092 A 
ATOM      4  C   LIG    1       21.534 -30.277  11.393  0.00  0.00    +0.140 A 
ATOM      5  O   LIG    1       20.966 -29.469  12.335  0.00  0.00    -0.455 OA
ATOM      6  C   LIG    1       21.747 -28.510  12.916  0.00  0.00    +0.140 A 
ATOM      7  C   LIG    1       23.114 -28.349  12.693  0.00  0.00    +0.048 A 
ATOM      8  C   LIG    1       23.860 -29.455  11.965  0.00  0.00    +0.196 C 
ATOM      9  C   LIG    1       24.726 -30.199  12.931  0.00  0.00    +0.019 A 
ATOM     10  C   LIG    1       26.055 -30.032  12.582  0.00  0.00    +0.067 A 
ATOM     11  C   LIG    1       27.108 -30.602  13.295  0.00  0.00    +0.015 A 
ATOM     12  C   LIG    1       26.794 -31.354  14.424  0.00  0.00    +0.001 A 
ATOM     13  C   LIG    1       25.455 -31.516  14.815  0.00  0.00    +0.001 A 
ATOM     14  C   LIG    1       26.098 -29.244  11.380  0.00  0.00    +0.341 C 
ATOM     15  O   LIG    1       27.137 -28.909  10.745  0.00  0.00    -0.245 OA
ATOM     16  C   LIG    1       24.413 -30.938  14.071  0.00  0.00    +0.009 A 
ATOM     17  O   LIG    1       24.842 -28.876  11.052  0.00  0.00    -0.440 OA
ATOM     18  C   LIG    1       23.760 -27.236  13.271  0.00  0.00    +0.020 A 
ATOM     19  C   LIG    1       23.072 -26.371  14.150  0.00  0.00    +0.009 A 
ATOM     20  C   LIG    1       21.766 -26.719  14.509  0.00  0.00    +0.125 A 
ATOM     21  C   LIG    1       21.077 -27.708  13.822  0.00  0.00    +0.092 A 
ATOM     22  C   LIG    1       22.900 -30.304  11.136  0.00  0.00    +0.048 A 
ATOM     23  C   LIG    1       23.335 -31.144  10.101  0.00  0.00    +0.020 A 
ENDROOT
BRANCH  20  24
ATOM     24  O   LIG    1       21.108 -26.045  15.496  0.00  0.00    -0.506 OA
ATOM     25  H   LIG    1       21.778 -25.593  16.036  0.00  0.00    +0.292 HD
ENDBRANCH  20  24
BRANCH   2  26
ATOM     26  O   LIG    1       20.228 -32.790   9.083  0.00  0.00    -0.506 OA
ATOM     27  H   LIG    1       19.373 -32.758   9.548  0.00  0.00    +0.292 HD
ENDBRANCH   2  26
BRANCH  19  28
ATOM     28  C   LIG    1       23.760 -25.116  14.655  0.00  0.00    +0.124 C 
BRANCH  28  29
ATOM     29  N   LIG    1       25.047 -25.306  15.402  0.00  0.00    -0.278 NA
BRANCH  29  30
ATOM     30  C   LIG    1       25.409 -26.764  15.383  0.00  0.00    +0.206 C 
BRANCH  30  31
ATOM     31  C   LIG    1       26.852 -27.198  15.031  0.00  0.00    +0.319 C 
ATOM     32  O   LIG    1       27.339 -28.235  15.478  0.00  0.00    -0.250 OA
BRANCH  31  33
ATOM     33  O   LIG    1       27.557 -26.521  14.103  0.00  0.00    -0.480 OA
ATOM     34  H   LIG    1       27.229 -26.563  13.192  0.00  0.00    +0.295 HD
ENDBRANCH  31  33
ENDBRANCH  30  31
ENDBRANCH  29  30
BRANCH  29  35
ATOM     35  C   LIG    1       26.102 -24.385  14.962  0.00  0.00    +0.206 C 
BRANCH  35  36
ATOM     36  C   LIG    1       25.719 -22.977  14.497  0.00  0.00    +0.319 C 
ATOM     37  O   LIG    1       25.805 -21.960  15.160  0.00  0.00    -0.250 OA
BRANCH  36  38
ATOM     38  O   LIG    1       25.091 -22.961  13.283  0.00  0.00    -0.480 OA
ATOM     39  H   LIG    1       25.428 -23.577  12.603  0.00  0.00    +0.295 HD
ENDBRANCH  36  38
ENDBRANCH  35  36
ENDBRANCH  29  35
ENDBRANCH  28  29
ENDBRANCH  19  28
BRANCH   1  40
ATOM     40  C   LIG    1       23.073 -33.095   8.512  0.00  0.00    +0.124 C 
BRANCH  40  41
ATOM     41  N   LIG    1       24.264 -32.687   7.689  0.00  0.00    -0.278 NA
BRANCH  41  42
ATOM     42  C   LIG    1       25.369 -33.634   8.102  0.00  0.00    +0.206 C 
BRANCH  42  43
ATOM     43  C   LIG    1       26.504 -32.955   8.863  0.00  0.00    +0.319 C 
ATOM     44  O   LIG    1       26.575 -31.750   9.062  0.00  0.00    -0.250 OA
BRANCH  43  45
ATOM     45  O   LIG    1       27.437 -33.821   9.320  0.00  0.00    -0.480 OA
ATOM     46  H   LIG    1       28.285 -33.386   9.540  0.00  0.00    +0.295 HD
ENDBRANCH  43  45
ENDBRANCH  42  43
ENDBRANCH  41  42
BRANCH  41  47
ATOM     47  C   LIG    1       24.123 -32.835   6.205  0.00  0.00    +0.206 C 
BRANCH  47  49
ATOM     48  O   LIG    1       24.449 -30.589   5.475  0.00  0.00    -0.250 OA
ATOM     49  C   LIG    1       24.760 -31.765   5.357  0.00  0.00    +0.319 C 
BRANCH  49  50
ATOM     50  O   LIG    1       25.675 -32.195   4.462  0.00  0.00    -0.480 OA
ATOM     51  H   LIG    1       26.420 -31.557   4.422  0.00  0.00    +0.295 HD
ENDBRANCH  49  50
ENDBRANCH  47  49
ENDBRANCH  41  47
ENDBRANCH  40  41
ENDBRANCH   1  40
TORSDOF 18
ENDMDL
MODEL 7
REMARK VINA RESULT:      -2.9      8.970     12.931
REMARK  Name = *****
REMARK                            x       y       z     vdW  Elec       q    Type
REMARK                         _______ _______ _______ _____ _____    ______ ____
ROOT
ATOM      1  C   LIG    1       22.943 -18.910   4.885  0.00  0.00    +0.009 A 
ATOM      2  C   LIG    1       22.528 -19.566   3.721  0.00  0.00    +0.125 A 
ATOM      3  C   LIG    1       22.915 -20.880   3.474  0.00  0.00    +0.092 A 
ATOM      4  C   LIG    1       23.767 -21.534   4.366  0.00  0.00    +0.140 A 
ATOM      5  O   LIG    1       24.137 -22.793   3.995  0.00  0.00    -0.455 OA
ATOM      6  C   LIG    1       24.794 -23.568   4.910  0.00  0.00    +0.140 A 
ATOM      7  C   LIG    1       25.204 -23.140   6.172  0.00  0.00    +0.048 A 
ATOM      8  C   LIG    1       25.165 -21.651   6.475  0.00  0.00    +0.196 C 
ATOM      9  C   LIG    1       26.557 -21.108   6.510  0.00  0.00    +0.019 A 
ATOM     10  C   LIG    1       26.842 -20.648   7.785  0.00  0.00    +0.067 A 
ATOM     11  C   LIG    1       28.066 -20.085   8.137  0.00  0.00    +0.015 A 
ATOM     12  C   LIG    1       29.051 -20.010   7.155  0.00  0.00    +0.001 A 
ATOM     13  C   LIG    1       28.798 -20.495   5.862  0.00  0.00    +0.001 A 
ATOM     14  C   LIG    1       25.660 -20.819   8.586  0.00  0.00    +0.341 C 
ATOM     15  O   LIG    1       25.526 -20.487   9.798  0.00  0.00    -0.245 OA
ATOM     16  C   LIG    1       27.550 -21.048   5.532  0.00  0.00    +0.009 A 
ATOM     17  O   LIG    1       24.715 -21.435   7.848  0.00  0.00    -0.440 OA
ATOM     18  C   LIG    1       25.761 -24.091   7.052  0.00  0.00    +0.020 A 
ATOM     19  C   LIG    1       26.008 -25.415   6.631  0.00  0.00    +0.009 A 
ATOM     20  C   LIG    1       25.784 -25.719   5.284  0.00  0.00    +0.125 A 
ATOM     21  C   LIG    1       25.086 -24.844   4.464  0.00  0.00    +0.092 A 
ATOM     22  C   LIG    1       24.189 -20.932   5.548  0.00  0.00    +0.048 A 
ATOM     23  C   LIG    1       23.685 -19.655   5.825  0.00  0.00    +0.020 A 
ENDROOT
BRANCH  20  24
ATOM     24  O   LIG    1       26.180 -26.914   4.760  0.00  0.00    -0.506 OA
ATOM     25  H   LIG    1       26.167 -27.566   5.481  0.00  0.00    +0.292 HD
ENDBRANCH  20  24
BRANCH   2  26
ATOM     26  O   LIG    1       21.718 -18.930   2.824  0.00  0.00    -0.506 OA
ATOM     27  H   LIG    1       21.982 -17.993   2.778  0.00  0.00    +0.292 HD
ENDBRANCH   2  26
BRANCH  19  28
ATOM     28  C   LIG    1       26.492 -26.443   7.638  0.00  0.00    +0.124 C 
BRANCH  28  29
ATOM     29  N   LIG    1       25.891 -27.814   7.544  0.00  0.00    -0.278 NA
BRANCH  29  30
ATOM     30  C   LIG    1       26.122 -28.536   8.841  0.00  0.00    +0.206 C 
BRANCH  30  31
ATOM     31  C   LIG    1       26.603 -30.007   8.834  0.00  0.00    +0.319 C 
ATOM     32  O   LIG    1       27.010 -30.556   9.856  0.00  0.00    -0.250 OA
BRANCH  31  33
ATOM     33  O   LIG    1       26.447 -30.765   7.731  0.00  0.00    -0.480 OA
ATOM     34  H   LIG    1       26.723 -30.372   6.889  0.00  0.00    +0.295 HD
ENDBRANCH  31  33
ENDBRANCH  30  31
ENDBRANCH  29  30
BRANCH  29  35
ATOM     35  C   LIG    1       24.503 -27.797   7.067  0.00  0.00    +0.206 C 
BRANCH  35  36
ATOM     36  C   LIG    1       23.974 -28.989   6.263  0.00  0.00    +0.319 C 
ATOM     37  O   LIG    1       23.778 -30.109   6.696  0.00  0.00    -0.250 OA
BRANCH  36  38
ATOM     38  O   LIG    1       23.885 -28.740   4.923  0.00  0.00    -0.480 OA
ATOM     39  H   LIG    1       23.460 -29.427   4.372  0.00  0.00    +0.295 HD
ENDBRANCH  36  38
ENDBRANCH  35  36
ENDBRANCH  29  35
ENDBRANCH  28  29
ENDBRANCH  19  28
BRANCH   1  40
ATOM     40  C   LIG    1       22.619 -17.455   5.174  0.00  0.00    +0.124 C 
BRANCH  40  41
ATOM     41  N   LIG    1       23.606 -16.411   4.728  0.00  0.00    -0.278 NA
BRANCH  41  42
ATOM     42  C   LIG    1       24.138 -16.914   3.404  0.00  0.00    +0.206 C 
BRANCH  42  43
ATOM     43  C   LIG    1       25.651 -17.114   3.390  0.00  0.00    +0.319 C 
ATOM     44  O   LIG    1       26.464 -16.207   3.283  0.00  0.00    -0.250 OA
BRANCH  43  45
ATOM     45  O   LIG    1       26.022 -18.408   3.524  0.00  0.00    -0.480 OA
ATOM     46  H   LIG    1       26.138 -18.675   4.457  0.00  0.00    +0.295 HD
ENDBRANCH  43  45
ENDBRANCH  42  43
ENDBRANCH  41  42
BRANCH  41  47
ATOM     47  C   LIG    1       23.048 -15.046   4.460  0.00  0.00    +0.206 C 
BRANCH  47  49
ATOM     48  O   LIG    1       24.942 -13.606   4.609  0.00  0.00    -0.250 OA
ATOM     49  C   LIG    1       24.010 -14.016   3.931  0.00  0.00    +0.319 C 
BRANCH  49  50
ATOM     50  O   LIG    1       23.766 -13.575   2.678  0.00  0.00    -0.480 OA
ATOM     51  H   LIG    1       24.498 -12.989   2.389  0.00  0.00    +0.295 HD
ENDBRANCH  49  50
ENDBRANCH  47  49
ENDBRANCH  41  47
ENDBRANCH  40  41
ENDBRANCH   1  40
TORSDOF 18
ENDMDL
MODEL 8
REMARK VINA RESULT:      -2.4      3.388      5.452
REMARK  Name = *****
REMARK                            x       y       z     vdW  Elec       q    Type
REMARK                         _______ _______ _______ _____ _____    ______ ____
ROOT
ATOM      1  C   LIG    1       25.894 -27.291   6.988  0.00  0.00    +0.009 A 
ATOM      2  C   LIG    1       25.325 -28.256   6.150  0.00  0.00    +0.125 A 
ATOM      3  C   LIG    1       24.754 -29.408   6.683  0.00  0.00    +0.092 A 
ATOM      4  C   LIG    1       24.796 -29.631   8.062  0.00  0.00    +0.140 A 
ATOM      5  O   LIG    1       24.268 -30.821   8.471  0.00  0.00    -0.455 OA
ATOM      6  C   LIG    1       24.083 -31.016   9.811  0.00  0.00    +0.140 A 
ATOM      7  C   LIG    1       24.481 -30.129  10.811  0.00  0.00    +0.048 A 
ATOM      8  C   LIG    1       25.412 -28.989  10.433  0.00  0.00    +0.196 C 
ATOM      9  C   LIG    1       26.780 -29.256  10.974  0.00  0.00    +0.019 A 
ATOM     10  C   LIG    1       27.106 -28.284  11.904  0.00  0.00    +0.067 A 
ATOM     11  C   LIG    1       28.319 -28.261  12.590  0.00  0.00    +0.015 A 
ATOM     12  C   LIG    1       29.227 -29.285  12.335  0.00  0.00    +0.001 A 
ATOM     13  C   LIG    1       28.910 -30.298  11.416  0.00  0.00    +0.001 A 
ATOM     14  C   LIG    1       26.018 -27.346  11.958  0.00  0.00    +0.341 C 
ATOM     15  O   LIG    1       25.965 -26.305  12.673  0.00  0.00    -0.245 OA
ATOM     16  C   LIG    1       27.683 -30.290  10.732  0.00  0.00    +0.009 A 
ATOM     17  O   LIG    1       25.028 -27.775  11.149  0.00  0.00    -0.440 OA
ATOM     18  C   LIG    1       24.110 -30.411  12.142  0.00  0.00    +0.020 A 
ATOM     19  C   LIG    1       23.458 -31.618  12.475  0.00  0.00    +0.009 A 
ATOM     20  C   LIG    1       23.291 -32.566  11.460  0.00  0.00    +0.125 A 
ATOM     21  C   LIG    1       23.499 -32.228  10.130  0.00  0.00    +0.092 A 
ATOM     22  C   LIG    1       25.330 -28.692   8.938  0.00  0.00    +0.048 A 
ATOM     23  C   LIG    1       25.787 -27.491   8.380  0.00  0.00    +0.020 A 
ENDROOT
BRANCH  20  24
ATOM     24  O   LIG    1       22.848 -33.824  11.742  0.00  0.00    -0.506 OA
ATOM     25  H   LIG    1       21.916 -33.872  11.471  0.00  0.00    +0.292 HD
ENDBRANCH  20  24
BRANCH   2  26
ATOM     26  O   LIG    1       25.302 -28.066   4.798  0.00  0.00    -0.506 OA
ATOM     27  H   LIG    1       25.782 -27.244   4.592  0.00  0.00    +0.292 HD
ENDBRANCH   2  26
BRANCH  19  28
ATOM     28  C   LIG    1       22.964 -31.835  13.894  0.00  0.00    +0.124 C 
BRANCH  28  29
ATOM     29  N   LIG    1       21.534 -31.476  14.173  0.00  0.00    -0.278 NA
BRANCH  29  30
ATOM     30  C   LIG    1       21.079 -30.469  13.156  0.00  0.00    +0.206 C 
BRANCH  30  31
ATOM     31  C   LIG    1       20.384 -29.165  13.615  0.00  0.00    +0.319 C 
ATOM     32  O   LIG    1       21.031 -28.174  13.950  0.00  0.00    -0.250 OA
BRANCH  31  33
ATOM     33  O   LIG    1       19.046 -29.039  13.516  0.00  0.00    -0.480 OA
ATOM     34  H   LIG    1       18.683 -28.148  13.635  0.00  0.00    +0.295 HD
ENDBRANCH  31  33
ENDBRANCH  30  31
ENDBRANCH  29  30
BRANCH  29  35
ATOM     35  C   LIG    1       20.671 -32.653  14.329  0.00  0.00    +0.206 C 
BRANCH  35  36
ATOM     36  C   LIG    1       19.709 -33.030  13.198  0.00  0.00    +0.319 C 
ATOM     37  O   LIG    1       20.024 -33.518  12.128  0.00  0.00    -0.250 OA
BRANCH  36  38
ATOM     38  O   LIG    1       18.427 -32.613  13.417  0.00  0.00    -0.480 OA
ATOM     39  H   LIG    1       18.304 -31.681  13.687  0.00  0.00    +0.295 HD
ENDBRANCH  36  38
ENDBRANCH  35  36
ENDBRANCH  29  35
ENDBRANCH  28  29
ENDBRANCH  19  28
BRANCH   1  40
ATOM     40  C   LIG    1       26.599 -26.053   6.463  0.00  0.00    +0.124 C 
BRANCH  40  41
ATOM     41  N   LIG    1       25.808 -24.777   6.373  0.00  0.00    -0.278 NA
BRANCH  41  42
ATOM     42  C   LIG    1       24.361 -25.214   6.330  0.00  0.00    +0.206 C 
BRANCH  42  43
ATOM     43  C   LIG    1       23.372 -24.051   6.300  0.00  0.00    +0.319 C 
ATOM     44  O   LIG    1       22.354 -23.995   6.975  0.00  0.00    -0.250 OA
BRANCH  43  45
ATOM     45  O   LIG    1       23.735 -23.061   5.453  0.00  0.00    -0.480 OA
ATOM     46  H   LIG    1       24.229 -22.343   5.897  0.00  0.00    +0.295 HD
ENDBRANCH  43  45
ENDBRANCH  42  43
ENDBRANCH  41  42
BRANCH  41  47
ATOM     47  C   LIG    1       25.925 -23.843   7.539  0.00  0.00    +0.206 C 
BRANCH  47  49
ATOM     48  O   LIG    1       27.239 -21.932   8.088  0.00  0.00    -0.250 OA
ATOM     49  C   LIG    1       26.531 -22.492   7.264  0.00  0.00    +0.319 C 
BRANCH  49  50
ATOM     50  O   LIG    1       26.230 -21.948   6.065  0.00  0.00    -0.480 OA
ATOM     51  H   LIG    1       26.763 -22.383   5.365  0.00  0.00    +0.295 HD
ENDBRANCH  49  50
ENDBRANCH  47  49
ENDBRANCH  41  47
ENDBRANCH  40  41
ENDBRANCH   1  40
TORSDOF 18
ENDMDL
MODEL 9
REMARK VINA RESULT:      -2.3      3.392      5.757
REMARK  Name = *****
REMARK                            x       y       z     vdW  Elec       q    Type
REMARK                         _______ _______ _______ _____ _____    ______ ____
ROOT
ATOM      1  C   LIG    1       25.889 -27.325   6.853  0.00  0.00    +0.009 A 
ATOM      2  C   LIG    1       25.317 -28.278   6.005  0.00  0.00    +0.125 A 
ATOM      3  C   LIG    1       24.722 -29.423   6.526  0.00  0.00    +0.092 A 
ATOM      4  C   LIG    1       24.740 -29.651   7.904  0.00  0.00    +0.140 A 
ATOM      5  O   LIG    1       24.189 -30.833   8.302  0.00  0.00    -0.455 OA
ATOM      6  C   LIG    1       23.982 -31.030   9.639  0.00  0.00    +0.140 A 
ATOM      7  C   LIG    1       24.379 -30.152  10.647  0.00  0.00    +0.048 A 
ATOM      8  C   LIG    1       25.333 -29.025  10.285  0.00  0.00    +0.196 C 
ATOM      9  C   LIG    1       26.689 -29.315  10.845  0.00  0.00    +0.019 A 
ATOM     10  C   LIG    1       27.017 -28.351  11.783  0.00  0.00    +0.067 A 
ATOM     11  C   LIG    1       28.221 -28.348  12.485  0.00  0.00    +0.015 A 
ATOM     12  C   LIG    1       29.116 -29.386  12.240  0.00  0.00    +0.001 A 
ATOM     13  C   LIG    1       28.796 -30.392  11.314  0.00  0.00    +0.001 A 
ATOM     14  C   LIG    1       25.942 -27.396  11.825  0.00  0.00    +0.341 C 
ATOM     15  O   LIG    1       25.896 -26.357  12.542  0.00  0.00    -0.245 OA
ATOM     16  C   LIG    1       27.580 -30.362  10.612  0.00  0.00    +0.009 A 
ATOM     17  O   LIG    1       24.958 -27.808  11.000  0.00  0.00    -0.440 OA
ATOM     18  C   LIG    1       23.986 -30.433  11.972  0.00  0.00    +0.020 A 
ATOM     19  C   LIG    1       23.310 -31.630  12.292  0.00  0.00    +0.009 A 
ATOM     20  C   LIG    1       23.144 -32.572  11.271  0.00  0.00    +0.125 A 
ATOM     21  C   LIG    1       23.375 -32.234   9.946  0.00  0.00    +0.092 A 
ATOM     22  C   LIG    1       25.277 -28.723   8.791  0.00  0.00    +0.048 A 
ATOM     23  C   LIG    1       25.760 -27.527   8.243  0.00  0.00    +0.020 A 
ENDROOT
BRANCH  20  24
ATOM     24  O   LIG    1       22.677 -33.825  11.543  0.00  0.00    -0.506 OA
ATOM     25  H   LIG    1       22.699 -34.330  10.713  0.00  0.00    +0.292 HD
ENDBRANCH  20  24
BRANCH   2  26
ATOM     26  O   LIG    1       25.316 -28.084   4.652  0.00  0.00    -0.506 OA
ATOM     27  H   LIG    1       25.893 -27.326   4.447  0.00  0.00    +0.292 HD
ENDBRANCH   2  26
BRANCH  19  28
ATOM     28  C   LIG    1       22.793 -31.844  13.703  0.00  0.00    +0.124 C 
BRANCH  28  29
ATOM     29  N   LIG    1       21.942 -30.752  14.282  0.00  0.00    -0.278 NA
BRANCH  29  30
ATOM     30  C   LIG    1       20.531 -31.251  14.406  0.00  0.00    +0.206 C 
BRANCH  30  31
ATOM     31  C   LIG    1       19.413 -30.639  13.528  0.00  0.00    +0.319 C 
ATOM     32  O   LIG    1       18.293 -30.409  13.979  0.00  0.00    -0.250 OA
BRANCH  31  33
ATOM     33  O   LIG    1       19.691 -30.206  12.282  0.00  0.00    -0.480 OA
ATOM     34  H   LIG    1       19.017 -30.367  11.605  0.00  0.00    +0.295 HD
ENDBRANCH  31  33
ENDBRANCH  30  31
ENDBRANCH  29  30
BRANCH  29  35
ATOM     35  C   LIG    1       22.517 -30.166  15.499  0.00  0.00    +0.206 C 
BRANCH  35  36
ATOM     36  C   LIG    1       23.175 -28.785  15.424  0.00  0.00    +0.319 C 
ATOM     37  O   LIG    1       22.593 -27.724  15.293  0.00  0.00    -0.250 OA
BRANCH  36  38
ATOM     38  O   LIG    1       24.538 -28.840  15.348  0.00  0.00    -0.480 OA
ATOM     39  H   LIG    1       24.927 -29.017  14.469  0.00  0.00    +0.295 HD
ENDBRANCH  36  38
ENDBRANCH  35  36
ENDBRANCH  29  35
ENDBRANCH  28  29
ENDBRANCH  19  28
BRANCH   1  40
ATOM     40  C   LIG    1       26.620 -26.096   6.342  0.00  0.00    +0.124 C 
BRANCH  40  41
ATOM     41  N   LIG    1       25.879 -24.788   6.332  0.00  0.00    -0.278 NA
BRANCH  41  42
ATOM     42  C   LIG    1       24.447 -25.151   6.007  0.00  0.00    +0.206 C 
BRANCH  42  43
ATOM     43  C   LIG    1       23.478 -23.976   6.118  0.00  0.00    +0.319 C 
ATOM     44  O   LIG    1       22.489 -23.964   6.838  0.00  0.00    -0.250 OA
BRANCH  43  45
ATOM     45  O   LIG    1       23.825 -22.921   5.346  0.00  0.00    -0.480 OA
ATOM     46  H   LIG    1       23.905 -22.089   5.853  0.00  0.00    +0.295 HD
ENDBRANCH  43  45
ENDBRANCH  42  43
ENDBRANCH  41  42
BRANCH  41  47
ATOM     47  C   LIG    1       25.833 -24.045   7.633  0.00  0.00    +0.206 C 
BRANCH  47  49
ATOM     48  O   LIG    1       26.458 -21.975   8.637  0.00  0.00    -0.250 OA
ATOM     49  C   LIG    1       26.281 -22.607   7.606  0.00  0.00    +0.319 C 
BRANCH  49  50
ATOM     50  O   LIG    1       26.459 -22.073   6.378  0.00  0.00    -0.480 OA
ATOM     51  H   LIG    1       27.063 -21.302   6.441  0.00  0.00    +0.295 HD
ENDBRANCH  49  50
ENDBRANCH  47  49
ENDBRANCH  41  47
ENDBRANCH  40  41
ENDBRANCH   1  40
TORSDOF 18
ENDMDL
