MODEL 1
REMARK VINA RESULT:      -0.4      0.000      0.000
REMARK  Name = *****
REMARK                            x       y       z     vdW  Elec       q    Type
REMARK                         _______ _______ _______ _____ _____    ______ ____
ROOT
ATOM      1  C   LIG    1       20.205 -33.389   8.344  0.00  0.00    +0.162 A 
ATOM      2  C   LIG    1       18.842 -33.084   8.404  0.00  0.00    +0.159 A 
ATOM      3  C   LIG    1       18.272 -32.677   9.605  0.00  0.00    +0.053 A 
ATOM      4  C   LIG    1       19.056 -32.561  10.760  0.00  0.00    -0.037 A 
ATOM      5  C   LIG    1       18.366 -32.070  12.017  0.00  0.00    +0.051 C 
ATOM      6  C   LIG    1       19.174 -32.195  13.309  0.00  0.00    +0.087 C 
ATOM      7  N   LIG    1       20.407 -32.933  13.155  0.00  0.00    -0.297 NA
ATOM      8  H   LIG    1       20.975 -32.905  14.008  0.00  0.00    +0.123 HD
ATOM      9  C   LIG    1       21.273 -32.541  11.977  0.00  0.00    +0.152 C 
ATOM     10  C   LIG    1       22.601 -33.351  12.315  0.00  0.00    +0.333 C 
ATOM     11  O   LIG    1       22.868 -33.666  13.480  0.00  0.00    -0.248 OA
ATOM     12  O   LIG    1       23.497 -33.525  11.310  0.00  0.00    -0.461 OA
ATOM     13  C   LIG    1       24.883 -33.825  11.682  0.00  0.00    +0.256 C 
ATOM     14  C   LIG    1       25.910 -32.603  11.531  0.00  0.00    +0.131 C 
ATOM     15  N   LIG    1       25.857 -31.394  12.418  0.00  0.00    -0.260 NA
ATOM     16  C   LIG    1       25.566 -31.715  13.808  0.00  0.00    +0.204 C 
ATOM     17  C   LIG    1       24.899 -30.630  14.733  0.00  0.00    +0.105 C 
ATOM     18  N   LIG    1       23.938 -29.806  13.966  0.00  0.00    -0.290 NA
ATOM     19  C   LIG    1       24.689 -29.112  12.888  0.00  0.00    +0.109 C 
ATOM     20  C   LIG    1       25.861 -28.289  13.451  0.00  0.00    +0.019 A 
ATOM     21  C   LIG    1       26.371 -27.169  12.787  0.00  0.00    +0.164 A 
ATOM     22  C   LIG    1       27.409 -26.363  13.324  0.00  0.00    +0.165 A 
ATOM     23  C   LIG    1       27.983 -26.710  14.555  0.00  0.00    -0.005 A 
ATOM     24  C   LIG    1       29.107 -25.986  15.237  0.00  0.00    +0.048 C 
ATOM     25  C   LIG    1       27.485 -27.846  15.215  0.00  0.00    +0.011 A 
ATOM     26  C   LIG    1       26.450 -28.627  14.678  0.00  0.00    -0.037 A 
ATOM     27  C   LIG    1       23.142 -28.896  14.786  0.00  0.00    +0.106 C 
ATOM     28  C   LIG    1       25.918 -29.770  15.499  0.00  0.00    +0.058 C 
ATOM     29  C   LIG    1       25.175 -30.174  11.829  0.00  0.00    +0.099 C 
ATOM     30  C   LIG    1       24.120 -30.669  10.767  0.00  0.00    +0.099 C 
ATOM     31  C   LIG    1       24.883 -31.320   9.595  0.00  0.00    +0.018 A 
ATOM     32  C   LIG    1       24.742 -31.144   8.189  0.00  0.00    +0.143 A 
ATOM     33  C   LIG    1       25.580 -31.843   7.276  0.00  0.00    +0.038 A 
ATOM     34  C   LIG    1       26.626 -32.583   7.816  0.00  0.00    +0.173 A 
ATOM     35  O   LIG    1       27.579 -33.260   7.107  0.00  0.00    -0.452 OA
ATOM     36  C   LIG    1       28.382 -33.809   8.167  0.00  0.00    +0.466 C 
ATOM     37  O   LIG    1       27.807 -33.603   9.469  0.00  0.00    -0.452 OA
ATOM     38  C   LIG    1       26.772 -32.775   9.164  0.00  0.00    +0.172 A 
ATOM     39  C   LIG    1       25.428 -31.866   5.783  0.00  0.00    +0.051 C 
ATOM     40  S   LIG    1       22.429 -30.064  10.571  0.00  0.00    -0.148 S 
ATOM     41  C   LIG    1       25.898 -32.207  10.064  0.00  0.00    +0.026 A 
ATOM     42  C   LIG    1       21.576 -30.985  11.993  0.00  0.00    +0.108 C 
ATOM     43  C   LIG    1       20.447 -32.856  10.726  0.00  0.00    -0.009 A 
ATOM     44  C   LIG    1       20.992 -33.287   9.508  0.00  0.00    +0.055 A 
ENDROOT
BRANCH   1  46
ATOM     45  C   LIG    1       22.317 -33.819   7.350  0.00  0.00    +0.277 C 
ATOM     46  O   LIG    1       20.898 -33.825   7.244  0.00  0.00    -0.491 OA
ENDBRANCH   1  46
BRANCH   2  47
ATOM     47  O   LIG    1       18.033 -33.180   7.307  0.00  0.00    -0.503 OA
ATOM     48  H   LIG    1       17.258 -32.609   7.435  0.00  0.00    +0.292 HD
ENDBRANCH   2  47
BRANCH  16  49
ATOM     49  O   LIG    1       26.782 -32.181  14.362  0.00  0.00    -0.376 OA
ATOM     50  H   LIG    1       26.562 -33.098  14.610  0.00  0.00    +0.211 HD
ENDBRANCH  16  49
BRANCH  21  51
ATOM     51  O   LIG    1       25.826 -26.822  11.574  0.00  0.00    -0.503 OA
ATOM     52  H   LIG    1       26.282 -27.394  10.925  0.00  0.00    +0.292 HD
ENDBRANCH  21  51
BRANCH  22  53
ATOM     53  O   LIG    1       27.762 -25.327  12.491  0.00  0.00    -0.491 OA
ATOM     54  C   LIG    1       28.138 -24.090  13.078  0.00  0.00    +0.277 C 
ENDBRANCH  22  53
BRANCH  32  55
ATOM     55  O   LIG    1       23.647 -30.355   7.754  0.00  0.00    -0.425 OA
BRANCH  55  56
ATOM     56  C   LIG    1       23.697 -29.354   6.774  0.00  0.00    +0.309 C 
ATOM     57  O   LIG    1       23.156 -29.364   5.684  0.00  0.00    -0.251 OA
ATOM     58  C   LIG    1       24.605 -28.255   7.248  0.00  0.00    +0.136 C 
ENDBRANCH  55  56
ENDBRANCH  32  55
TORSDOF 7
ENDMDL
