MODEL 1
REMARK VINA RESULT:      -3.5      0.000      0.000
REMARK  Name = *****
REMARK                            x       y       z     vdW  Elec       q    Type
REMARK                         _______ _______ _______ _____ _____    ______ ____
ROOT
ATOM      1  O   LIG    1       21.892 -20.242   4.407  0.00  0.00    -0.271 OA
ATOM      2  C   LIG    1       22.909 -19.640   4.054  0.00  0.00    +0.269 C 
ATOM      3  C   LIG    1       24.039 -20.300   3.223  0.00  0.00    +0.320 C 
ATOM      4  N   LIG    1       25.230 -20.385   4.053  0.00  0.00    -0.243 NA
ATOM      5  C   LIG    1       25.853 -19.303   4.374  0.00  0.00    +0.079 C 
ATOM      6  C   LIG    1       25.453 -17.917   3.977  0.00  0.00    +0.023 A 
ATOM      7  C   LIG    1       24.122 -17.471   4.065  0.00  0.00    +0.043 A 
ATOM      8  C   LIG    1       23.845 -16.106   3.910  0.00  0.00    +0.025 A 
ATOM      9  C   LIG    1       24.864 -15.205   3.592  0.00  0.00    +0.022 A 
ATOM     10  C   LIG    1       26.168 -15.663   3.442  0.00  0.00    +0.042 A 
ATOM     11 CL   LIG    1       27.421 -14.556   3.041  0.00  0.00    -0.084 Cl
ATOM     12  C   LIG    1       26.470 -17.008   3.638  0.00  0.00    +0.032 A 
ATOM     13  N   LIG    1       23.023 -18.301   4.332  0.00  0.00    -0.281 N 
ATOM     14  H   LIG    1       22.160 -17.891   4.670  0.00  0.00    +0.155 HD
ENDROOT
BRANCH   5  15
ATOM     15  C   LIG    1       27.089 -19.478   5.195  0.00  0.00    +0.019 A 
ATOM     16  C   LIG    1       27.178 -20.370   6.273  0.00  0.00    +0.050 A 
ATOM     17 CL   LIG    1       25.887 -21.422   6.731  0.00  0.00    -0.083 Cl
ATOM     18  C   LIG    1       28.370 -20.458   6.999  0.00  0.00    +0.021 A 
ATOM     19  C   LIG    1       29.471 -19.675   6.648  0.00  0.00    +0.002 A 
ATOM     20  C   LIG    1       29.391 -18.806   5.562  0.00  0.00    +0.001 A 
ATOM     21  C   LIG    1       28.206 -18.710   4.832  0.00  0.00    +0.011 A 
ENDBRANCH   5  15
BRANCH   3  22
ATOM     22  O   LIG    1       23.626 -21.572   2.749  0.00  0.00    -0.364 OA
ATOM     23  H   LIG    1       24.430 -22.116   2.817  0.00  0.00    +0.212 HD
ENDBRANCH   3  22
TORSDOF 2
ENDMDL
