MODEL 1
REMARK VINA RESULT:      -6.7      0.000      0.000
REMARK  Name = *****
REMARK                            x       y       z     vdW  Elec       q    Type
REMARK                         _______ _______ _______ _____ _____    ______ ____
ROOT
ATOM      1  C   LIG    1       22.626 -23.617   6.732  0.00  0.00    +0.014 C 
ATOM      2  C   LIG    1       23.878 -22.729   6.643  0.00  0.00    +0.001 C 
ATOM      3  C   LIG    1       23.601 -21.179   6.615  0.00  0.00    +0.084 C 
ATOM      4  C   LIG    1       25.008 -20.663   6.217  0.00  0.00    +0.036 C 
ATOM      5  C   LIG    1       25.526 -21.673   5.183  0.00  0.00    +0.007 C 
ATOM      6  C   LIG    1       24.620 -22.927   5.296  0.00  0.00    +0.005 C 
ATOM      7  C   LIG    1       25.384 -24.265   5.132  0.00  0.00    +0.019 C 
ATOM      8  C   LIG    1       25.795 -24.899   6.458  0.00  0.00    -0.063 C 
ATOM      9  C   LIG    1       25.875 -26.240   6.635  0.00  0.00    -0.044 C 
ATOM     10  C   LIG    1       25.544 -27.169   5.545  0.00  0.00    -0.041 C 
ATOM     11  C   LIG    1       25.331 -26.582   4.172  0.00  0.00    +0.036 C 
ATOM     12  C   LIG    1       25.397 -28.490   5.737  0.00  0.00    +0.050 C 
ATOM     13  C   LIG    1       25.485 -29.090   7.085  0.00  0.00    +0.157 C 
ATOM     14  O   LIG    1       25.414 -30.310   7.213  0.00  0.00    -0.293 OA
ATOM     15  C   LIG    1       25.549 -28.158   8.264  0.00  0.00    +0.083 C 
ATOM     16  C   LIG    1       26.345 -26.911   7.914  0.00  0.00    +0.043 C 
ATOM     17  C   LIG    1       26.078 -23.869   7.518  0.00  0.00    +0.032 C 
ATOM     18  C   LIG    1       24.587 -25.255   4.265  0.00  0.00    +0.013 C 
ATOM     19  C   LIG    1       24.792 -23.116   7.874  0.00  0.00    +0.014 C 
ENDROOT
BRANCH   3  20
ATOM     20  O   LIG    1       23.283 -20.687   7.917  0.00  0.00    -0.387 OA
ATOM     21  H   LIG    1       23.486 -21.383   8.567  0.00  0.00    +0.210 HD
ENDBRANCH   3  20
BRANCH   3  22
ATOM     22  C   LIG    1       22.613 -20.529   5.605  0.00  0.00    +0.153 C 
BRANCH  22  23
ATOM     23  C   LIG    1       23.155 -19.579   4.662  0.00  0.00    +0.065 C 
ATOM     24  N   LIG    1       23.586 -18.822   3.911  0.00  0.00    -0.197 NA
ENDBRANCH  22  23
ENDBRANCH   3  22
TORSDOF 3
ENDMDL
MODEL 2
REMARK VINA RESULT:      -6.1      6.688      9.360
REMARK  Name = *****
REMARK                            x       y       z     vdW  Elec       q    Type
REMARK                         _______ _______ _______ _____ _____    ______ ____
ROOT
ATOM      1  C   LIG    1       25.059 -29.137   8.725  0.00  0.00    +0.014 C 
ATOM      2  C   LIG    1       25.620 -30.389   9.421  0.00  0.00    +0.001 C 
ATOM      3  C   LIG    1       25.784 -31.654   8.496  0.00  0.00    +0.084 C 
ATOM      4  C   LIG    1       26.052 -32.738   9.571  0.00  0.00    +0.036 C 
ATOM      5  C   LIG    1       25.119 -32.383  10.738  0.00  0.00    +0.007 C 
ATOM      6  C   LIG    1       24.641 -30.928  10.496  0.00  0.00    +0.005 C 
ATOM      7  C   LIG    1       24.527 -30.085  11.792  0.00  0.00    +0.019 C 
ATOM      8  C   LIG    1       25.764 -29.239  12.080  0.00  0.00    -0.063 C 
ATOM      9  C   LIG    1       25.700 -28.037  12.704  0.00  0.00    -0.044 C 
ATOM     10  C   LIG    1       24.411 -27.470  13.122  0.00  0.00    -0.041 C 
ATOM     11  C   LIG    1       23.198 -28.361  13.038  0.00  0.00    +0.036 C 
ATOM     12  C   LIG    1       24.279 -26.200  13.540  0.00  0.00    +0.050 C 
ATOM     13  C   LIG    1       25.420 -25.260  13.530  0.00  0.00    +0.157 C 
ATOM     14  O   LIG    1       25.278 -24.127  13.983  0.00  0.00    -0.293 OA
ATOM     15  C   LIG    1       26.690 -25.706  12.858  0.00  0.00    +0.083 C 
ATOM     16  C   LIG    1       26.909 -27.195  13.071  0.00  0.00    +0.043 C 
ATOM     17  C   LIG    1       27.027 -29.888  11.582  0.00  0.00    +0.032 C 
ATOM     18  C   LIG    1       23.252 -29.224  11.782  0.00  0.00    +0.013 C 
ATOM     19  C   LIG    1       27.007 -29.969  10.052  0.00  0.00    +0.014 C 
ENDROOT
BRANCH   3  20
ATOM     20  O   LIG    1       26.937 -31.538   7.662  0.00  0.00    -0.387 OA
ATOM     21  H   LIG    1       26.981 -30.627   7.321  0.00  0.00    +0.210 HD
ENDBRANCH   3  20
BRANCH   3  22
ATOM     22  C   LIG    1       24.619 -32.203   7.624  0.00  0.00    +0.153 C 
BRANCH  22  23
ATOM     23  C   LIG    1       24.845 -32.308   6.202  0.00  0.00    +0.065 C 
ATOM     24  N   LIG    1       25.026 -32.391   5.068  0.00  0.00    -0.197 NA
ENDBRANCH  22  23
ENDBRANCH   3  22
TORSDOF 3
ENDMDL
MODEL 3
REMARK VINA RESULT:      -6.0      6.726      9.273
REMARK  Name = *****
REMARK                            x       y       z     vdW  Elec       q    Type
REMARK                         _______ _______ _______ _____ _____    ______ ____
ROOT
ATOM      1  C   LIG    1       24.632 -29.326   8.015  0.00  0.00    +0.014 C 
ATOM      2  C   LIG    1       25.177 -30.682   8.493  0.00  0.00    +0.001 C 
ATOM      3  C   LIG    1       25.420 -31.746   7.357  0.00  0.00    +0.084 C 
ATOM      4  C   LIG    1       25.647 -33.013   8.222  0.00  0.00    +0.036 C 
ATOM      5  C   LIG    1       24.641 -32.895   9.375  0.00  0.00    +0.007 C 
ATOM      6  C   LIG    1       24.148 -31.424   9.385  0.00  0.00    +0.005 C 
ATOM      7  C   LIG    1       23.942 -30.845  10.808  0.00  0.00    +0.019 C 
ATOM      8  C   LIG    1       25.142 -30.058  11.325  0.00  0.00    -0.063 C 
ATOM      9  C   LIG    1       25.018 -28.998  12.161  0.00  0.00    -0.044 C 
ATOM     10  C   LIG    1       23.695 -28.532  12.600  0.00  0.00    -0.041 C 
ATOM     11  C   LIG    1       22.508 -29.402  12.274  0.00  0.00    +0.036 C 
ATOM     12  C   LIG    1       23.513 -27.366  13.241  0.00  0.00    +0.050 C 
ATOM     13  C   LIG    1       24.634 -26.431  13.479  0.00  0.00    +0.157 C 
ATOM     14  O   LIG    1       24.443 -25.406  14.129  0.00  0.00    -0.293 OA
ATOM     15  C   LIG    1       25.949 -26.730  12.814  0.00  0.00    +0.083 C 
ATOM     16  C   LIG    1       26.186 -28.230  12.754  0.00  0.00    +0.043 C 
ATOM     17  C   LIG    1       26.445 -30.589  10.791  0.00  0.00    +0.032 C 
ATOM     18  C   LIG    1       22.653 -30.010  10.884  0.00  0.00    +0.013 C 
ATOM     19  C   LIG    1       26.516 -30.378   9.275  0.00  0.00    +0.014 C 
ENDROOT
BRANCH   3  20
ATOM     20  O   LIG    1       26.617 -31.464   6.632  0.00  0.00    -0.387 OA
ATOM     21  H   LIG    1       27.271 -31.091   7.250  0.00  0.00    +0.210 HD
ENDBRANCH   3  20
BRANCH   3  22
ATOM     22  C   LIG    1       24.319 -32.130   6.328  0.00  0.00    +0.153 C 
BRANCH  22  23
ATOM     23  C   LIG    1       24.753 -32.665   5.059  0.00  0.00    +0.065 C 
ATOM     24  N   LIG    1       25.100 -33.092   4.047  0.00  0.00    -0.197 NA
ENDBRANCH  22  23
ENDBRANCH   3  22
TORSDOF 3
ENDMDL
MODEL 4
REMARK VINA RESULT:      -5.9      3.186      8.140
REMARK  Name = *****
REMARK                            x       y       z     vdW  Elec       q    Type
REMARK                         _______ _______ _______ _____ _____    ______ ____
ROOT
ATOM      1  C   LIG    1       25.128 -20.314   7.241  0.00  0.00    +0.014 C 
ATOM      2  C   LIG    1       24.383 -21.289   6.314  0.00  0.00    +0.001 C 
ATOM      3  C   LIG    1       24.430 -22.801   6.754  0.00  0.00    +0.084 C 
ATOM      4  C   LIG    1       23.876 -23.470   5.469  0.00  0.00    +0.036 C 
ATOM      5  C   LIG    1       24.493 -22.677   4.308  0.00  0.00    +0.007 C 
ATOM      6  C   LIG    1       25.048 -21.362   4.915  0.00  0.00    +0.005 C 
ATOM      7  C   LIG    1       24.850 -20.123   4.005  0.00  0.00    +0.019 C 
ATOM      8  C   LIG    1       23.599 -19.315   4.339  0.00  0.00    -0.063 C 
ATOM      9  C   LIG    1       23.530 -17.971   4.174  0.00  0.00    -0.044 C 
ATOM     10  C   LIG    1       24.684 -17.209   3.678  0.00  0.00    -0.041 C 
ATOM     11  C   LIG    1       25.859 -17.992   3.150  0.00  0.00    +0.036 C 
ATOM     12  C   LIG    1       24.734 -15.867   3.708  0.00  0.00    +0.050 C 
ATOM     13  C   LIG    1       23.652 -15.066   4.320  0.00  0.00    +0.157 C 
ATOM     14  O   LIG    1       23.700 -13.840   4.268  0.00  0.00    -0.293 OA
ATOM     15  C   LIG    1       22.584 -15.799   5.083  0.00  0.00    +0.083 C 
ATOM     16  C   LIG    1       22.285 -17.139   4.428  0.00  0.00    +0.043 C 
ATOM     17  C   LIG    1       22.488 -20.179   4.873  0.00  0.00    +0.032 C 
ATOM     18  C   LIG    1       26.104 -19.232   4.002  0.00  0.00    +0.013 C 
ATOM     19  C   LIG    1       22.891 -20.774   6.226  0.00  0.00    +0.014 C 
ENDROOT
BRANCH   3  20
ATOM     20  O   LIG    1       23.527 -23.055   7.830  0.00  0.00    -0.387 OA
ATOM     21  H   LIG    1       23.635 -23.981   8.111  0.00  0.00    +0.210 HD
ENDBRANCH   3  20
BRANCH   3  22
ATOM     22  C   LIG    1       25.765 -23.534   7.069  0.00  0.00    +0.153 C 
BRANCH  22  23
ATOM     23  C   LIG    1       25.799 -24.965   6.876  0.00  0.00    +0.065 C 
ATOM     24  N   LIG    1       25.826 -26.105   6.722  0.00  0.00    -0.197 NA
ENDBRANCH  22  23
ENDBRANCH   3  22
TORSDOF 3
ENDMDL
MODEL 5
REMARK VINA RESULT:      -5.8      6.423      8.732
REMARK  Name = *****
REMARK                            x       y       z     vdW  Elec       q    Type
REMARK                         _______ _______ _______ _____ _____    ______ ____
ROOT
ATOM      1  C   LIG    1       25.894 -32.202   8.100  0.00  0.00    +0.014 C 
ATOM      2  C   LIG    1       24.947 -31.061   7.694  0.00  0.00    +0.001 C 
ATOM      3  C   LIG    1       24.614 -30.980   6.156  0.00  0.00    +0.084 C 
ATOM      4  C   LIG    1       23.933 -29.587   6.103  0.00  0.00    +0.036 C 
ATOM      5  C   LIG    1       24.743 -28.709   7.067  0.00  0.00    +0.007 C 
ATOM      6  C   LIG    1       25.595 -29.672   7.935  0.00  0.00    +0.005 C 
ATOM      7  C   LIG    1       25.721 -29.231   9.415  0.00  0.00    +0.019 C 
ATOM      8  C   LIG    1       24.702 -29.893  10.338  0.00  0.00    -0.063 C 
ATOM      9  C   LIG    1       24.968 -30.180  11.636  0.00  0.00    -0.044 C 
ATOM     10  C   LIG    1       26.281 -29.883  12.224  0.00  0.00    -0.041 C 
ATOM     11  C   LIG    1       27.236 -29.051  11.406  0.00  0.00    +0.036 C 
ATOM     12  C   LIG    1       26.659 -30.344  13.427  0.00  0.00    +0.050 C 
ATOM     13  C   LIG    1       25.798 -31.255  14.211  0.00  0.00    +0.157 C 
ATOM     14  O   LIG    1       26.146 -31.602  15.337  0.00  0.00    -0.293 OA
ATOM     15  C   LIG    1       24.570 -31.809  13.541  0.00  0.00    +0.083 C 
ATOM     16  C   LIG    1       23.962 -30.775  12.606  0.00  0.00    +0.043 C 
ATOM     17  C   LIG    1       23.405 -30.190   9.635  0.00  0.00    +0.032 C 
ATOM     18  C   LIG    1       27.156 -29.433   9.933  0.00  0.00    +0.013 C 
ATOM     19  C   LIG    1       23.628 -31.245   8.546  0.00  0.00    +0.014 C 
ENDROOT
BRANCH   3  20
ATOM     20  O   LIG    1       23.659 -31.973   5.781  0.00  0.00    -0.387 OA
ATOM     21  H   LIG    1       22.816 -31.529   5.579  0.00  0.00    +0.210 HD
ENDBRANCH   3  20
BRANCH   3  22
ATOM     22  C   LIG    1       25.723 -30.948   5.066  0.00  0.00    +0.153 C 
BRANCH  22  23
ATOM     23  C   LIG    1       25.840 -32.101   4.204  0.00  0.00    +0.065 C 
ATOM     24  N   LIG    1       25.934 -33.020   3.518  0.00  0.00    -0.197 NA
ENDBRANCH  22  23
ENDBRANCH   3  22
TORSDOF 3
ENDMDL
MODEL 6
REMARK VINA RESULT:      -5.8      6.965      9.625
REMARK  Name = *****
REMARK                            x       y       z     vdW  Elec       q    Type
REMARK                         _______ _______ _______ _____ _____    ______ ____
ROOT
ATOM      1  C   LIG    1       24.321 -29.414   9.097  0.00  0.00    +0.014 C 
ATOM      2  C   LIG    1       24.669 -30.676   9.903  0.00  0.00    +0.001 C 
ATOM      3  C   LIG    1       24.613 -32.026   9.094  0.00  0.00    +0.084 C 
ATOM      4  C   LIG    1       24.702 -33.042  10.263  0.00  0.00    +0.036 C 
ATOM      5  C   LIG    1       23.849 -32.435  11.386  0.00  0.00    +0.007 C 
ATOM      6  C   LIG    1       23.621 -30.947  11.013  0.00  0.00    +0.005 C 
ATOM      7  C   LIG    1       23.657 -29.987  12.230  0.00  0.00    +0.019 C 
ATOM      8  C   LIG    1       25.020 -29.337  12.453  0.00  0.00    -0.063 C 
ATOM      9  C   LIG    1       25.162 -28.092  12.969  0.00  0.00    -0.044 C 
ATOM     10  C   LIG    1       23.989 -27.282  13.325  0.00  0.00    -0.041 C 
ATOM     11  C   LIG    1       22.643 -27.962  13.308  0.00  0.00    +0.036 C 
ATOM     12  C   LIG    1       24.074 -25.976  13.628  0.00  0.00    +0.050 C 
ATOM     13  C   LIG    1       25.357 -25.246  13.546  0.00  0.00    +0.157 C 
ATOM     14  O   LIG    1       25.409 -24.069  13.897  0.00  0.00    -0.293 OA
ATOM     15  C   LIG    1       26.529 -25.955  12.927  0.00  0.00    +0.083 C 
ATOM     16  C   LIG    1       26.497 -27.436  13.271  0.00  0.00    +0.043 C 
ATOM     17  C   LIG    1       26.153 -30.230  12.025  0.00  0.00    +0.032 C 
ATOM     18  C   LIG    1       22.545 -28.928  12.134  0.00  0.00    +0.013 C 
ATOM     19  C   LIG    1       26.111 -30.441  10.508  0.00  0.00    +0.014 C 
ENDROOT
BRANCH   3  20
ATOM     20  O   LIG    1       25.764 -32.179   8.264  0.00  0.00    -0.387 OA
ATOM     21  H   LIG    1       25.467 -32.306   7.345  0.00  0.00    +0.210 HD
ENDBRANCH   3  20
BRANCH   3  22
ATOM     22  C   LIG    1       23.367 -32.447   8.264  0.00  0.00    +0.153 C 
BRANCH  22  23
ATOM     23  C   LIG    1       23.519 -32.524   6.830  0.00  0.00    +0.065 C 
ATOM     24  N   LIG    1       23.640 -32.584   5.687  0.00  0.00    -0.197 NA
ENDBRANCH  22  23
ENDBRANCH   3  22
TORSDOF 3
ENDMDL
MODEL 7
REMARK VINA RESULT:      -5.7      4.382      7.073
REMARK  Name = *****
REMARK                            x       y       z     vdW  Elec       q    Type
REMARK                         _______ _______ _______ _____ _____    ______ ____
ROOT
ATOM      1  C   LIG    1       25.609 -20.320   8.544  0.00  0.00    +0.014 C 
ATOM      2  C   LIG    1       25.657 -20.929   7.133  0.00  0.00    +0.001 C 
ATOM      3  C   LIG    1       24.292 -21.514   6.607  0.00  0.00    +0.084 C 
ATOM      4  C   LIG    1       24.794 -22.285   5.359  0.00  0.00    +0.036 C 
ATOM      5  C   LIG    1       26.129 -22.912   5.787  0.00  0.00    +0.007 C 
ATOM      6  C   LIG    1       26.560 -22.190   7.090  0.00  0.00    +0.005 C 
ATOM      7  C   LIG    1       28.086 -21.934   7.186  0.00  0.00    +0.019 C 
ATOM      8  C   LIG    1       28.502 -20.544   6.716  0.00  0.00    -0.063 C 
ATOM      9  C   LIG    1       29.555 -19.876   7.247  0.00  0.00    -0.044 C 
ATOM     10  C   LIG    1       30.349 -20.459   8.337  0.00  0.00    -0.041 C 
ATOM     11  C   LIG    1       30.096 -21.904   8.686  0.00  0.00    +0.036 C 
ATOM     12  C   LIG    1       31.252 -19.752   9.035  0.00  0.00    +0.050 C 
ATOM     13  C   LIG    1       31.450 -18.305   8.801  0.00  0.00    +0.157 C 
ATOM     14  O   LIG    1       32.333 -17.706   9.411  0.00  0.00    -0.293 OA
ATOM     15  C   LIG    1       30.478 -17.602   7.895  0.00  0.00    +0.083 C 
ATOM     16  C   LIG    1       30.045 -18.522   6.764  0.00  0.00    +0.043 C 
ATOM     17  C   LIG    1       27.606 -20.019   5.626  0.00  0.00    +0.032 C 
ATOM     18  C   LIG    1       28.607 -22.223   8.604  0.00  0.00    +0.013 C 
ATOM     19  C   LIG    1       26.192 -19.796   6.170  0.00  0.00    +0.014 C 
ENDROOT
BRANCH   3  20
ATOM     20  O   LIG    1       23.414 -20.472   6.181  0.00  0.00    -0.387 OA
ATOM     21  H   LIG    1       22.514 -20.683   6.489  0.00  0.00    +0.210 HD
ENDBRANCH   3  20
BRANCH   3  22
ATOM     22  C   LIG    1       23.455 -22.537   7.426  0.00  0.00    +0.153 C 
BRANCH  22  23
ATOM     23  C   LIG    1       23.322 -23.870   6.887  0.00  0.00    +0.065 C 
ATOM     24  N   LIG    1       23.216 -24.933   6.457  0.00  0.00    -0.197 NA
ENDBRANCH  22  23
ENDBRANCH   3  22
TORSDOF 3
ENDMDL
MODEL 8
REMARK VINA RESULT:      -5.7      6.899      9.186
REMARK  Name = *****
REMARK                            x       y       z     vdW  Elec       q    Type
REMARK                         _______ _______ _______ _____ _____    ______ ____
ROOT
ATOM      1  C   LIG    1       23.300 -30.183   9.715  0.00  0.00    +0.014 C 
ATOM      2  C   LIG    1       24.574 -30.472   8.905  0.00  0.00    +0.001 C 
ATOM      3  C   LIG    1       24.343 -31.206   7.529  0.00  0.00    +0.084 C 
ATOM      4  C   LIG    1       25.805 -31.589   7.182  0.00  0.00    +0.036 C 
ATOM      5  C   LIG    1       26.438 -32.001   8.518  0.00  0.00    +0.007 C 
ATOM      6  C   LIG    1       25.494 -31.485   9.635  0.00  0.00    +0.005 C 
ATOM      7  C   LIG    1       26.239 -30.947  10.882  0.00  0.00    +0.019 C 
ATOM      8  C   LIG    1       26.442 -29.435  10.866  0.00  0.00    -0.063 C 
ATOM      9  C   LIG    1       26.463 -28.686  11.996  0.00  0.00    -0.044 C 
ATOM     10  C   LIG    1       26.265 -29.302  13.315  0.00  0.00    -0.041 C 
ATOM     11  C   LIG    1       26.265 -30.808  13.387  0.00  0.00    +0.036 C 
ATOM     12  C   LIG    1       26.060 -28.581  14.430  0.00  0.00    +0.050 C 
ATOM     13  C   LIG    1       25.940 -27.108  14.385  0.00  0.00    +0.157 C 
ATOM     14  O   LIG    1       25.821 -26.476  15.433  0.00  0.00    -0.293 OA
ATOM     15  C   LIG    1       25.860 -26.451  13.035  0.00  0.00    +0.083 C 
ATOM     16  C   LIG    1       26.729 -27.192  12.031  0.00  0.00    +0.043 C 
ATOM     17  C   LIG    1       26.598 -28.896   9.469  0.00  0.00    +0.032 C 
ATOM     18  C   LIG    1       25.548 -31.403  12.179  0.00  0.00    +0.013 C 
ATOM     19  C   LIG    1       25.294 -29.082   8.687  0.00  0.00    +0.014 C 
ENDROOT
BRANCH   3  20
ATOM     20  O   LIG    1       23.856 -30.302   6.537  0.00  0.00    -0.387 OA
ATOM     21  H   LIG    1       24.524 -30.230   5.832  0.00  0.00    +0.210 HD
ENDBRANCH   3  20
BRANCH   3  22
ATOM     22  C   LIG    1       23.524 -32.523   7.417  0.00  0.00    +0.153 C 
BRANCH  22  23
ATOM     23  C   LIG    1       23.234 -33.014   6.090  0.00  0.00    +0.065 C 
ATOM     24  N   LIG    1       23.002 -33.405   5.033  0.00  0.00    -0.197 NA
ENDBRANCH  22  23
ENDBRANCH   3  22
TORSDOF 3
ENDMDL
MODEL 9
REMARK VINA RESULT:      -5.6      4.583      6.297
REMARK  Name = *****
REMARK                            x       y       z     vdW  Elec       q    Type
REMARK                         _______ _______ _______ _____ _____    ______ ____
ROOT
ATOM      1  C   LIG    1       27.753 -19.475   9.044  0.00  0.00    +0.014 C 
ATOM      2  C   LIG    1       28.957 -19.847   8.163  0.00  0.00    +0.001 C 
ATOM      3  C   LIG    1       30.297 -19.092   8.504  0.00  0.00    +0.084 C 
ATOM      4  C   LIG    1       31.143 -19.474   7.262  0.00  0.00    +0.036 C 
ATOM      5  C   LIG    1       30.163 -19.427   6.081  0.00  0.00    +0.007 C 
ATOM      6  C   LIG    1       28.736 -19.415   6.689  0.00  0.00    +0.005 C 
ATOM      7  C   LIG    1       27.708 -20.251   5.885  0.00  0.00    +0.019 C 
ATOM      8  C   LIG    1       27.524 -21.669   6.419  0.00  0.00    -0.063 C 
ATOM      9  C   LIG    1       26.345 -22.333   6.342  0.00  0.00    -0.044 C 
ATOM     10  C   LIG    1       25.158 -21.701   5.751  0.00  0.00    -0.041 C 
ATOM     11  C   LIG    1       25.352 -20.388   5.036  0.00  0.00    +0.036 C 
ATOM     12  C   LIG    1       23.927 -22.231   5.853  0.00  0.00    +0.050 C 
ATOM     13  C   LIG    1       23.676 -23.456   6.641  0.00  0.00    +0.157 C 
ATOM     14  O   LIG    1       22.551 -23.949   6.654  0.00  0.00    -0.293 OA
ATOM     15  C   LIG    1       24.799 -23.988   7.487  0.00  0.00    +0.083 C 
ATOM     16  C   LIG    1       26.136 -23.766   6.798  0.00  0.00    +0.043 C 
ATOM     17  C   LIG    1       28.785 -22.213   7.036  0.00  0.00    +0.032 C 
ATOM     18  C   LIG    1       26.361 -19.517   5.777  0.00  0.00    +0.013 C 
ATOM     19  C   LIG    1       29.143 -21.411   8.291  0.00  0.00    +0.014 C 
ENDROOT
BRANCH   3  20
ATOM     20  O   LIG    1       30.916 -19.640   9.668  0.00  0.00    -0.387 OA
ATOM     21  H   LIG    1       30.218 -19.897  10.297  0.00  0.00    +0.210 HD
ENDBRANCH   3  20
BRANCH   3  22
ATOM     22  C   LIG    1       30.376 -17.542   8.607  0.00  0.00    +0.153 C 
BRANCH  22  23
ATOM     23  C   LIG    1       30.383 -16.964   9.930  0.00  0.00    +0.065 C 
ATOM     24  N   LIG    1       30.388 -16.503  10.985  0.00  0.00    -0.197 NA
ENDBRANCH  22  23
ENDBRANCH   3  22
TORSDOF 3
ENDMDL
