MODEL 1
REMARK VINA RESULT:      -9.0      0.000      0.000
REMARK  Name = *****
REMARK                            x       y       z     vdW  Elec       q    Type
REMARK                         _______ _______ _______ _____ _____    ______ ____
ROOT
ATOM      1  C   LIG    1       26.047 -21.548   6.166  0.00  0.00    +0.170 C 
ENDROOT
BRANCH   1   2
ATOM      2  C   LIG    1       24.902 -20.713   5.623  0.00  0.00    +0.001 A 
ATOM      3  C   LIG    1       23.662 -20.610   6.274  0.00  0.00    +0.048 A 
ATOM      4 CL   LIG    1       23.361 -21.356   7.803  0.00  0.00    -0.083 Cl
ATOM      5  C   LIG    1       22.623 -19.873   5.704  0.00  0.00    +0.040 A 
ATOM      6  C   LIG    1       22.818 -19.231   4.485  0.00  0.00    +0.042 A 
ATOM      7 CL   LIG    1       21.518 -18.376   3.755  0.00  0.00    -0.084 Cl
ATOM      8  C   LIG    1       24.052 -19.278   3.846  0.00  0.00    +0.020 A 
ATOM      9  C   LIG    1       25.094 -20.003   4.419  0.00  0.00    +0.009 A 
ENDBRANCH   1   2
BRANCH   1  10
ATOM     10  O   LIG    1       25.531 -22.827   6.600  0.00  0.00    -0.366 OA
BRANCH  10  11
ATOM     11  C   LIG    1       25.054 -23.630   5.508  0.00  0.00    +0.196 C 
BRANCH  11  16
ATOM     12 CL   LIG    1       25.109 -29.414   7.183  0.00  0.00    -0.084 Cl
ATOM     13  C   LIG    1       25.159 -27.783   6.636  0.00  0.00    +0.041 A 
ATOM     14  C   LIG    1       24.268 -27.357   5.653  0.00  0.00    +0.020 A 
ATOM     15  C   LIG    1       24.267 -26.021   5.249  0.00  0.00    +0.007 A 
ATOM     16  C   LIG    1       25.153 -25.102   5.825  0.00  0.00    -0.022 A 
ATOM     17  C   LIG    1       26.069 -25.555   6.790  0.00  0.00    +0.007 A 
ATOM     18  C   LIG    1       26.071 -26.892   7.196  0.00  0.00    +0.020 A 
ENDBRANCH  11  16
ENDBRANCH  10  11
ENDBRANCH   1  10
BRANCH   1  19
ATOM     19  C   LIG    1       26.726 -20.847   7.370  0.00  0.00    +0.159 C 
BRANCH  19  20
ATOM     20  N   LIG    1       28.081 -20.388   7.116  0.00  0.00    -0.334 N 
ATOM     21  C   LIG    1       29.201 -20.754   7.814  0.00  0.00    +0.199 A 
ATOM     22  N   LIG    1       30.277 -20.174   7.333  0.00  0.00    -0.244 NA
ATOM     23  C   LIG    1       29.844 -19.439   6.271  0.00  0.00    +0.130 A 
ATOM     24  C   LIG    1       28.486 -19.570   6.105  0.00  0.00    +0.107 A 
ENDBRANCH  19  20
ENDBRANCH   1  19
TORSDOF 6
ENDMDL
MODEL 2
REMARK VINA RESULT:      -9.0      2.890      5.902
REMARK  Name = *****
REMARK                            x       y       z     vdW  Elec       q    Type
REMARK                         _______ _______ _______ _____ _____    ______ ____
ROOT
ATOM      1  C   LIG    1       24.779 -23.462   5.983  0.00  0.00    +0.170 C 
ENDROOT
BRANCH   1   2
ATOM      2  C   LIG    1       24.210 -22.118   5.566  0.00  0.00    +0.001 A 
ATOM      3  C   LIG    1       23.321 -21.388   6.372  0.00  0.00    +0.048 A 
ATOM      4 CL   LIG    1       22.865 -21.917   7.952  0.00  0.00    -0.083 Cl
ATOM      5  C   LIG    1       22.784 -20.183   5.919  0.00  0.00    +0.040 A 
ATOM      6  C   LIG    1       23.135 -19.697   4.663  0.00  0.00    +0.042 A 
ATOM      7 CL   LIG    1       22.425 -18.244   4.082  0.00  0.00    -0.084 Cl
ATOM      8  C   LIG    1       24.052 -20.378   3.869  0.00  0.00    +0.020 A 
ATOM      9  C   LIG    1       24.598 -21.574   4.324  0.00  0.00    +0.009 A 
ENDBRANCH   1   2
BRANCH   1  10
ATOM     10  O   LIG    1       26.130 -23.274   6.458  0.00  0.00    -0.366 OA
BRANCH  10  11
ATOM     11  C   LIG    1       26.211 -22.328   7.536  0.00  0.00    +0.196 C 
BRANCH  11  16
ATOM     12 CL   LIG    1       31.166 -19.047   6.559  0.00  0.00    -0.084 Cl
ATOM     13  C   LIG    1       29.721 -19.918   6.901  0.00  0.00    +0.041 A 
ATOM     14  C   LIG    1       28.578 -19.685   6.140  0.00  0.00    +0.020 A 
ATOM     15  C   LIG    1       27.422 -20.431   6.378  0.00  0.00    +0.007 A 
ATOM     16  C   LIG    1       27.401 -21.414   7.376  0.00  0.00    -0.022 A 
ATOM     17  C   LIG    1       28.551 -21.611   8.159  0.00  0.00    +0.007 A 
ATOM     18  C   LIG    1       29.709 -20.865   7.922  0.00  0.00    +0.020 A 
ENDBRANCH  11  16
ENDBRANCH  10  11
ENDBRANCH   1  10
BRANCH   1  19
ATOM     19  C   LIG    1       24.799 -24.452   4.791  0.00  0.00    +0.159 C 
BRANCH  19  20
ATOM     20  N   LIG    1       24.933 -25.849   5.166  0.00  0.00    -0.334 N 
ATOM     21  C   LIG    1       25.826 -26.744   4.640  0.00  0.00    +0.199 A 
ATOM     22  N   LIG    1       25.705 -27.928   5.197  0.00  0.00    -0.244 NA
ATOM     23  C   LIG    1       24.729 -27.783   6.137  0.00  0.00    +0.130 A 
ATOM     24  C   LIG    1       24.246 -26.496   6.150  0.00  0.00    +0.107 A 
ENDBRANCH  19  20
ENDBRANCH   1  19
TORSDOF 6
ENDMDL
MODEL 3
REMARK VINA RESULT:      -8.5      2.614      4.793
REMARK  Name = *****
REMARK                            x       y       z     vdW  Elec       q    Type
REMARK                         _______ _______ _______ _____ _____    ______ ____
ROOT
ATOM      1  C   LIG    1       25.593 -20.967   5.912  0.00  0.00    +0.170 C 
ENDROOT
BRANCH   1   2
ATOM      2  C   LIG    1       26.902 -20.424   6.455  0.00  0.00    +0.001 A 
ATOM      3  C   LIG    1       27.155 -20.290   7.830  0.00  0.00    +0.048 A 
ATOM      4 CL   LIG    1       26.029 -20.818   9.029  0.00  0.00    -0.083 Cl
ATOM      5  C   LIG    1       28.355 -19.734   8.276  0.00  0.00    +0.040 A 
ATOM      6  C   LIG    1       29.309 -19.314   7.354  0.00  0.00    +0.042 A 
ATOM      7 CL   LIG    1       30.758 -18.573   7.905  0.00  0.00    -0.084 Cl
ATOM      8  C   LIG    1       29.100 -19.482   5.990  0.00  0.00    +0.020 A 
ATOM      9  C   LIG    1       27.910 -20.048   5.542  0.00  0.00    +0.009 A 
ENDBRANCH   1   2
BRANCH   1  10
ATOM     10  O   LIG    1       25.711 -22.397   5.742  0.00  0.00    -0.366 OA
BRANCH  10  11
ATOM     11  C   LIG    1       24.884 -23.133   6.657  0.00  0.00    +0.196 C 
BRANCH  11  16
ATOM     12 CL   LIG    1       25.508 -28.972   5.320  0.00  0.00    -0.084 Cl
ATOM     13  C   LIG    1       25.317 -27.328   5.795  0.00  0.00    +0.041 A 
ATOM     14  C   LIG    1       26.438 -26.576   6.140  0.00  0.00    +0.020 A 
ATOM     15  C   LIG    1       26.293 -25.227   6.469  0.00  0.00    +0.007 A 
ATOM     16  C   LIG    1       25.030 -24.621   6.455  0.00  0.00    -0.022 A 
ATOM     17  C   LIG    1       23.905 -25.403   6.139  0.00  0.00    +0.007 A 
ATOM     18  C   LIG    1       24.049 -26.754   5.809  0.00  0.00    +0.020 A 
ENDBRANCH  11  16
ENDBRANCH  10  11
ENDBRANCH   1  10
BRANCH   1  19
ATOM     19  C   LIG    1       25.248 -20.326   4.544  0.00  0.00    +0.159 C 
BRANCH  19  20
ATOM     20  N   LIG    1       23.908 -19.773   4.455  0.00  0.00    -0.334 N 
ATOM     21  C   LIG    1       22.775 -20.310   5.006  0.00  0.00    +0.199 A 
ATOM     22  N   LIG    1       21.720 -19.567   4.757  0.00  0.00    -0.244 NA
ATOM     23  C   LIG    1       22.193 -18.499   4.055  0.00  0.00    +0.130 A 
ATOM     24  C   LIG    1       23.551 -18.595   3.870  0.00  0.00    +0.107 A 
ENDBRANCH  19  20
ENDBRANCH   1  19
TORSDOF 6
ENDMDL
MODEL 4
REMARK VINA RESULT:      -8.3      1.409      6.187
REMARK  Name = *****
REMARK                            x       y       z     vdW  Elec       q    Type
REMARK                         _______ _______ _______ _____ _____    ______ ____
ROOT
ATOM      1  C   LIG    1       25.336 -22.633   7.109  0.00  0.00    +0.170 C 
ENDROOT
BRANCH   1   2
ATOM      2  C   LIG    1       25.176 -24.080   6.678  0.00  0.00    +0.001 A 
ATOM      3  C   LIG    1       23.922 -24.687   6.512  0.00  0.00    +0.048 A 
ATOM      4 CL   LIG    1       22.443 -23.812   6.695  0.00  0.00    -0.083 Cl
ATOM      5  C   LIG    1       23.830 -26.036   6.168  0.00  0.00    +0.040 A 
ATOM      6  C   LIG    1       24.989 -26.784   5.984  0.00  0.00    +0.042 A 
ATOM      7 CL   LIG    1       24.873 -28.461   5.623  0.00  0.00    -0.084 Cl
ATOM      8  C   LIG    1       26.242 -26.192   6.096  0.00  0.00    +0.020 A 
ATOM      9  C   LIG    1       26.336 -24.843   6.427  0.00  0.00    +0.009 A 
ENDBRANCH   1   2
BRANCH   1  10
ATOM     10  O   LIG    1       25.780 -21.852   5.976  0.00  0.00    -0.366 OA
BRANCH  10  11
ATOM     11  C   LIG    1       24.899 -21.964   4.847  0.00  0.00    +0.196 C 
BRANCH  11  16
ATOM     12 CL   LIG    1       22.056 -16.674   4.400  0.00  0.00    -0.084 Cl
ATOM     13  C   LIG    1       22.815 -18.218   4.454  0.00  0.00    +0.041 A 
ATOM     14  C   LIG    1       23.980 -18.440   3.723  0.00  0.00    +0.020 A 
ATOM     15  C   LIG    1       24.630 -19.672   3.809  0.00  0.00    +0.007 A 
ATOM     16  C   LIG    1       24.122 -20.690   4.627  0.00  0.00    -0.022 A 
ATOM     17  C   LIG    1       22.927 -20.462   5.330  0.00  0.00    +0.007 A 
ATOM     18  C   LIG    1       22.275 -19.229   5.244  0.00  0.00    +0.020 A 
ENDBRANCH  11  16
ENDBRANCH  10  11
ENDBRANCH   1  10
BRANCH   1  19
ATOM     19  C   LIG    1       26.378 -22.501   8.248  0.00  0.00    +0.159 C 
BRANCH  19  20
ATOM     20  N   LIG    1       27.437 -21.540   7.992  0.00  0.00    -0.334 N 
ATOM     21  C   LIG    1       27.409 -20.207   8.303  0.00  0.00    +0.199 A 
ATOM     22  N   LIG    1       28.525 -19.609   7.952  0.00  0.00    -0.244 NA
ATOM     23  C   LIG    1       29.311 -20.593   7.432  0.00  0.00    +0.130 A 
ATOM     24  C   LIG    1       28.664 -21.806   7.462  0.00  0.00    +0.107 A 
ENDBRANCH  19  20
ENDBRANCH   1  19
TORSDOF 6
ENDMDL
MODEL 5
REMARK VINA RESULT:      -8.2      1.720      2.150
REMARK  Name = *****
REMARK                            x       y       z     vdW  Elec       q    Type
REMARK                         _______ _______ _______ _____ _____    ______ ____
ROOT
ATOM      1  C   LIG    1       25.310 -23.203   5.565  0.00  0.00    +0.170 C 
ENDROOT
BRANCH   1   2
ATOM      2  C   LIG    1       24.493 -21.949   5.311  0.00  0.00    +0.001 A 
ATOM      3  C   LIG    1       23.275 -21.693   5.959  0.00  0.00    +0.048 A 
ATOM      4 CL   LIG    1       22.640 -22.744   7.175  0.00  0.00    -0.083 Cl
ATOM      5  C   LIG    1       22.535 -20.552   5.648  0.00  0.00    +0.040 A 
ATOM      6  C   LIG    1       23.011 -19.657   4.694  0.00  0.00    +0.042 A 
ATOM      7 CL   LIG    1       22.069 -18.284   4.268  0.00  0.00    -0.084 Cl
ATOM      8  C   LIG    1       24.239 -19.865   4.075  0.00  0.00    +0.020 A 
ATOM      9  C   LIG    1       24.984 -20.997   4.392  0.00  0.00    +0.009 A 
ENDBRANCH   1   2
BRANCH   1  10
ATOM     10  O   LIG    1       24.503 -24.361   5.252  0.00  0.00    -0.366 OA
BRANCH  10  11
ATOM     11  C   LIG    1       24.302 -25.219   6.387  0.00  0.00    +0.196 C 
BRANCH  11  16
ATOM     12 CL   LIG    1       25.671 -30.896   4.919  0.00  0.00    -0.084 Cl
ATOM     13  C   LIG    1       25.356 -29.273   5.397  0.00  0.00    +0.041 A 
ATOM     14  C   LIG    1       25.899 -28.220   4.664  0.00  0.00    +0.020 A 
ATOM     15  C   LIG    1       25.599 -26.903   5.014  0.00  0.00    +0.007 A 
ATOM     16  C   LIG    1       24.754 -26.628   6.097  0.00  0.00    -0.022 A 
ATOM     17  C   LIG    1       24.243 -27.701   6.849  0.00  0.00    +0.007 A 
ATOM     18  C   LIG    1       24.543 -29.020   6.498  0.00  0.00    +0.020 A 
ENDBRANCH  11  16
ENDBRANCH  10  11
ENDBRANCH   1  10
BRANCH   1  19
ATOM     19  C   LIG    1       25.754 -23.288   7.047  0.00  0.00    +0.159 C 
BRANCH  19  20
ATOM     20  N   LIG    1       26.393 -22.087   7.557  0.00  0.00    -0.334 N 
ATOM     21  C   LIG    1       25.940 -21.306   8.586  0.00  0.00    +0.199 A 
ATOM     22  N   LIG    1       26.747 -20.296   8.815  0.00  0.00    -0.244 NA
ATOM     23  C   LIG    1       27.772 -20.449   7.930  0.00  0.00    +0.130 A 
ATOM     24  C   LIG    1       27.584 -21.564   7.149  0.00  0.00    +0.107 A 
ENDBRANCH  19  20
ENDBRANCH   1  19
TORSDOF 6
ENDMDL
MODEL 6
REMARK VINA RESULT:      -8.2      3.045      6.491
REMARK  Name = *****
REMARK                            x       y       z     vdW  Elec       q    Type
REMARK                         _______ _______ _______ _____ _____    ______ ____
ROOT
ATOM      1  C   LIG    1       25.757 -22.238   6.827  0.00  0.00    +0.170 C 
ENDROOT
BRANCH   1   2
ATOM      2  C   LIG    1       27.031 -21.412   6.829  0.00  0.00    +0.001 A 
ATOM      3  C   LIG    1       27.280 -20.401   5.888  0.00  0.00    +0.048 A 
ATOM      4 CL   LIG    1       26.114 -19.945   4.696  0.00  0.00    -0.083 Cl
ATOM      5  C   LIG    1       28.490 -19.707   5.899  0.00  0.00    +0.040 A 
ATOM      6  C   LIG    1       29.456 -20.016   6.852  0.00  0.00    +0.042 A 
ATOM      7 CL   LIG    1       30.971 -19.204   6.825  0.00  0.00    -0.084 Cl
ATOM      8  C   LIG    1       29.212 -20.980   7.824  0.00  0.00    +0.020 A 
ATOM      9  C   LIG    1       28.000 -21.665   7.822  0.00  0.00    +0.009 A 
ENDBRANCH   1   2
BRANCH   1  10
ATOM     10  O   LIG    1       24.809 -21.642   7.740  0.00  0.00    -0.366 OA
BRANCH  10  11
ATOM     11  C   LIG    1       23.452 -22.008   7.445  0.00  0.00    +0.196 C 
BRANCH  11  16
ATOM     12 CL   LIG    1       20.771 -18.585   3.278  0.00  0.00    -0.084 Cl
ATOM     13  C   LIG    1       21.609 -19.578   4.406  0.00  0.00    +0.041 A 
ATOM     14  C   LIG    1       22.503 -18.999   5.304  0.00  0.00    +0.020 A 
ATOM     15  C   LIG    1       23.141 -19.794   6.258  0.00  0.00    +0.007 A 
ATOM     16  C   LIG    1       22.889 -21.171   6.323  0.00  0.00    -0.022 A 
ATOM     17  C   LIG    1       22.011 -21.745   5.387  0.00  0.00    +0.007 A 
ATOM     18  C   LIG    1       21.372 -20.950   4.431  0.00  0.00    +0.020 A 
ENDBRANCH  11  16
ENDBRANCH  10  11
ENDBRANCH   1  10
BRANCH   1  19
ATOM     19  C   LIG    1       26.037 -23.695   7.274  0.00  0.00    +0.159 C 
BRANCH  19  20
ATOM     20  N   LIG    1       25.855 -24.693   6.235  0.00  0.00    -0.334 N 
ATOM     21  C   LIG    1       26.443 -25.929   6.190  0.00  0.00    +0.199 A 
ATOM     22  N   LIG    1       26.068 -26.601   5.125  0.00  0.00    -0.244 NA
ATOM     23  C   LIG    1       25.182 -25.789   4.483  0.00  0.00    +0.130 A 
ATOM     24  C   LIG    1       25.019 -24.605   5.162  0.00  0.00    +0.107 A 
ENDBRANCH  19  20
ENDBRANCH   1  19
TORSDOF 6
ENDMDL
MODEL 7
REMARK VINA RESULT:      -8.1      2.987      6.263
REMARK  Name = *****
REMARK                            x       y       z     vdW  Elec       q    Type
REMARK                         _______ _______ _______ _____ _____    ______ ____
ROOT
ATOM      1  C   LIG    1       25.302 -21.981   7.006  0.00  0.00    +0.170 C 
ENDROOT
BRANCH   1   2
ATOM      2  C   LIG    1       24.436 -21.092   6.132  0.00  0.00    +0.001 A 
ATOM      3  C   LIG    1       24.974 -20.192   5.199  0.00  0.00    +0.048 A 
ATOM      4 CL   LIG    1       26.672 -20.082   4.898  0.00  0.00    -0.083 Cl
ATOM      5  C   LIG    1       24.137 -19.357   4.458  0.00  0.00    +0.040 A 
ATOM      6  C   LIG    1       22.759 -19.420   4.642  0.00  0.00    +0.042 A 
ATOM      7 CL   LIG    1       21.734 -18.347   3.774  0.00  0.00    -0.084 Cl
ATOM      8  C   LIG    1       22.201 -20.337   5.525  0.00  0.00    +0.020 A 
ATOM      9  C   LIG    1       23.034 -21.180   6.255  0.00  0.00    +0.009 A 
ENDBRANCH   1   2
BRANCH   1  10
ATOM     10  O   LIG    1       26.307 -21.169   7.653  0.00  0.00    -0.366 OA
BRANCH  10  11
ATOM     11  C   LIG    1       27.524 -21.890   7.903  0.00  0.00    +0.196 C 
BRANCH  11  16
ATOM     12 CL   LIG    1       32.144 -18.078   8.530  0.00  0.00    -0.084 Cl
ATOM     13  C   LIG    1       30.850 -19.180   8.258  0.00  0.00    +0.041 A 
ATOM     14  C   LIG    1       31.038 -20.539   8.499  0.00  0.00    +0.020 A 
ATOM     15  C   LIG    1       29.974 -21.427   8.335  0.00  0.00    +0.007 A 
ATOM     16  C   LIG    1       28.715 -20.964   7.932  0.00  0.00    -0.022 A 
ATOM     17  C   LIG    1       28.550 -19.595   7.660  0.00  0.00    +0.007 A 
ATOM     18  C   LIG    1       29.615 -18.705   7.823  0.00  0.00    +0.020 A 
ENDBRANCH  11  16
ENDBRANCH  10  11
ENDBRANCH   1  10
BRANCH   1  19
ATOM     19  C   LIG    1       26.006 -23.075   6.164  0.00  0.00    +0.159 C 
BRANCH  19  20
ATOM     20  N   LIG    1       25.401 -24.392   6.256  0.00  0.00    -0.334 N 
ATOM     21  C   LIG    1       24.060 -24.661   6.330  0.00  0.00    +0.199 A 
ATOM     22  N   LIG    1       23.832 -25.954   6.392  0.00  0.00    -0.244 NA
ATOM     23  C   LIG    1       25.061 -26.538   6.319  0.00  0.00    +0.130 A 
ATOM     24  C   LIG    1       26.050 -25.590   6.216  0.00  0.00    +0.107 A 
ENDBRANCH  19  20
ENDBRANCH   1  19
TORSDOF 6
ENDMDL
MODEL 8
REMARK VINA RESULT:      -8.0      2.737      6.900
REMARK  Name = *****
REMARK                            x       y       z     vdW  Elec       q    Type
REMARK                         _______ _______ _______ _____ _____    ______ ____
ROOT
ATOM      1  C   LIG    1       25.119 -21.855   5.470  0.00  0.00    +0.170 C 
ENDROOT
BRANCH   1   2
ATOM      2  C   LIG    1       25.200 -23.340   5.779  0.00  0.00    +0.001 A 
ATOM      3  C   LIG    1       25.598 -23.833   7.031  0.00  0.00    +0.048 A 
ATOM      4 CL   LIG    1       25.945 -22.789   8.364  0.00  0.00    -0.083 Cl
ATOM      5  C   LIG    1       25.709 -25.206   7.247  0.00  0.00    +0.040 A 
ATOM      6  C   LIG    1       25.418 -26.095   6.216  0.00  0.00    +0.042 A 
ATOM      7 CL   LIG    1       25.615 -27.784   6.465  0.00  0.00    -0.084 Cl
ATOM      8  C   LIG    1       24.975 -25.631   4.982  0.00  0.00    +0.020 A 
ATOM      9  C   LIG    1       24.852 -24.261   4.769  0.00  0.00    +0.009 A 
ENDBRANCH   1   2
BRANCH   1  10
ATOM     10  O   LIG    1       26.123 -21.159   6.242  0.00  0.00    -0.366 OA
BRANCH  10  11
ATOM     11  C   LIG    1       26.984 -20.348   5.428  0.00  0.00    +0.196 C 
BRANCH  11  16
ATOM     12 CL   LIG    1       31.883 -18.826   8.582  0.00  0.00    -0.084 Cl
ATOM     13  C   LIG    1       30.540 -19.311   7.620  0.00  0.00    +0.041 A 
ATOM     14  C   LIG    1       29.851 -20.479   7.937  0.00  0.00    +0.020 A 
ATOM     15  C   LIG    1       28.727 -20.844   7.194  0.00  0.00    +0.007 A 
ATOM     16  C   LIG    1       28.282 -20.045   6.133  0.00  0.00    -0.022 A 
ATOM     17  C   LIG    1       29.009 -18.888   5.805  0.00  0.00    +0.007 A 
ATOM     18  C   LIG    1       30.135 -18.521   6.547  0.00  0.00    +0.020 A 
ENDBRANCH  11  16
ENDBRANCH  10  11
ENDBRANCH   1  10
BRANCH   1  19
ATOM     19  C   LIG    1       23.724 -21.286   5.831  0.00  0.00    +0.159 C 
BRANCH  19  20
ATOM     20  N   LIG    1       23.333 -20.113   5.068  0.00  0.00    -0.334 N 
ATOM     21  C   LIG    1       23.907 -19.680   3.903  0.00  0.00    +0.199 A 
ATOM     22  N   LIG    1       23.320 -18.593   3.453  0.00  0.00    -0.244 NA
ATOM     23  C   LIG    1       22.314 -18.338   4.336  0.00  0.00    +0.130 A 
ATOM     24  C   LIG    1       22.290 -19.278   5.338  0.00  0.00    +0.107 A 
ENDBRANCH  19  20
ENDBRANCH   1  19
TORSDOF 6
ENDMDL
MODEL 9
REMARK VINA RESULT:      -7.5      4.877      9.648
REMARK  Name = *****
REMARK                            x       y       z     vdW  Elec       q    Type
REMARK                         _______ _______ _______ _____ _____    ______ ____
ROOT
ATOM      1  C   LIG    1       25.134 -29.261   7.172  0.00  0.00    +0.170 C 
ENDROOT
BRANCH   1   2
ATOM      2  C   LIG    1       24.690 -29.666   8.566  0.00  0.00    +0.001 A 
ATOM      3  C   LIG    1       25.417 -29.333   9.720  0.00  0.00    +0.048 A 
ATOM      4 CL   LIG    1       26.838 -28.353   9.662  0.00  0.00    -0.083 Cl
ATOM      5  C   LIG    1       24.994 -29.777  10.973  0.00  0.00    +0.040 A 
ATOM      6  C   LIG    1       23.842 -30.550  11.082  0.00  0.00    +0.042 A 
ATOM      7 CL   LIG    1       23.358 -31.147  12.619  0.00  0.00    -0.084 Cl
ATOM      8  C   LIG    1       23.080 -30.850   9.958  0.00  0.00    +0.020 A 
ATOM      9  C   LIG    1       23.493 -30.398   8.708  0.00  0.00    +0.009 A 
ENDBRANCH   1   2
BRANCH   1  10
ATOM     10  O   LIG    1       24.592 -27.957   6.866  0.00  0.00    -0.366 OA
BRANCH  10  11
ATOM     11  C   LIG    1       25.587 -27.046   6.372  0.00  0.00    +0.196 C 
BRANCH  11  16
ATOM     12 CL   LIG    1       23.647 -21.431   7.358  0.00  0.00    -0.084 Cl
ATOM     13  C   LIG    1       24.213 -23.012   6.983  0.00  0.00    +0.041 A 
ATOM     14  C   LIG    1       25.572 -23.300   7.080  0.00  0.00    +0.020 A 
ATOM     15  C   LIG    1       26.027 -24.596   6.833  0.00  0.00    +0.007 A 
ATOM     16  C   LIG    1       25.127 -25.614   6.488  0.00  0.00    -0.022 A 
ATOM     17  C   LIG    1       23.763 -25.299   6.360  0.00  0.00    +0.007 A 
ATOM     18  C   LIG    1       23.307 -24.001   6.607  0.00  0.00    +0.020 A 
ENDBRANCH  11  16
ENDBRANCH  10  11
ENDBRANCH   1  10
BRANCH   1  19
ATOM     19  C   LIG    1       24.635 -30.274   6.111  0.00  0.00    +0.159 C 
BRANCH  19  20
ATOM     20  N   LIG    1       25.560 -31.356   5.824  0.00  0.00    -0.334 N 
ATOM     21  C   LIG    1       25.785 -31.922   4.598  0.00  0.00    +0.199 A 
ATOM     22  N   LIG    1       26.690 -32.872   4.666  0.00  0.00    -0.244 NA
ATOM     23  C   LIG    1       27.088 -32.895   5.968  0.00  0.00    +0.130 A 
ATOM     24  C   LIG    1       26.413 -31.951   6.705  0.00  0.00    +0.107 A 
ENDBRANCH  19  20
ENDBRANCH   1  19
TORSDOF 6
ENDMDL
