MODEL 1
REMARK VINA RESULT:      -4.0      0.000      0.000
REMARK  Name = *****
REMARK                            x       y       z     vdW  Elec       q    Type
REMARK                         _______ _______ _______ _____ _____    ______ ____
ROOT
ATOM      1  O   LIG    1       24.347 -21.572   3.032  0.00  0.00    -0.254 OA
ATOM      2  P   LIG    1       24.453 -20.839   4.326  0.00  0.00    +0.346 P 
ATOM      3  N   LIG    1       24.525 -19.200   4.206  0.00  0.00    -0.218 NA
ATOM      4  C   LIG    1       23.266 -18.469   4.077  0.00  0.00    +0.097 C 
ATOM      5  C   LIG    1       22.183 -18.977   5.031  0.00  0.00    +0.044 C 
ATOM      6  C   LIG    1       21.976 -20.474   4.864  0.00  0.00    +0.171 C 
ATOM      7  O   LIG    1       23.166 -21.133   5.253  0.00  0.00    -0.305 OA
ENDROOT
BRANCH   2   8
ATOM      8  N   LIG    1       25.726 -21.261   5.261  0.00  0.00    -0.231 NA
ATOM      9  H   LIG    1       25.802 -22.273   5.319  0.00  0.00    +0.133 HD
BRANCH   8  10
ATOM     10  C   LIG    1       25.819 -20.708   6.611  0.00  0.00    +0.107 C 
BRANCH  10  11
ATOM     11  C   LIG    1       27.258 -20.391   7.011  0.00  0.00    +0.124 C 
ATOM     12 CL   LIG    1       28.176 -19.715   5.640  0.00  0.00    -0.124 Cl
ENDBRANCH  10  11
ENDBRANCH   8  10
ENDBRANCH   2   8
BRANCH   3  13
ATOM     13  C   LIG    1       25.560 -18.649   3.309  0.00  0.00    +0.110 C 
BRANCH  13  14
ATOM     14  C   LIG    1       25.612 -17.116   3.225  0.00  0.00    +0.124 C 
ATOM     15 CL   LIG    1       27.237 -16.522   3.653  0.00  0.00    -0.124 Cl
ENDBRANCH  13  14
ENDBRANCH   3  13
TORSDOF 5
ENDMDL
MODEL 2
REMARK VINA RESULT:      -3.7      1.879      3.759
REMARK  Name = *****
REMARK                            x       y       z     vdW  Elec       q    Type
REMARK                         _______ _______ _______ _____ _____    ______ ____
ROOT
ATOM      1  O   LIG    1       24.284 -21.364   3.261  0.00  0.00    -0.254 OA
ATOM      2  P   LIG    1       24.545 -20.165   4.107  0.00  0.00    +0.346 P 
ATOM      3  N   LIG    1       23.425 -19.866   5.274  0.00  0.00    -0.218 NA
ATOM      4  C   LIG    1       23.547 -20.590   6.538  0.00  0.00    +0.097 C 
ATOM      5  C   LIG    1       24.986 -20.645   7.056  0.00  0.00    +0.044 C 
ATOM      6  C   LIG    1       25.917 -21.214   5.998  0.00  0.00    +0.171 C 
ATOM      7  O   LIG    1       25.942 -20.322   4.900  0.00  0.00    -0.305 OA
ENDROOT
BRANCH   2   8
ATOM      8  N   LIG    1       24.705 -18.758   3.290  0.00  0.00    -0.231 NA
ATOM      9  H   LIG    1       24.514 -18.900   2.301  0.00  0.00    +0.133 HD
BRANCH   8  10
ATOM     10  C   LIG    1       25.951 -18.007   3.423  0.00  0.00    +0.107 C 
BRANCH  10  11
ATOM     11  C   LIG    1       25.740 -16.501   3.278  0.00  0.00    +0.124 C 
ATOM     12 CL   LIG    1       27.228 -15.600   3.664  0.00  0.00    -0.124 Cl
ENDBRANCH  10  11
ENDBRANCH   8  10
ENDBRANCH   2   8
BRANCH   3  13
ATOM     13  C   LIG    1       22.019 -19.789   4.834  0.00  0.00    +0.110 C 
BRANCH  13  14
ATOM     14  C   LIG    1       21.646 -18.532   4.034  0.00  0.00    +0.124 C 
ATOM     15 CL   LIG    1       22.229 -17.066   4.864  0.00  0.00    -0.124 Cl
ENDBRANCH  13  14
ENDBRANCH   3  13
TORSDOF 5
ENDMDL
MODEL 3
REMARK VINA RESULT:      -3.2      5.141      6.230
REMARK  Name = *****
REMARK                            x       y       z     vdW  Elec       q    Type
REMARK                         _______ _______ _______ _____ _____    ______ ____
ROOT
ATOM      1  O   LIG    1       26.430 -14.067   2.138  0.00  0.00    -0.254 OA
ATOM      2  P   LIG    1       25.433 -14.338   3.213  0.00  0.00    +0.346 P 
ATOM      3  N   LIG    1       25.761 -13.647   4.670  0.00  0.00    -0.218 NA
ATOM      4  C   LIG    1       25.365 -12.255   4.870  0.00  0.00    +0.097 C 
ATOM      5  C   LIG    1       23.962 -11.954   4.341  0.00  0.00    +0.044 C 
ATOM      6  C   LIG    1       23.837 -12.362   2.882  0.00  0.00    +0.171 C 
ATOM      7  O   LIG    1       23.981 -13.768   2.800  0.00  0.00    -0.305 OA
ENDROOT
BRANCH   2   8
ATOM      8  N   LIG    1       25.166 -15.918   3.534  0.00  0.00    -0.231 NA
ATOM      9  H   LIG    1       24.840 -16.035   4.490  0.00  0.00    +0.133 HD
BRANCH   8  10
ATOM     10  C   LIG    1       26.242 -16.876   3.286  0.00  0.00    +0.107 C 
BRANCH  10  11
ATOM     11  C   LIG    1       25.756 -18.323   3.345  0.00  0.00    +0.124 C 
ATOM     12 CL   LIG    1       24.007 -18.404   3.677  0.00  0.00    -0.124 Cl
ENDBRANCH  10  11
ENDBRANCH   8  10
ENDBRANCH   2   8
BRANCH   3  13
ATOM     13  C   LIG    1       27.097 -13.912   5.239  0.00  0.00    +0.110 C 
BRANCH  13  14
ATOM     14  C   LIG    1       28.104 -12.759   5.121  0.00  0.00    +0.124 C 
ATOM     15 CL   LIG    1       29.135 -12.974   3.682  0.00  0.00    -0.124 Cl
ENDBRANCH  13  14
ENDBRANCH   3  13
TORSDOF 5
ENDMDL
MODEL 4
REMARK VINA RESULT:      -3.2      5.053      6.449
REMARK  Name = *****
REMARK                            x       y       z     vdW  Elec       q    Type
REMARK                         _______ _______ _______ _____ _____    ______ ____
ROOT
ATOM      1  O   LIG    1       24.861 -14.446   4.722  0.00  0.00    -0.254 OA
ATOM      2  P   LIG    1       25.888 -14.747   3.685  0.00  0.00    +0.346 P 
ATOM      3  N   LIG    1       26.079 -13.597   2.524  0.00  0.00    -0.218 NA
ATOM      4  C   LIG    1       26.945 -12.459   2.826  0.00  0.00    +0.097 C 
ATOM      5  C   LIG    1       28.248 -12.870   3.516  0.00  0.00    +0.044 C 
ATOM      6  C   LIG    1       27.962 -13.696   4.759  0.00  0.00    +0.171 C 
ATOM      7  O   LIG    1       27.346 -14.905   4.358  0.00  0.00    -0.305 OA
ENDROOT
BRANCH   2   8
ATOM      8  N   LIG    1       25.668 -16.149   2.873  0.00  0.00    -0.231 NA
ATOM      9  H   LIG    1       24.680 -16.292   2.677  0.00  0.00    +0.133 HD
BRANCH   8  10
ATOM     10  C   LIG    1       26.217 -17.380   3.437  0.00  0.00    +0.107 C 
BRANCH  10  11
ATOM     11  C   LIG    1       25.244 -18.553   3.329  0.00  0.00    +0.124 C 
ATOM     12 CL   LIG    1       25.718 -19.887   4.412  0.00  0.00    -0.124 Cl
ENDBRANCH  10  11
ENDBRANCH   8  10
ENDBRANCH   2   8
BRANCH   3  13
ATOM     13  C   LIG    1       24.858 -13.168   1.814  0.00  0.00    +0.110 C 
BRANCH  13  14
ATOM     14  C   LIG    1       24.472 -11.693   1.998  0.00  0.00    +0.124 C 
ATOM     15 CL   LIG    1       23.584 -11.465   3.526  0.00  0.00    -0.124 Cl
ENDBRANCH  13  14
ENDBRANCH   3  13
TORSDOF 5
ENDMDL
MODEL 5
REMARK VINA RESULT:      -2.7      4.630      5.876
REMARK  Name = *****
REMARK                            x       y       z     vdW  Elec       q    Type
REMARK                         _______ _______ _______ _____ _____    ______ ____
ROOT
ATOM      1  O   LIG    1       26.859 -14.714   4.479  0.00  0.00    -0.254 OA
ATOM      2  P   LIG    1       25.894 -14.942   3.366  0.00  0.00    +0.346 P 
ATOM      3  N   LIG    1       24.344 -14.481   3.669  0.00  0.00    -0.218 NA
ATOM      4  C   LIG    1       23.998 -13.075   3.471  0.00  0.00    +0.097 C 
ATOM      5  C   LIG    1       24.579 -12.496   2.179  0.00  0.00    +0.044 C 
ATOM      6  C   LIG    1       26.082 -12.712   2.119  0.00  0.00    +0.171 C 
ATOM      7  O   LIG    1       26.329 -14.104   2.056  0.00  0.00    -0.305 OA
ENDROOT
BRANCH   2   8
ATOM      8  N   LIG    1       25.791 -16.485   2.838  0.00  0.00    -0.231 NA
ATOM      9  H   LIG    1       24.820 -16.739   2.672  0.00  0.00    +0.133 HD
BRANCH   8  10
ATOM     10  C   LIG    1       26.422 -17.541   3.628  0.00  0.00    +0.107 C 
BRANCH  10  11
ATOM     11  C   LIG    1       25.654 -18.859   3.555  0.00  0.00    +0.124 C 
ATOM     12 CL   LIG    1       26.108 -19.946   4.893  0.00  0.00    -0.124 Cl
ENDBRANCH  10  11
ENDBRANCH   8  10
ENDBRANCH   2   8
BRANCH   3  13
ATOM     13  C   LIG    1       23.725 -15.018   4.897  0.00  0.00    +0.110 C 
BRANCH  13  14
ATOM     14  C   LIG    1       22.354 -15.684   4.707  0.00  0.00    +0.124 C 
ATOM     15 CL   LIG    1       22.535 -17.448   4.525  0.00  0.00    -0.124 Cl
ENDBRANCH  13  14
ENDBRANCH   3  13
TORSDOF 5
ENDMDL
MODEL 6
REMARK VINA RESULT:      -2.7      5.976      7.869
REMARK  Name = *****
REMARK                            x       y       z     vdW  Elec       q    Type
REMARK                         _______ _______ _______ _____ _____    ______ ____
ROOT
ATOM      1  O   LIG    1       26.552 -15.537   2.960  0.00  0.00    -0.254 OA
ATOM      2  P   LIG    1       26.435 -14.054   3.058  0.00  0.00    +0.346 P 
ATOM      3  N   LIG    1       25.919 -13.479   4.510  0.00  0.00    -0.218 NA
ATOM      4  C   LIG    1       26.911 -13.313   5.570  0.00  0.00    +0.097 C 
ATOM      5  C   LIG    1       28.210 -12.675   5.075  0.00  0.00    +0.044 C 
ATOM      6  C   LIG    1       28.779 -13.453   3.899  0.00  0.00    +0.171 C 
ATOM      7  O   LIG    1       27.870 -13.354   2.819  0.00  0.00    -0.305 OA
ENDROOT
BRANCH   2   8
ATOM      8  N   LIG    1       25.460 -13.358   1.945  0.00  0.00    -0.231 NA
ATOM      9  H   LIG    1       25.744 -13.630   1.007  0.00  0.00    +0.133 HD
BRANCH   8  10
ATOM     10  C   LIG    1       25.281 -11.909   1.978  0.00  0.00    +0.107 C 
BRANCH  10  11
ATOM     11  C   LIG    1       23.839 -11.509   2.284  0.00  0.00    +0.124 C 
ATOM     12 CL   LIG    1       23.545 -11.447   4.041  0.00  0.00    -0.124 Cl
ENDBRANCH  10  11
ENDBRANCH   8  10
ENDBRANCH   2   8
BRANCH   3  13
ATOM     13  C   LIG    1       24.662 -14.050   5.035  0.00  0.00    +0.110 C 
BRANCH  13  14
ATOM     14  C   LIG    1       23.856 -14.897   4.040  0.00  0.00    +0.124 C 
ATOM     15 CL   LIG    1       22.502 -15.711   4.865  0.00  0.00    -0.124 Cl
ENDBRANCH  13  14
ENDBRANCH   3  13
TORSDOF 5
ENDMDL
MODEL 7
REMARK VINA RESULT:      -2.3      5.629      6.950
REMARK  Name = *****
REMARK                            x       y       z     vdW  Elec       q    Type
REMARK                         _______ _______ _______ _____ _____    ______ ____
ROOT
ATOM      1  O   LIG    1       23.863 -14.623   4.514  0.00  0.00    -0.254 OA
ATOM      2  P   LIG    1       24.906 -13.569   4.357  0.00  0.00    +0.346 P 
ATOM      3  N   LIG    1       25.643 -13.517   2.887  0.00  0.00    -0.218 NA
ATOM      4  C   LIG    1       24.971 -12.791   1.812  0.00  0.00    +0.097 C 
ATOM      5  C   LIG    1       24.399 -11.447   2.269  0.00  0.00    +0.044 C 
ATOM      6  C   LIG    1       23.486 -11.631   3.471  0.00  0.00    +0.171 C 
ATOM      7  O   LIG    1       24.266 -12.101   4.554  0.00  0.00    -0.305 OA
ENDROOT
BRANCH   2   8
ATOM      8  N   LIG    1       26.122 -13.626   5.449  0.00  0.00    -0.231 NA
ATOM      9  H   LIG    1       25.753 -13.809   6.379  0.00  0.00    +0.133 HD
BRANCH   8  10
ATOM     10  C   LIG    1       27.048 -12.498   5.526  0.00  0.00    +0.107 C 
BRANCH  10  11
ATOM     11  C   LIG    1       28.503 -12.928   5.353  0.00  0.00    +0.124 C 
ATOM     12 CL   LIG    1       28.997 -12.857   3.642  0.00  0.00    -0.124 Cl
ENDBRANCH  10  11
ENDBRANCH   8  10
ENDBRANCH   2   8
BRANCH   3  13
ATOM     13  C   LIG    1       26.226 -14.782   2.397  0.00  0.00    +0.110 C 
BRANCH  13  14
ATOM     14  C   LIG    1       26.768 -15.723   3.483  0.00  0.00    +0.124 C 
ATOM     15 CL   LIG    1       26.062 -17.351   3.311  0.00  0.00    -0.124 Cl
ENDBRANCH  13  14
ENDBRANCH   3  13
TORSDOF 5
ENDMDL
MODEL 8
REMARK VINA RESULT:      -1.5      5.190      6.506
REMARK  Name = *****
REMARK                            x       y       z     vdW  Elec       q    Type
REMARK                         _______ _______ _______ _____ _____    ______ ____
ROOT
ATOM      1  O   LIG    1       24.595 -12.900   2.268  0.00  0.00    -0.254 OA
ATOM      2  P   LIG    1       24.485 -13.663   3.545  0.00  0.00    +0.346 P 
ATOM      3  N   LIG    1       25.851 -14.446   4.020  0.00  0.00    -0.218 NA
ATOM      4  C   LIG    1       26.860 -13.680   4.748  0.00  0.00    +0.097 C 
ATOM      5  C   LIG    1       26.257 -12.773   5.823  0.00  0.00    +0.044 C 
ATOM      6  C   LIG    1       25.192 -11.865   5.227  0.00  0.00    +0.171 C 
ATOM      7  O   LIG    1       24.125 -12.674   4.769  0.00  0.00    -0.305 OA
ENDROOT
BRANCH   2   8
ATOM      8  N   LIG    1       23.303 -14.791   3.582  0.00  0.00    -0.231 NA
ATOM      9  H   LIG    1       22.417 -14.384   3.295  0.00  0.00    +0.133 HD
BRANCH   8  10
ATOM     10  C   LIG    1       23.094 -15.549   4.814  0.00  0.00    +0.107 C 
BRANCH  10  11
ATOM     11  C   LIG    1       21.917 -16.516   4.708  0.00  0.00    +0.124 C 
ATOM     12 CL   LIG    1       22.478 -18.203   4.580  0.00  0.00    -0.124 Cl
ENDBRANCH  10  11
ENDBRANCH   8  10
ENDBRANCH   2   8
BRANCH   3  13
ATOM     13  C   LIG    1       26.473 -15.346   3.029  0.00  0.00    +0.110 C 
BRANCH  13  14
ATOM     14  C   LIG    1       26.937 -16.706   3.573  0.00  0.00    +0.124 C 
ATOM     15 CL   LIG    1       25.697 -17.953   3.278  0.00  0.00    -0.124 Cl
ENDBRANCH  13  14
ENDBRANCH   3  13
TORSDOF 5
ENDMDL
MODEL 9
REMARK VINA RESULT:      -1.5      5.180      7.072
REMARK  Name = *****
REMARK                            x       y       z     vdW  Elec       q    Type
REMARK                         _______ _______ _______ _____ _____    ______ ____
ROOT
ATOM      1  O   LIG    1       26.043 -14.040   1.812  0.00  0.00    -0.254 OA
ATOM      2  P   LIG    1       25.860 -14.271   3.273  0.00  0.00    +0.346 P 
ATOM      3  N   LIG    1       26.186 -15.797   3.794  0.00  0.00    -0.218 NA
ATOM      4  C   LIG    1       27.579 -16.141   4.074  0.00  0.00    +0.097 C 
ATOM      5  C   LIG    1       28.316 -15.048   4.850  0.00  0.00    +0.044 C 
ATOM      6  C   LIG    1       28.206 -13.711   4.135  0.00  0.00    +0.171 C 
ATOM      7  O   LIG    1       26.846 -13.321   4.128  0.00  0.00    -0.305 OA
ENDROOT
BRANCH   2   8
ATOM      8  N   LIG    1       24.371 -13.926   3.851  0.00  0.00    -0.231 NA
ATOM      9  H   LIG    1       23.814 -14.774   3.925  0.00  0.00    +0.133 HD
BRANCH   8  10
ATOM     10  C   LIG    1       23.576 -12.903   3.176  0.00  0.00    +0.107 C 
BRANCH  10  11
ATOM     11  C   LIG    1       23.780 -11.515   3.780  0.00  0.00    +0.124 C 
ATOM     12 CL   LIG    1       24.067 -11.612   5.536  0.00  0.00    -0.124 Cl
ENDBRANCH  10  11
ENDBRANCH   8  10
ENDBRANCH   2   8
BRANCH   3  13
ATOM     13  C   LIG    1       25.494 -16.896   3.090  0.00  0.00    +0.110 C 
BRANCH  13  14
ATOM     14  C   LIG    1       25.754 -18.303   3.648  0.00  0.00    +0.124 C 
ATOM     15 CL   LIG    1       24.243 -19.248   3.691  0.00  0.00    -0.124 Cl
ENDBRANCH  13  14
ENDBRANCH   3  13
TORSDOF 5
ENDMDL
