MODEL 1
REMARK VINA RESULT:      -4.8      0.000      0.000
REMARK  Name = *****
REMARK                            x       y       z     vdW  Elec       q    Type
REMARK                         _______ _______ _______ _____ _____    ______ ____
ROOT
ATOM      1  CA  HIS A  1       26.821 -14.276   4.497  0.00  0.00    +0.167 C 
ENDROOT
BRANCH   1   2
ATOM      2  N   HIS A  1       26.780 -13.311   5.647  0.00  0.00    -0.318 NA
ATOM      3  H1  HIS A  1       27.361 -13.747   6.390  0.00  0.00    +0.119 HD
ATOM      4  H2  HIS A  1       27.373 -12.517   5.379  0.00  0.00    +0.119 HD
ENDBRANCH   1   2
BRANCH   1   5
ATOM      5  C   HIS A  1       27.844 -13.800   3.455  0.00  0.00    +0.322 C 
ATOM      6  O   HIS A  1       28.837 -13.124   3.716  0.00  0.00    -0.249 OA
BRANCH   5   7
ATOM      7  OXT HIS A  1       27.518 -14.160   2.189  0.00  0.00    -0.479 OA
ATOM      8  HXT HIS A  1       26.698 -13.659   1.957  0.00  0.00    +0.295 HD
ENDBRANCH   5   7
ENDBRANCH   1   5
BRANCH   1   9
ATOM      9  CB  HIS A  1       25.443 -14.503   3.849  0.00  0.00    +0.086 C 
BRANCH   9  10
ATOM     10  CG  HIS A  1       24.707 -13.248   3.513  0.00  0.00    +0.061 A 
ATOM     11  ND1 HIS A  1       24.128 -12.476   4.497  0.00  0.00    -0.241 NA
ATOM     12  CE1 HIS A  1       23.600 -11.449   3.874  0.00  0.00    +0.196 A 
ATOM     13  NE2 HIS A  1       23.782 -11.536   2.524  0.00  0.00    -0.351 N 
ATOM     14  HE2 HIS A  1       23.463 -10.866   1.838  0.00  0.00    +0.166 HD
ATOM     15  CD2 HIS A  1       24.481 -12.685   2.276  0.00  0.00    +0.107 A 
ENDBRANCH   9  10
ENDBRANCH   1   9
TORSDOF 5
ENDMDL
MODEL 2
REMARK VINA RESULT:      -4.7      1.328      1.510
REMARK  Name = *****
REMARK                            x       y       z     vdW  Elec       q    Type
REMARK                         _______ _______ _______ _____ _____    ______ ____
ROOT
ATOM      1  CA  HIS A  1       26.897 -14.636   3.529  0.00  0.00    +0.167 C 
ENDROOT
BRANCH   1   2
ATOM      2  N   HIS A  1       27.495 -15.968   3.881  0.00  0.00    -0.318 NA
ATOM      3  H1  HIS A  1       27.774 -15.886   4.878  0.00  0.00    +0.119 HD
ATOM      4  H2  HIS A  1       26.711 -16.626   3.953  0.00  0.00    +0.119 HD
ENDBRANCH   1   2
BRANCH   1   5
ATOM      5  C   HIS A  1       27.644 -13.518   4.272  0.00  0.00    +0.322 C 
ATOM      6  O   HIS A  1       28.681 -12.992   3.873  0.00  0.00    -0.249 OA
BRANCH   5   7
ATOM      7  OXT HIS A  1       27.070 -13.193   5.457  0.00  0.00    -0.479 OA
ATOM      8  HXT HIS A  1       26.373 -12.521   5.256  0.00  0.00    +0.295 HD
ENDBRANCH   5   7
ENDBRANCH   1   5
BRANCH   1   9
ATOM      9  CB  HIS A  1       25.384 -14.560   3.803  0.00  0.00    +0.086 C 
BRANCH   9  10
ATOM     10  CG  HIS A  1       24.732 -13.308   3.316  0.00  0.00    +0.061 A 
ATOM     11  ND1 HIS A  1       24.105 -12.446   4.190  0.00  0.00    -0.241 NA
ATOM     12  CE1 HIS A  1       23.675 -11.448   3.453  0.00  0.00    +0.196 A 
ATOM     13  NE2 HIS A  1       23.967 -11.640   2.133  0.00  0.00    -0.351 N 
ATOM     14  HE2 HIS A  1       23.735 -11.012   1.376  0.00  0.00    +0.166 HD
ATOM     15  CD2 HIS A  1       24.635 -12.829   2.028  0.00  0.00    +0.107 A 
ENDBRANCH   9  10
ENDBRANCH   1   9
TORSDOF 5
ENDMDL
MODEL 3
REMARK VINA RESULT:      -4.6      1.475      1.857
REMARK  Name = *****
REMARK                            x       y       z     vdW  Elec       q    Type
REMARK                         _______ _______ _______ _____ _____    ______ ____
ROOT
ATOM      1  CA  HIS A  1       27.714 -13.851   4.726  0.00  0.00    +0.167 C 
ENDROOT
BRANCH   1   2
ATOM      2  N   HIS A  1       26.718 -13.228   5.663  0.00  0.00    -0.318 NA
ATOM      3  H1  HIS A  1       25.881 -13.841   5.618  0.00  0.00    +0.119 HD
ATOM      4  H2  HIS A  1       27.053 -13.425   6.612  0.00  0.00    +0.119 HD
ENDBRANCH   1   2
BRANCH   1   5
ATOM      5  C   HIS A  1       28.797 -12.825   4.362  0.00  0.00    +0.322 C 
ATOM      6  O   HIS A  1       29.467 -12.860   3.332  0.00  0.00    -0.249 OA
BRANCH   5   7
ATOM      7  OXT HIS A  1       28.986 -11.888   5.324  0.00  0.00    -0.479 OA
ATOM      8  HXT HIS A  1       28.842 -12.341   6.189  0.00  0.00    +0.295 HD
ENDBRANCH   5   7
ENDBRANCH   1   5
BRANCH   1   9
ATOM      9  CB  HIS A  1       27.066 -14.438   3.459  0.00  0.00    +0.086 C 
BRANCH   9  10
ATOM     10  CG  HIS A  1       25.689 -13.933   3.181  0.00  0.00    +0.061 A 
ATOM     11  ND1 HIS A  1       24.608 -14.370   3.917  0.00  0.00    -0.241 NA
ATOM     12  CE1 HIS A  1       23.573 -13.716   3.445  0.00  0.00    +0.196 A 
ATOM     13  NE2 HIS A  1       23.928 -12.898   2.411  0.00  0.00    -0.351 N 
ATOM     14  HE2 HIS A  1       23.305 -12.299   1.887  0.00  0.00    +0.166 HD
ATOM     15  CD2 HIS A  1       25.276 -13.031   2.224  0.00  0.00    +0.107 A 
ENDBRANCH   9  10
ENDBRANCH   1   9
TORSDOF 5
ENDMDL
MODEL 4
REMARK VINA RESULT:      -4.6      7.919      8.842
REMARK  Name = *****
REMARK                            x       y       z     vdW  Elec       q    Type
REMARK                         _______ _______ _______ _____ _____    ______ ____
ROOT
ATOM      1  CA  HIS A  1       25.173 -20.911   5.188  0.00  0.00    +0.167 C 
ENDROOT
BRANCH   1   2
ATOM      2  N   HIS A  1       25.731 -20.170   4.006  0.00  0.00    -0.318 NA
ATOM      3  H1  HIS A  1       26.265 -20.879   3.467  0.00  0.00    +0.119 HD
ATOM      4  H2  HIS A  1       24.942 -20.001   3.374  0.00  0.00    +0.119 HD
ENDBRANCH   1   2
BRANCH   1   5
ATOM      5  C   HIS A  1       23.652 -20.712   5.256  0.00  0.00    +0.322 C 
ATOM      6  O   HIS A  1       23.061 -20.200   6.204  0.00  0.00    -0.249 OA
BRANCH   5   7
ATOM      7  OXT HIS A  1       23.003 -21.209   4.173  0.00  0.00    -0.479 OA
ATOM      8  HXT HIS A  1       23.572 -21.933   3.814  0.00  0.00    +0.295 HD
ENDBRANCH   5   7
ENDBRANCH   1   5
BRANCH   1   9
ATOM      9  CB  HIS A  1       25.838 -20.514   6.519  0.00  0.00    +0.086 C 
BRANCH   9  10
ATOM     10  CG  HIS A  1       27.330 -20.470   6.472  0.00  0.00    +0.061 A 
ATOM     11  ND1 HIS A  1       27.992 -19.489   5.765  0.00  0.00    -0.241 NA
ATOM     12  CE1 HIS A  1       29.270 -19.718   5.957  0.00  0.00    +0.196 A 
ATOM     13  NE2 HIS A  1       29.468 -20.825   6.731  0.00  0.00    -0.351 N 
ATOM     14  HE2 HIS A  1       30.363 -21.201   7.011  0.00  0.00    +0.166 HD
ATOM     15  CD2 HIS A  1       28.238 -21.322   7.062  0.00  0.00    +0.107 A 
ENDBRANCH   9  10
ENDBRANCH   1   9
TORSDOF 5
ENDMDL
MODEL 5
REMARK VINA RESULT:      -4.5      6.892      7.663
REMARK  Name = *****
REMARK                            x       y       z     vdW  Elec       q    Type
REMARK                         _______ _______ _______ _____ _____    ______ ____
ROOT
ATOM      1  CA  HIS A  1       28.444 -20.389   6.146  0.00  0.00    +0.167 C 
ENDROOT
BRANCH   1   2
ATOM      2  N   HIS A  1       29.402 -21.202   6.970  0.00  0.00    -0.318 NA
ATOM      3  H1  HIS A  1       28.892 -21.415   7.849  0.00  0.00    +0.119 HD
ATOM      4  H2  HIS A  1       29.438 -22.131   6.537  0.00  0.00    +0.119 HD
ENDBRANCH   1   2
BRANCH   1   5
ATOM      5  C   HIS A  1       28.954 -18.945   6.030  0.00  0.00    +0.322 C 
ATOM      6  O   HIS A  1       29.475 -18.317   6.950  0.00  0.00    -0.249 OA
BRANCH   5   7
ATOM      7  OXT HIS A  1       28.726 -18.398   4.810  0.00  0.00    -0.479 OA
ATOM      8  HXT HIS A  1       28.657 -19.151   4.174  0.00  0.00    +0.295 HD
ENDBRANCH   5   7
ENDBRANCH   1   5
BRANCH   1   9
ATOM      9  CB  HIS A  1       27.003 -20.420   6.689  0.00  0.00    +0.086 C 
BRANCH   9  10
ATOM     10  CG  HIS A  1       25.957 -20.630   5.644  0.00  0.00    +0.061 A 
ATOM     11  ND1 HIS A  1       25.908 -19.841   4.515  0.00  0.00    -0.241 NA
ATOM     12  CE1 HIS A  1       24.908 -20.305   3.804  0.00  0.00    +0.196 A 
ATOM     13  NE2 HIS A  1       24.283 -21.341   4.436  0.00  0.00    -0.351 N 
ATOM     14  HE2 HIS A  1       23.487 -21.856   4.087  0.00  0.00    +0.166 HD
ATOM     15  CD2 HIS A  1       24.936 -21.556   5.618  0.00  0.00    +0.107 A 
ENDBRANCH   9  10
ENDBRANCH   1   9
TORSDOF 5
ENDMDL
MODEL 6
REMARK VINA RESULT:      -4.4      7.752      8.280
REMARK  Name = *****
REMARK                            x       y       z     vdW  Elec       q    Type
REMARK                         _______ _______ _______ _____ _____    ______ ____
ROOT
ATOM      1  CA  HIS A  1       27.253 -20.078   6.303  0.00  0.00    +0.167 C 
ENDROOT
BRANCH   1   2
ATOM      2  N   HIS A  1       27.309 -19.906   4.812  0.00  0.00    -0.318 NA
ATOM      3  H1  HIS A  1       27.559 -18.909   4.661  0.00  0.00    +0.119 HD
ATOM      4  H2  HIS A  1       28.169 -20.370   4.500  0.00  0.00    +0.119 HD
ENDBRANCH   1   2
BRANCH   1   5
ATOM      5  C   HIS A  1       28.673 -20.269   6.858  0.00  0.00    +0.322 C 
ATOM      6  O   HIS A  1       29.467 -19.354   7.062  0.00  0.00    -0.249 OA
BRANCH   5   7
ATOM      7  OXT HIS A  1       28.993 -21.572   7.058  0.00  0.00    -0.479 OA
ATOM      8  HXT HIS A  1       28.997 -21.999   6.167  0.00  0.00    +0.295 HD
ENDBRANCH   5   7
ENDBRANCH   1   5
BRANCH   1   9
ATOM      9  CB  HIS A  1       26.332 -21.228   6.745  0.00  0.00    +0.086 C 
BRANCH   9  10
ATOM     10  CG  HIS A  1       24.930 -21.122   6.243  0.00  0.00    +0.061 A 
ATOM     11  ND1 HIS A  1       24.638 -21.282   4.906  0.00  0.00    -0.241 NA
ATOM     12  CE1 HIS A  1       23.334 -21.161   4.813  0.00  0.00    +0.196 A 
ATOM     13  NE2 HIS A  1       22.769 -20.895   6.027  0.00  0.00    -0.351 N 
ATOM     14  HE2 HIS A  1       21.784 -20.759   6.206  0.00  0.00    +0.166 HD
ATOM     15  CD2 HIS A  1       23.776 -20.859   6.951  0.00  0.00    +0.107 A 
ENDBRANCH   9  10
ENDBRANCH   1   9
TORSDOF 5
ENDMDL
MODEL 7
REMARK VINA RESULT:      -4.4      2.577      3.856
REMARK  Name = *****
REMARK                            x       y       z     vdW  Elec       q    Type
REMARK                         _______ _______ _______ _____ _____    ______ ____
ROOT
ATOM      1  CA  HIS A  1       24.320 -14.122   4.358  0.00  0.00    +0.167 C 
ENDROOT
BRANCH   1   2
ATOM      2  N   HIS A  1       23.142 -15.052   4.409  0.00  0.00    -0.318 NA
ATOM      3  H1  HIS A  1       22.448 -14.580   5.021  0.00  0.00    +0.119 HD
ATOM      4  H2  HIS A  1       22.678 -14.980   3.498  0.00  0.00    +0.119 HD
ENDBRANCH   1   2
BRANCH   1   5
ATOM      5  C   HIS A  1       23.938 -12.839   3.605  0.00  0.00    +0.322 C 
ATOM      6  O   HIS A  1       23.740 -11.752   4.142  0.00  0.00    -0.249 OA
BRANCH   5   7
ATOM      7  OXT HIS A  1       23.786 -13.033   2.271  0.00  0.00    -0.479 OA
ATOM      8  HXT HIS A  1       24.577 -12.630   1.837  0.00  0.00    +0.295 HD
ENDBRANCH   5   7
ENDBRANCH   1   5
BRANCH   1   9
ATOM      9  CB  HIS A  1       25.574 -14.767   3.741  0.00  0.00    +0.086 C 
BRANCH   9  10
ATOM     10  CG  HIS A  1       26.820 -13.956   3.889  0.00  0.00    +0.061 A 
ATOM     11  ND1 HIS A  1       27.159 -13.385   5.097  0.00  0.00    -0.241 NA
ATOM     12  CE1 HIS A  1       28.306 -12.781   4.891  0.00  0.00    +0.196 A 
ATOM     13  NE2 HIS A  1       28.710 -12.906   3.593  0.00  0.00    -0.351 N 
ATOM     14  HE2 HIS A  1       29.558 -12.524   3.197  0.00  0.00    +0.166 HD
ATOM     15  CD2 HIS A  1       27.768 -13.647   2.937  0.00  0.00    +0.107 A 
ENDBRANCH   9  10
ENDBRANCH   1   9
TORSDOF 5
ENDMDL
MODEL 8
REMARK VINA RESULT:      -4.3      2.523      4.289
REMARK  Name = *****
REMARK                            x       y       z     vdW  Elec       q    Type
REMARK                         _______ _______ _______ _____ _____    ______ ____
ROOT
ATOM      1  CA  HIS A  1       24.462 -12.824   2.470  0.00  0.00    +0.167 C 
ENDROOT
BRANCH   1   2
ATOM      2  N   HIS A  1       23.842 -11.567   1.931  0.00  0.00    -0.318 NA
ATOM      3  H1  HIS A  1       22.944 -11.465   2.443  0.00  0.00    +0.119 HD
ATOM      4  H2  HIS A  1       24.379 -10.788   2.325  0.00  0.00    +0.119 HD
ENDBRANCH   1   2
BRANCH   1   5
ATOM      5  C   HIS A  1       24.079 -13.002   3.946  0.00  0.00    +0.322 C 
ATOM      6  O   HIS A  1       24.168 -12.119   4.797  0.00  0.00    -0.249 OA
BRANCH   5   7
ATOM      7  OXT HIS A  1       23.674 -14.262   4.241  0.00  0.00    -0.479 OA
ATOM      8  HXT HIS A  1       23.917 -14.823   3.466  0.00  0.00    +0.295 HD
ENDBRANCH   5   7
ENDBRANCH   1   5
BRANCH   1   9
ATOM      9  CB  HIS A  1       25.991 -12.869   2.291  0.00  0.00    +0.086 C 
BRANCH   9  10
ATOM     10  CG  HIS A  1       26.659 -14.005   2.992  0.00  0.00    +0.061 A 
ATOM     11  ND1 HIS A  1       26.209 -15.299   2.842  0.00  0.00    -0.241 NA
ATOM     12  CE1 HIS A  1       27.024 -16.041   3.554  0.00  0.00    +0.196 A 
ATOM     13  NE2 HIS A  1       27.966 -15.282   4.188  0.00  0.00    -0.351 N 
ATOM     14  HE2 HIS A  1       28.697 -15.627   4.793  0.00  0.00    +0.166 HD
ATOM     15  CD2 HIS A  1       27.741 -13.977   3.845  0.00  0.00    +0.107 A 
ENDBRANCH   9  10
ENDBRANCH   1   9
TORSDOF 5
ENDMDL
MODEL 9
REMARK VINA RESULT:      -4.2      1.987      2.372
REMARK  Name = *****
REMARK                            x       y       z     vdW  Elec       q    Type
REMARK                         _______ _______ _______ _____ _____    ______ ____
ROOT
ATOM      1  CA  HIS A  1       27.688 -14.341   4.293  0.00  0.00    +0.167 C 
ENDROOT
BRANCH   1   2
ATOM      2  N   HIS A  1       28.422 -13.599   3.213  0.00  0.00    -0.318 NA
ATOM      3  H1  HIS A  1       28.508 -14.275   2.429  0.00  0.00    +0.119 HD
ATOM      4  H2  HIS A  1       27.755 -12.929   2.819  0.00  0.00    +0.119 HD
ENDBRANCH   1   2
BRANCH   1   5
ATOM      5  C   HIS A  1       27.304 -15.742   3.793  0.00  0.00    +0.322 C 
ATOM      6  O   HIS A  1       26.348 -15.977   3.057  0.00  0.00    -0.249 OA
BRANCH   5   7
ATOM      7  OXT HIS A  1       28.102 -16.720   4.289  0.00  0.00    -0.479 OA
ATOM      8  HXT HIS A  1       28.059 -17.469   3.646  0.00  0.00    +0.295 HD
ENDBRANCH   5   7
ENDBRANCH   1   5
BRANCH   1   9
ATOM      9  CB  HIS A  1       26.452 -13.586   4.813  0.00  0.00    +0.086 C 
BRANCH   9  10
ATOM     10  CG  HIS A  1       25.419 -13.307   3.771  0.00  0.00    +0.061 A 
ATOM     11  ND1 HIS A  1       25.757 -12.713   2.574  0.00  0.00    -0.241 NA
ATOM     12  CE1 HIS A  1       24.640 -12.643   1.887  0.00  0.00    +0.196 A 
ATOM     13  NE2 HIS A  1       23.585 -13.135   2.600  0.00  0.00    -0.351 N 
ATOM     14  HE2 HIS A  1       22.627 -13.184   2.283  0.00  0.00    +0.166 HD
ATOM     15  CD2 HIS A  1       24.064 -13.556   3.809  0.00  0.00    +0.107 A 
ENDBRANCH   9  10
ENDBRANCH   1   9
TORSDOF 5
ENDMDL
