MODEL 1
REMARK VINA RESULT:      -4.5      0.000      0.000
REMARK  Name = *****
REMARK                            x       y       z     vdW  Elec       q    Type
REMARK                         _______ _______ _______ _____ _____    ______ ____
ROOT
ATOM      1  C   LIG    1       21.988 -19.575   4.860  0.00  0.00    +0.081 C 
ENDROOT
BRANCH   1   2
ATOM      2  N   LIG    1       22.026 -21.040   4.812  0.00  0.00    -0.316 NA
ATOM      3  H   LIG    1       21.558 -21.413   5.639  0.00  0.00    +0.122 HD
BRANCH   2   4
ATOM      4  C   LIG    1       23.403 -21.559   4.747  0.00  0.00    +0.085 C 
BRANCH   4   5
ATOM      5  C   LIG    1       24.065 -21.499   6.137  0.00  0.00    +0.050 C 
BRANCH   5   9
ATOM      6  C   LIG    1       28.162 -20.122   6.153  0.00  0.00    +0.158 A 
ATOM      7  C   LIG    1       27.248 -19.607   5.246  0.00  0.00    +0.159 A 
ATOM      8  C   LIG    1       25.931 -20.056   5.218  0.00  0.00    +0.052 A 
ATOM      9  C   LIG    1       25.511 -21.041   6.129  0.00  0.00    -0.043 A 
ATOM     10  C   LIG    1       26.442 -21.555   7.045  0.00  0.00    +0.007 A 
ATOM     11  C   LIG    1       27.771 -21.101   7.062  0.00  0.00    +0.049 A 
BRANCH   6  12
ATOM     12  O   LIG    1       29.442 -19.634   6.124  0.00  0.00    -0.503 OA
ATOM     13  H   LIG    1       29.973 -20.209   5.550  0.00  0.00    +0.292 HD
ENDBRANCH   6  12
BRANCH   7  14
ATOM     14  O   LIG    1       27.638 -18.635   4.364  0.00  0.00    -0.503 OA
ATOM     15  H   LIG    1       27.601 -17.809   4.884  0.00  0.00    +0.292 HD
ENDBRANCH   7  14
ENDBRANCH   5   9
ENDBRANCH   4   5
ENDBRANCH   2   4
ENDBRANCH   1   2
BRANCH   1  16
ATOM     16  C   LIG    1       23.147 -18.955   4.059  0.00  0.00    +0.015 C 
BRANCH  16  17
ATOM     17  C   LIG    1       23.020 -17.445   3.783  0.00  0.00    +0.001 C 
BRANCH  17  18
ATOM     18  C   LIG    1       22.649 -16.651   5.038  0.00  0.00    +0.001 C 
BRANCH  18  19
ATOM     19  C   LIG    1       22.886 -15.139   4.911  0.00  0.00    +0.015 C 
BRANCH  19  20
ATOM     20  C   LIG    1       23.747 -14.854   3.669  0.00  0.00    +0.081 C 
BRANCH  20  21
ATOM     21  N   LIG    1       23.281 -13.679   2.923  0.00  0.00    -0.316 NA
ATOM     22  H   LIG    1       22.776 -13.984   2.091  0.00  0.00    +0.122 HD
BRANCH  21  23
ATOM     23  C   LIG    1       24.429 -12.841   2.525  0.00  0.00    +0.085 C 
BRANCH  23  24
ATOM     24  C   LIG    1       25.724 -13.660   2.393  0.00  0.00    +0.050 C 
BRANCH  24  25
ATOM     25  C   LIG    1       26.731 -13.340   3.480  0.00  0.00    -0.046 A 
ATOM     26  C   LIG    1       27.982 -12.795   3.152  0.00  0.00    +0.003 A 
ATOM     27  C   LIG    1       28.911 -12.493   4.150  0.00  0.00    +0.000 A 
ATOM     28  C   LIG    1       28.606 -12.738   5.488  0.00  0.00    +0.000 A 
ATOM     29  C   LIG    1       27.368 -13.283   5.826  0.00  0.00    +0.000 A 
ATOM     30  C   LIG    1       26.436 -13.584   4.828  0.00  0.00    +0.003 A 
ENDBRANCH  24  25
ENDBRANCH  23  24
ENDBRANCH  21  23
ENDBRANCH  20  21
ENDBRANCH  19  20
ENDBRANCH  18  19
ENDBRANCH  17  18
ENDBRANCH  16  17
ENDBRANCH   1  16
TORSDOF 15
ENDMDL
MODEL 2
REMARK VINA RESULT:      -4.3      1.901      5.783
REMARK  Name = *****
REMARK                            x       y       z     vdW  Elec       q    Type
REMARK                         _______ _______ _______ _____ _____    ______ ____
ROOT
ATOM      1  C   LIG    1       27.661 -13.694   3.351  0.00  0.00    +0.081 C 
ENDROOT
BRANCH   1   2
ATOM      2  N   LIG    1       28.004 -14.863   4.168  0.00  0.00    -0.316 NA
ATOM      3  H   LIG    1       28.733 -15.398   3.694  0.00  0.00    +0.122 HD
BRANCH   2   4
ATOM      4  C   LIG    1       26.838 -15.729   4.418  0.00  0.00    +0.085 C 
BRANCH   4   5
ATOM      5  C   LIG    1       27.038 -17.104   3.750  0.00  0.00    +0.050 C 
BRANCH   5   9
ATOM      6  C   LIG    1       28.702 -20.188   6.280  0.00  0.00    +0.158 A 
ATOM      7  C   LIG    1       27.411 -20.302   5.785  0.00  0.00    +0.159 A 
ATOM      8  C   LIG    1       26.858 -19.306   4.985  0.00  0.00    +0.052 A 
ATOM      9  C   LIG    1       27.617 -18.169   4.662  0.00  0.00    -0.043 A 
ATOM     10  C   LIG    1       28.923 -18.064   5.165  0.00  0.00    +0.007 A 
ATOM     11  C   LIG    1       29.472 -19.070   5.976  0.00  0.00    +0.049 A 
BRANCH   6  12
ATOM     12  O   LIG    1       29.183 -21.206   7.061  0.00  0.00    -0.503 OA
ATOM     13  H   LIG    1       28.626 -21.269   7.853  0.00  0.00    +0.292 HD
ENDBRANCH   6  12
BRANCH   7  14
ATOM     14  O   LIG    1       26.665 -21.412   6.078  0.00  0.00    -0.503 OA
ATOM     15  H   LIG    1       27.296 -22.019   6.511  0.00  0.00    +0.292 HD
ENDBRANCH   7  14
ENDBRANCH   5   9
ENDBRANCH   4   5
ENDBRANCH   2   4
ENDBRANCH   1   2
BRANCH   1  16
ATOM     16  C   LIG    1       26.652 -14.055   2.247  0.00  0.00    +0.015 C 
BRANCH  16  17
ATOM     17  C   LIG    1       25.254 -13.429   2.405  0.00  0.00    +0.001 C 
BRANCH  17  18
ATOM     18  C   LIG    1       25.064 -12.760   3.770  0.00  0.00    +0.001 C 
BRANCH  18  19
ATOM     19  C   LIG    1       23.872 -13.303   4.570  0.00  0.00    +0.015 C 
BRANCH  19  20
ATOM     20  C   LIG    1       23.183 -14.424   3.773  0.00  0.00    +0.081 C 
BRANCH  20  21
ATOM     21  N   LIG    1       23.559 -15.761   4.248  0.00  0.00    -0.316 NA
ATOM     22  H   LIG    1       23.937 -16.302   3.470  0.00  0.00    +0.122 HD
BRANCH  21  23
ATOM     23  C   LIG    1       22.381 -16.452   4.807  0.00  0.00    +0.085 C 
BRANCH  23  24
ATOM     24  C   LIG    1       21.942 -17.642   3.936  0.00  0.00    +0.050 C 
BRANCH  24  25
ATOM     25  C   LIG    1       22.600 -18.942   4.350  0.00  0.00    -0.046 A 
ATOM     26  C   LIG    1       23.462 -19.615   3.471  0.00  0.00    +0.003 A 
ATOM     27  C   LIG    1       24.076 -20.811   3.850  0.00  0.00    +0.000 A 
ATOM     28  C   LIG    1       23.830 -21.355   5.109  0.00  0.00    +0.000 A 
ATOM     29  C   LIG    1       22.972 -20.699   5.990  0.00  0.00    +0.000 A 
ATOM     30  C   LIG    1       22.359 -19.501   5.613  0.00  0.00    +0.003 A 
ENDBRANCH  24  25
ENDBRANCH  23  24
ENDBRANCH  21  23
ENDBRANCH  20  21
ENDBRANCH  19  20
ENDBRANCH  18  19
ENDBRANCH  17  18
ENDBRANCH  16  17
ENDBRANCH   1  16
TORSDOF 15
ENDMDL
MODEL 3
REMARK VINA RESULT:      -3.7      2.736      4.533
REMARK  Name = *****
REMARK                            x       y       z     vdW  Elec       q    Type
REMARK                         _______ _______ _______ _____ _____    ______ ____
ROOT
ATOM      1  C   LIG    1       25.551 -21.077   4.676  0.00  0.00    +0.081 C 
ENDROOT
BRANCH   1   2
ATOM      2  N   LIG    1       25.836 -21.571   6.027  0.00  0.00    -0.316 NA
ATOM      3  H   LIG    1       25.578 -22.557   6.083  0.00  0.00    +0.122 HD
BRANCH   2   4
ATOM      4  C   LIG    1       25.112 -20.811   7.062  0.00  0.00    +0.085 C 
BRANCH   4   5
ATOM      5  C   LIG    1       23.617 -21.188   7.056  0.00  0.00    +0.050 C 
BRANCH   5   9
ATOM      6  C   LIG    1       21.339 -19.159   3.993  0.00  0.00    +0.158 A 
ATOM      7  C   LIG    1       22.113 -18.439   4.891  0.00  0.00    +0.159 A 
ATOM      8  C   LIG    1       22.836 -19.079   5.893  0.00  0.00    +0.052 A 
ATOM      9  C   LIG    1       22.793 -20.480   5.997  0.00  0.00    -0.043 A 
ATOM     10  C   LIG    1       22.009 -21.201   5.084  0.00  0.00    +0.007 A 
ATOM     11  C   LIG    1       21.278 -20.547   4.079  0.00  0.00    +0.049 A 
BRANCH   6  12
ATOM     12  O   LIG    1       20.654 -18.464   3.032  0.00  0.00    -0.503 OA
ATOM     13  H   LIG    1       21.063 -17.589   2.941  0.00  0.00    +0.292 HD
ENDBRANCH   6  12
BRANCH   7  14
ATOM     14  O   LIG    1       22.178 -17.074   4.791  0.00  0.00    -0.503 OA
ATOM     15  H   LIG    1       21.551 -16.855   4.075  0.00  0.00    +0.292 HD
ENDBRANCH   7  14
ENDBRANCH   5   9
ENDBRANCH   4   5
ENDBRANCH   2   4
ENDBRANCH   1   2
BRANCH   1  16
ATOM     16  C   LIG    1       26.183 -19.695   4.437  0.00  0.00    +0.015 C 
BRANCH  16  17
ATOM     17  C   LIG    1       25.278 -18.674   3.721  0.00  0.00    +0.001 C 
BRANCH  17  18
ATOM     18  C   LIG    1       26.078 -17.660   2.898  0.00  0.00    +0.001 C 
BRANCH  18  19
ATOM     19  C   LIG    1       25.991 -16.221   3.428  0.00  0.00    +0.015 C 
BRANCH  19  20
ATOM     20  C   LIG    1       27.358 -15.794   3.988  0.00  0.00    +0.081 C 
BRANCH  20  21
ATOM     21  N   LIG    1       27.852 -14.555   3.375  0.00  0.00    -0.316 NA
ATOM     22  H   LIG    1       28.744 -14.738   2.915  0.00  0.00    +0.122 HD
BRANCH  21  23
ATOM     23  C   LIG    1       28.029 -13.513   4.404  0.00  0.00    +0.085 C 
BRANCH  23  24
ATOM     24  C   LIG    1       26.725 -13.231   5.171  0.00  0.00    +0.050 C 
BRANCH  24  25
ATOM     25  C   LIG    1       25.653 -12.618   4.293  0.00  0.00    -0.046 A 
ATOM     26  C   LIG    1       25.773 -12.650   2.896  0.00  0.00    +0.003 A 
ATOM     27  C   LIG    1       24.784 -12.092   2.083  0.00  0.00    +0.000 A 
ATOM     28  C   LIG    1       23.666 -11.489   2.655  0.00  0.00    +0.000 A 
ATOM     29  C   LIG    1       23.536 -11.447   4.042  0.00  0.00    +0.000 A 
ATOM     30  C   LIG    1       24.524 -12.007   4.857  0.00  0.00    +0.003 A 
ENDBRANCH  24  25
ENDBRANCH  23  24
ENDBRANCH  21  23
ENDBRANCH  20  21
ENDBRANCH  19  20
ENDBRANCH  18  19
ENDBRANCH  17  18
ENDBRANCH  16  17
ENDBRANCH   1  16
TORSDOF 15
ENDMDL
MODEL 4
REMARK VINA RESULT:      -3.5      2.309      6.989
REMARK  Name = *****
REMARK                            x       y       z     vdW  Elec       q    Type
REMARK                         _______ _______ _______ _____ _____    ______ ____
ROOT
ATOM      1  C   LIG    1       22.791 -16.127   5.147  0.00  0.00    +0.081 C 
ENDROOT
BRANCH   1   2
ATOM      2  N   LIG    1       23.848 -15.932   4.150  0.00  0.00    -0.316 NA
ATOM      3  H   LIG    1       24.757 -16.032   4.605  0.00  0.00    +0.122 HD
BRANCH   2   4
ATOM      4  C   LIG    1       23.763 -14.614   3.498  0.00  0.00    +0.085 C 
BRANCH   4   5
ATOM      5  C   LIG    1       25.082 -14.291   2.767  0.00  0.00    +0.050 C 
BRANCH   5   9
ATOM      6  C   LIG    1       28.174 -12.616   5.279  0.00  0.00    +0.158 A 
ATOM      7  C   LIG    1       28.335 -12.669   3.903  0.00  0.00    +0.159 A 
ATOM      8  C   LIG    1       27.355 -13.223   3.085  0.00  0.00    +0.052 A 
ATOM      9  C   LIG    1       26.175 -13.731   3.656  0.00  0.00    -0.043 A 
ATOM     10  C   LIG    1       26.020 -13.671   5.049  0.00  0.00    +0.007 A 
ATOM     11  C   LIG    1       27.016 -13.116   5.868  0.00  0.00    +0.049 A 
BRANCH   6  12
ATOM     12  O   LIG    1       29.180 -12.057   6.023  0.00  0.00    -0.503 OA
ATOM     13  H   LIG    1       28.786 -11.669   6.821  0.00  0.00    +0.292 HD
ENDBRANCH   6  12
BRANCH   7  14
ATOM     14  O   LIG    1       29.472 -12.163   3.330  0.00  0.00    -0.503 OA
ATOM     15  H   LIG    1       30.156 -12.833   3.521  0.00  0.00    +0.292 HD
ENDBRANCH   7  14
ENDBRANCH   5   9
ENDBRANCH   4   5
ENDBRANCH   2   4
ENDBRANCH   1   2
BRANCH   1  16
ATOM     16  C   LIG    1       22.035 -17.447   4.917  0.00  0.00    +0.015 C 
BRANCH  16  17
ATOM     17  C   LIG    1       22.917 -18.650   4.533  0.00  0.00    +0.001 C 
BRANCH  17  18
ATOM     18  C   LIG    1       22.498 -19.934   5.255  0.00  0.00    +0.001 C 
BRANCH  18  19
ATOM     19  C   LIG    1       22.602 -21.198   4.388  0.00  0.00    +0.015 C 
BRANCH  19  20
ATOM     20  C   LIG    1       23.964 -21.223   3.674  0.00  0.00    +0.081 C 
BRANCH  20  21
ATOM     21  N   LIG    1       25.090 -21.218   4.616  0.00  0.00    -0.316 NA
ATOM     22  H   LIG    1       25.790 -21.894   4.309  0.00  0.00    +0.122 HD
BRANCH  21  23
ATOM     23  C   LIG    1       24.622 -21.570   5.970  0.00  0.00    +0.085 C 
BRANCH  23  24
ATOM     24  C   LIG    1       25.361 -20.775   7.061  0.00  0.00    +0.050 C 
BRANCH  24  25
ATOM     25  C   LIG    1       26.791 -20.452   6.681  0.00  0.00    -0.046 A 
ATOM     26  C   LIG    1       27.086 -19.300   5.936  0.00  0.00    +0.003 A 
ATOM     27  C   LIG    1       28.403 -18.994   5.589  0.00  0.00    +0.000 A 
ATOM     28  C   LIG    1       29.443 -19.838   5.974  0.00  0.00    +0.000 A 
ATOM     29  C   LIG    1       29.163 -20.988   6.710  0.00  0.00    +0.000 A 
ATOM     30  C   LIG    1       27.845 -21.294   7.061  0.00  0.00    +0.003 A 
ENDBRANCH  24  25
ENDBRANCH  23  24
ENDBRANCH  21  23
ENDBRANCH  20  21
ENDBRANCH  19  20
ENDBRANCH  18  19
ENDBRANCH  17  18
ENDBRANCH  16  17
ENDBRANCH   1  16
TORSDOF 15
ENDMDL
MODEL 5
REMARK VINA RESULT:      -3.2      2.994      5.202
REMARK  Name = *****
REMARK                            x       y       z     vdW  Elec       q    Type
REMARK                         _______ _______ _______ _____ _____    ______ ____
ROOT
ATOM      1  C   LIG    1       27.221 -20.563   7.057  0.00  0.00    +0.081 C 
ENDROOT
BRANCH   1   2
ATOM      2  N   LIG    1       26.799 -21.557   6.066  0.00  0.00    -0.316 NA
ATOM      3  H   LIG    1       27.255 -21.354   5.175  0.00  0.00    +0.122 HD
BRANCH   2   4
ATOM      4  C   LIG    1       25.337 -21.572   5.880  0.00  0.00    +0.085 C 
BRANCH   4   5
ATOM      5  C   LIG    1       24.792 -20.132   5.799  0.00  0.00    +0.050 C 
BRANCH   5   9
ATOM      6  C   LIG    1       20.839 -19.809   4.080  0.00  0.00    +0.158 A 
ATOM      7  C   LIG    1       21.677 -18.705   4.136  0.00  0.00    +0.159 A 
ATOM      8  C   LIG    1       22.945 -18.791   4.704  0.00  0.00    +0.052 A 
ATOM      9  C   LIG    1       23.394 -20.018   5.223  0.00  0.00    -0.043 A 
ATOM     10  C   LIG    1       22.540 -21.130   5.161  0.00  0.00    +0.007 A 
ATOM     11  C   LIG    1       21.260 -21.033   4.591  0.00  0.00    +0.049 A 
BRANCH   6  12
ATOM     12  O   LIG    1       19.605 -19.651   3.507  0.00  0.00    -0.503 OA
ATOM     13  H   LIG    1       19.029 -19.202   4.146  0.00  0.00    +0.292 HD
ENDBRANCH   6  12
BRANCH   7  14
ATOM     14  O   LIG    1       21.260 -17.507   3.618  0.00  0.00    -0.503 OA
ATOM     15  H   LIG    1       20.321 -17.655   3.394  0.00  0.00    +0.292 HD
ENDBRANCH   7  14
ENDBRANCH   5   9
ENDBRANCH   4   5
ENDBRANCH   2   4
ENDBRANCH   1   2
BRANCH   1  16
ATOM     16  C   LIG    1       28.748 -20.366   7.042  0.00  0.00    +0.015 C 
BRANCH  16  17
ATOM     17  C   LIG    1       29.221 -18.925   6.778  0.00  0.00    +0.001 C 
BRANCH  17  18
ATOM     18  C   LIG    1       29.384 -18.628   5.284  0.00  0.00    +0.001 C 
BRANCH  18  19
ATOM     19  C   LIG    1       28.060 -18.361   4.554  0.00  0.00    +0.015 C 
BRANCH  19  20
ATOM     20  C   LIG    1       27.673 -16.881   4.710  0.00  0.00    +0.081 C 
BRANCH  20  21
ATOM     21  N   LIG    1       27.267 -16.271   3.438  0.00  0.00    -0.316 NA
ATOM     22  H   LIG    1       27.740 -16.747   2.669  0.00  0.00    +0.122 HD
BRANCH  21  23
ATOM     23  C   LIG    1       27.619 -14.838   3.425  0.00  0.00    +0.085 C 
BRANCH  23  24
ATOM     24  C   LIG    1       26.800 -14.051   2.387  0.00  0.00    +0.050 C 
BRANCH  24  25
ATOM     25  C   LIG    1       25.695 -13.228   3.018  0.00  0.00    -0.046 A 
ATOM     26  C   LIG    1       24.915 -12.365   2.234  0.00  0.00    +0.003 A 
ATOM     27  C   LIG    1       23.892 -11.608   2.810  0.00  0.00    +0.000 A 
ATOM     28  C   LIG    1       23.639 -11.699   4.177  0.00  0.00    +0.000 A 
ATOM     29  C   LIG    1       24.409 -12.549   4.968  0.00  0.00    +0.000 A 
ATOM     30  C   LIG    1       25.432 -13.309   4.393  0.00  0.00    +0.003 A 
ENDBRANCH  24  25
ENDBRANCH  23  24
ENDBRANCH  21  23
ENDBRANCH  20  21
ENDBRANCH  19  20
ENDBRANCH  18  19
ENDBRANCH  17  18
ENDBRANCH  16  17
ENDBRANCH   1  16
TORSDOF 15
ENDMDL
MODEL 6
REMARK VINA RESULT:      -3.2      2.953      4.732
REMARK  Name = *****
REMARK                            x       y       z     vdW  Elec       q    Type
REMARK                         _______ _______ _______ _____ _____    ______ ____
ROOT
ATOM      1  C   LIG    1       29.472 -20.305   6.032  0.00  0.00    +0.081 C 
ENDROOT
BRANCH   1   2
ATOM      2  N   LIG    1       28.940 -21.203   7.062  0.00  0.00    -0.316 NA
ATOM      3  H   LIG    1       29.514 -22.047   7.096  0.00  0.00    +0.122 HD
BRANCH   2   4
ATOM      4  C   LIG    1       27.535 -21.570   6.810  0.00  0.00    +0.085 C 
BRANCH   4   5
ATOM      5  C   LIG    1       26.735 -20.339   6.342  0.00  0.00    +0.050 C 
BRANCH   5   9
ATOM      6  C   LIG    1       22.662 -21.254   5.221  0.00  0.00    +0.158 A 
ATOM      7  C   LIG    1       23.665 -21.215   4.265  0.00  0.00    +0.159 A 
ATOM      8  C   LIG    1       24.977 -20.903   4.610  0.00  0.00    +0.052 A 
ATOM      9  C   LIG    1       25.299 -20.631   5.950  0.00  0.00    -0.043 A 
ATOM     10  C   LIG    1       24.278 -20.675   6.912  0.00  0.00    +0.007 A 
ATOM     11  C   LIG    1       22.956 -20.985   6.555  0.00  0.00    +0.049 A 
BRANCH   6  12
ATOM     12  O   LIG    1       21.394 -21.568   4.811  0.00  0.00    -0.503 OA
ATOM     13  H   LIG    1       20.767 -21.038   5.328  0.00  0.00    +0.292 HD
ENDBRANCH   6  12
BRANCH   7  14
ATOM     14  O   LIG    1       23.370 -21.494   2.957  0.00  0.00    -0.503 OA
ATOM     15  H   LIG    1       24.222 -21.776   2.572  0.00  0.00    +0.292 HD
ENDBRANCH   7  14
ENDBRANCH   5   9
ENDBRANCH   4   5
ENDBRANCH   2   4
ENDBRANCH   1   2
BRANCH   1  16
ATOM     16  C   LIG    1       28.836 -18.906   6.122  0.00  0.00    +0.015 C 
BRANCH  16  17
ATOM     17  C   LIG    1       29.329 -17.892   5.073  0.00  0.00    +0.001 C 
BRANCH  17  18
ATOM     18  C   LIG    1       28.262 -16.851   4.721  0.00  0.00    +0.001 C 
BRANCH  18  19
ATOM     19  C   LIG    1       27.289 -17.305   3.623  0.00  0.00    +0.015 C 
BRANCH  19  20
ATOM     20  C   LIG    1       26.302 -16.168   3.306  0.00  0.00    +0.081 C 
BRANCH  20  21
ATOM     21  N   LIG    1       26.982 -14.939   2.878  0.00  0.00    -0.316 NA
ATOM     22  H   LIG    1       27.502 -15.123   2.021  0.00  0.00    +0.122 HD
BRANCH  21  23
ATOM     23  C   LIG    1       27.906 -14.477   3.931  0.00  0.00    +0.085 C 
BRANCH  23  24
ATOM     24  C   LIG    1       27.370 -13.236   4.666  0.00  0.00    +0.050 C 
BRANCH  24  25
ATOM     25  C   LIG    1       26.063 -12.734   4.089  0.00  0.00    -0.046 A 
ATOM     26  C   LIG    1       25.955 -12.444   2.720  0.00  0.00    +0.003 A 
ATOM     27  C   LIG    1       24.750 -11.987   2.181  0.00  0.00    +0.000 A 
ATOM     28  C   LIG    1       23.640 -11.805   3.004  0.00  0.00    +0.000 A 
ATOM     29  C   LIG    1       23.735 -12.085   4.366  0.00  0.00    +0.000 A 
ATOM     30  C   LIG    1       24.940 -12.545   4.906  0.00  0.00    +0.003 A 
ENDBRANCH  24  25
ENDBRANCH  23  24
ENDBRANCH  21  23
ENDBRANCH  20  21
ENDBRANCH  19  20
ENDBRANCH  18  19
ENDBRANCH  17  18
ENDBRANCH  16  17
ENDBRANCH   1  16
TORSDOF 15
ENDMDL
MODEL 7
REMARK VINA RESULT:      -3.1      2.752      8.021
REMARK  Name = *****
REMARK                            x       y       z     vdW  Elec       q    Type
REMARK                         _______ _______ _______ _____ _____    ______ ____
ROOT
ATOM      1  C   LIG    1       27.534 -14.703   4.429  0.00  0.00    +0.081 C 
ENDROOT
BRANCH   1   2
ATOM      2  N   LIG    1       27.896 -13.866   3.280  0.00  0.00    -0.316 NA
ATOM      3  H   LIG    1       27.975 -12.895   3.587  0.00  0.00    +0.122 HD
BRANCH   2   4
ATOM      4  C   LIG    1       26.910 -13.961   2.189  0.00  0.00    +0.085 C 
BRANCH   4   5
ATOM      5  C   LIG    1       25.749 -12.976   2.428  0.00  0.00    +0.050 C 
BRANCH   5   9
ATOM      6  C   LIG    1       22.920 -14.327   5.404  0.00  0.00    +0.158 A 
ATOM      7  C   LIG    1       23.307 -15.163   4.368  0.00  0.00    +0.159 A 
ATOM      8  C   LIG    1       24.202 -14.733   3.393  0.00  0.00    +0.052 A 
ATOM      9  C   LIG    1       24.735 -13.434   3.459  0.00  0.00    -0.043 A 
ATOM     10  C   LIG    1       24.340 -12.596   4.513  0.00  0.00    +0.007 A 
ATOM     11  C   LIG    1       23.431 -13.035   5.489  0.00  0.00    +0.049 A 
BRANCH   6  12
ATOM     12  O   LIG    1       22.036 -14.815   6.329  0.00  0.00    -0.503 OA
ATOM     13  H   LIG    1       21.510 -14.074   6.667  0.00  0.00    +0.292 HD
ENDBRANCH   6  12
BRANCH   7  14
ATOM     14  O   LIG    1       22.810 -16.437   4.299  0.00  0.00    -0.503 OA
ATOM     15  H   LIG    1       21.841 -16.320   4.336  0.00  0.00    +0.292 HD
ENDBRANCH   7  14
ENDBRANCH   5   9
ENDBRANCH   4   5
ENDBRANCH   2   4
ENDBRANCH   1   2
BRANCH   1  16
ATOM     16  C   LIG    1       27.538 -16.197   4.060  0.00  0.00    +0.015 C 
BRANCH  16  17
ATOM     17  C   LIG    1       28.706 -17.014   4.643  0.00  0.00    +0.001 C 
BRANCH  17  18
ATOM     18  C   LIG    1       28.312 -18.463   4.945  0.00  0.00    +0.001 C 
BRANCH  18  19
ATOM     19  C   LIG    1       28.806 -18.971   6.307  0.00  0.00    +0.015 C 
BRANCH  19  20
ATOM     20  C   LIG    1       29.169 -20.462   6.201  0.00  0.00    +0.081 C 
BRANCH  20  21
ATOM     21  N   LIG    1       28.250 -21.318   6.960  0.00  0.00    -0.316 NA
ATOM     22  H   LIG    1       28.159 -22.218   6.488  0.00  0.00    +0.122 HD
BRANCH  21  23
ATOM     23  C   LIG    1       26.925 -20.677   7.062  0.00  0.00    +0.085 C 
BRANCH  23  24
ATOM     24  C   LIG    1       25.808 -21.562   6.482  0.00  0.00    +0.050 C 
BRANCH  24  25
ATOM     25  C   LIG    1       24.831 -20.783   5.626  0.00  0.00    -0.046 A 
ATOM     26  C   LIG    1       25.216 -20.303   4.365  0.00  0.00    +0.003 A 
ATOM     27  C   LIG    1       24.317 -19.589   3.569  0.00  0.00    +0.000 A 
ATOM     28  C   LIG    1       23.024 -19.339   4.025  0.00  0.00    +0.000 A 
ATOM     29  C   LIG    1       22.630 -19.807   5.277  0.00  0.00    +0.000 A 
ATOM     30  C   LIG    1       23.528 -20.523   6.074  0.00  0.00    +0.003 A 
ENDBRANCH  24  25
ENDBRANCH  23  24
ENDBRANCH  21  23
ENDBRANCH  20  21
ENDBRANCH  19  20
ENDBRANCH  18  19
ENDBRANCH  17  18
ENDBRANCH  16  17
ENDBRANCH   1  16
TORSDOF 15
ENDMDL
MODEL 8
REMARK VINA RESULT:      -3.0      2.370      7.388
REMARK  Name = *****
REMARK                            x       y       z     vdW  Elec       q    Type
REMARK                         _______ _______ _______ _____ _____    ______ ____
ROOT
ATOM      1  C   LIG    1       25.311 -12.752   1.976  0.00  0.00    +0.081 C 
ENDROOT
BRANCH   1   2
ATOM      2  N   LIG    1       23.978 -13.017   2.527  0.00  0.00    -0.316 NA
ATOM      3  H   LIG    1       23.281 -12.531   1.961  0.00  0.00    +0.122 HD
BRANCH   2   4
ATOM      4  C   LIG    1       23.860 -12.587   3.932  0.00  0.00    +0.085 C 
BRANCH   4   5
ATOM      5  C   LIG    1       24.355 -13.700   4.877  0.00  0.00    +0.050 C 
BRANCH   5   9
ATOM      6  C   LIG    1       22.391 -17.527   4.457  0.00  0.00    +0.158 A 
ATOM      7  C   LIG    1       23.660 -17.325   3.937  0.00  0.00    +0.159 A 
ATOM      8  C   LIG    1       24.295 -16.091   4.049  0.00  0.00    +0.052 A 
ATOM      9  C   LIG    1       23.649 -15.031   4.708  0.00  0.00    -0.043 A 
ATOM     10  C   LIG    1       22.366 -15.246   5.234  0.00  0.00    +0.007 A 
ATOM     11  C   LIG    1       21.729 -16.492   5.111  0.00  0.00    +0.049 A 
BRANCH   6  12
ATOM     12  O   LIG    1       21.826 -18.766   4.311  0.00  0.00    -0.503 OA
ATOM     13  H   LIG    1       22.095 -19.313   5.067  0.00  0.00    +0.292 HD
ENDBRANCH   6  12
BRANCH   7  14
ATOM     14  O   LIG    1       24.310 -18.353   3.307  0.00  0.00    -0.503 OA
ATOM     15  H   LIG    1       25.251 -18.214   3.527  0.00  0.00    +0.292 HD
ENDBRANCH   7  14
ENDBRANCH   5   9
ENDBRANCH   4   5
ENDBRANCH   2   4
ENDBRANCH   1   2
BRANCH   1  16
ATOM     16  C   LIG    1       26.417 -13.111   2.984  0.00  0.00    +0.015 C 
BRANCH  16  17
ATOM     17  C   LIG    1       27.169 -14.423   2.694  0.00  0.00    +0.001 C 
BRANCH  17  18
ATOM     18  C   LIG    1       27.597 -15.147   3.974  0.00  0.00    +0.001 C 
BRANCH  18  19
ATOM     19  C   LIG    1       27.439 -16.673   3.910  0.00  0.00    +0.015 C 
BRANCH  19  20
ATOM     20  C   LIG    1       28.494 -17.339   4.809  0.00  0.00    +0.081 C 
BRANCH  20  21
ATOM     21  N   LIG    1       28.402 -18.804   4.789  0.00  0.00    -0.316 NA
ATOM     22  H   LIG    1       27.703 -19.089   4.103  0.00  0.00    +0.122 HD
BRANCH  21  23
ATOM     23  C   LIG    1       28.023 -19.308   6.122  0.00  0.00    +0.085 C 
BRANCH  23  24
ATOM     24  C   LIG    1       27.537 -20.767   6.072  0.00  0.00    +0.050 C 
BRANCH  24  25
ATOM     25  C   LIG    1       26.031 -20.878   5.956  0.00  0.00    -0.046 A 
ATOM     26  C   LIG    1       25.435 -21.225   4.735  0.00  0.00    +0.003 A 
ATOM     27  C   LIG    1       24.047 -21.334   4.624  0.00  0.00    +0.000 A 
ATOM     28  C   LIG    1       23.236 -21.090   5.730  0.00  0.00    +0.000 A 
ATOM     29  C   LIG    1       23.814 -20.740   6.949  0.00  0.00    +0.000 A 
ATOM     30  C   LIG    1       25.204 -20.633   7.062  0.00  0.00    +0.003 A 
ENDBRANCH  24  25
ENDBRANCH  23  24
ENDBRANCH  21  23
ENDBRANCH  20  21
ENDBRANCH  19  20
ENDBRANCH  18  19
ENDBRANCH  17  18
ENDBRANCH  16  17
ENDBRANCH   1  16
TORSDOF 15
ENDMDL
MODEL 9
REMARK VINA RESULT:      -3.0      2.891      4.970
REMARK  Name = *****
REMARK                            x       y       z     vdW  Elec       q    Type
REMARK                         _______ _______ _______ _____ _____    ______ ____
ROOT
ATOM      1  C   LIG    1       28.725 -20.477   5.987  0.00  0.00    +0.081 C 
ENDROOT
BRANCH   1   2
ATOM      2  N   LIG    1       27.858 -20.971   7.062  0.00  0.00    -0.316 NA
ATOM      3  H   LIG    1       28.166 -21.906   7.334  0.00  0.00    +0.122 HD
BRANCH   2   4
ATOM      4  C   LIG    1       26.441 -21.014   6.660  0.00  0.00    +0.085 C 
BRANCH   4   5
ATOM      5  C   LIG    1       26.298 -20.680   5.162  0.00  0.00    +0.050 C 
BRANCH   5   9
ATOM      6  C   LIG    1       22.336 -19.351   4.059  0.00  0.00    +0.158 A 
ATOM      7  C   LIG    1       22.520 -20.567   4.700  0.00  0.00    +0.159 A 
ATOM      8  C   LIG    1       23.792 -21.015   5.042  0.00  0.00    +0.052 A 
ATOM      9  C   LIG    1       24.914 -20.221   4.747  0.00  0.00    -0.043 A 
ATOM     10  C   LIG    1       24.719 -18.990   4.101  0.00  0.00    +0.007 A 
ATOM     11  C   LIG    1       23.432 -18.549   3.753  0.00  0.00    +0.049 A 
BRANCH   6  12
ATOM     12  O   LIG    1       21.056 -18.972   3.752  0.00  0.00    -0.503 OA
ATOM     13  H   LIG    1       20.641 -18.625   4.557  0.00  0.00    +0.292 HD
ENDBRANCH   6  12
BRANCH   7  14
ATOM     14  O   LIG    1       21.435 -21.344   5.010  0.00  0.00    -0.503 OA
ATOM     15  H   LIG    1       21.291 -21.187   5.963  0.00  0.00    +0.292 HD
ENDBRANCH   7  14
ENDBRANCH   5   9
ENDBRANCH   4   5
ENDBRANCH   2   4
ENDBRANCH   1   2
BRANCH   1  16
ATOM     16  C   LIG    1       29.048 -18.983   6.166  0.00  0.00    +0.015 C 
BRANCH  16  17
ATOM     17  C   LIG    1       29.100 -18.161   4.865  0.00  0.00    +0.001 C 
BRANCH  17  18
ATOM     18  C   LIG    1       28.371 -16.821   4.991  0.00  0.00    +0.001 C 
BRANCH  18  19
ATOM     19  C   LIG    1       27.414 -16.520   3.828  0.00  0.00    +0.015 C 
BRANCH  19  20
ATOM     20  C   LIG    1       27.286 -14.999   3.644  0.00  0.00    +0.081 C 
BRANCH  20  21
ATOM     21  N   LIG    1       26.907 -14.630   2.275  0.00  0.00    -0.316 NA
ATOM     22  H   LIG    1       27.680 -14.839   1.643  0.00  0.00    +0.122 HD
BRANCH  21  23
ATOM     23  C   LIG    1       26.585 -13.192   2.206  0.00  0.00    +0.085 C 
BRANCH  23  24
ATOM     24  C   LIG    1       25.069 -12.941   2.132  0.00  0.00    +0.050 C 
BRANCH  24  25
ATOM     25  C   LIG    1       24.338 -13.412   3.372  0.00  0.00    -0.046 A 
ATOM     26  C   LIG    1       24.172 -12.553   4.469  0.00  0.00    +0.003 A 
ATOM     27  C   LIG    1       23.493 -12.980   5.613  0.00  0.00    +0.000 A 
ATOM     28  C   LIG    1       22.978 -14.273   5.679  0.00  0.00    +0.000 A 
ATOM     29  C   LIG    1       23.140 -15.138   4.598  0.00  0.00    +0.000 A 
ATOM     30  C   LIG    1       23.817 -14.711   3.452  0.00  0.00    +0.003 A 
ENDBRANCH  24  25
ENDBRANCH  23  24
ENDBRANCH  21  23
ENDBRANCH  20  21
ENDBRANCH  19  20
ENDBRANCH  18  19
ENDBRANCH  17  18
ENDBRANCH  16  17
ENDBRANCH   1  16
TORSDOF 15
ENDMDL
