MODEL 1
REMARK VINA RESULT:      -7.8      0.000      0.000
REMARK  Name = *****
REMARK                            x       y       z     vdW  Elec       q    Type
REMARK                         _______ _______ _______ _____ _____    ______ ____
ROOT
ATOM      1  C   LIG    1       25.463 -21.745   5.863  0.00  0.00    +0.117 C 
ENDROOT
BRANCH   1   6
ATOM      2  C   LIG    1       24.858 -26.580   6.378  0.00  0.00    +0.105 C 
ATOM      3  N   LIG    1       25.519 -25.534   5.598  0.00  0.00    -0.303 NA
ATOM      4  C   LIG    1       24.533 -24.653   4.945  0.00  0.00    +0.099 C 
ATOM      5  C   LIG    1       23.853 -23.629   5.884  0.00  0.00    +0.100 C 
ATOM      6  N   LIG    1       24.777 -22.787   6.690  0.00  0.00    -0.289 NA
ATOM      7  C   LIG    1       25.727 -23.705   7.365  0.00  0.00    +0.100 C 
ATOM      8  C   LIG    1       26.427 -24.728   6.438  0.00  0.00    +0.099 C 
ENDBRANCH   1   6
BRANCH   1   9
ATOM      9  C   LIG    1       26.608 -21.037   6.603  0.00  0.00    -0.026 A 
ATOM     10  C   LIG    1       26.496 -20.686   7.960  0.00  0.00    +0.005 A 
ATOM     11  C   LIG    1       27.529 -20.005   8.610  0.00  0.00    +0.000 A 
ATOM     12  C   LIG    1       28.688 -19.670   7.920  0.00  0.00    +0.000 A 
ATOM     13  C   LIG    1       28.823 -20.020   6.576  0.00  0.00    +0.000 A 
ATOM     14  C   LIG    1       27.790 -20.698   5.923  0.00  0.00    +0.005 A 
ENDBRANCH   1   9
BRANCH   1  15
ATOM     15  C   LIG    1       24.499 -20.689   5.292  0.00  0.00    -0.026 A 
ATOM     16  C   LIG    1       23.302 -20.341   5.944  0.00  0.00    +0.005 A 
ATOM     17  C   LIG    1       22.423 -19.414   5.386  0.00  0.00    +0.000 A 
ATOM     18  C   LIG    1       22.743 -18.789   4.184  0.00  0.00    +0.000 A 
ATOM     19  C   LIG    1       23.945 -19.086   3.544  0.00  0.00    +0.000 A 
ATOM     20  C   LIG    1       24.819 -20.028   4.093  0.00  0.00    +0.005 A 
ENDBRANCH   1  15
TORSDOF 3
ENDMDL
MODEL 2
REMARK VINA RESULT:      -7.5      1.576      5.294
REMARK  Name = *****
REMARK                            x       y       z     vdW  Elec       q    Type
REMARK                         _______ _______ _______ _____ _____    ______ ____
ROOT
ATOM      1  C   LIG    1       25.750 -21.620   6.017  0.00  0.00    +0.117 C 
ENDROOT
BRANCH   1   6
ATOM      2  C   LIG    1       29.900 -20.188   8.192  0.00  0.00    +0.105 C 
ATOM      3  N   LIG    1       29.319 -20.732   6.965  0.00  0.00    -0.303 NA
ATOM      4  C   LIG    1       28.675 -22.036   7.213  0.00  0.00    +0.099 C 
ATOM      5  C   LIG    1       27.301 -21.958   7.919  0.00  0.00    +0.100 C 
ATOM      6  N   LIG    1       26.306 -21.054   7.286  0.00  0.00    -0.289 NA
ATOM      7  C   LIG    1       26.970 -19.742   7.089  0.00  0.00    +0.100 C 
ATOM      8  C   LIG    1       28.341 -19.799   6.371  0.00  0.00    +0.099 C 
ENDBRANCH   1   6
BRANCH   1   9
ATOM      9  C   LIG    1       24.713 -20.706   5.345  0.00  0.00    -0.026 A 
ATOM     10  C   LIG    1       24.954 -20.126   4.087  0.00  0.00    +0.005 A 
ATOM     11  C   LIG    1       24.020 -19.264   3.506  0.00  0.00    +0.000 A 
ATOM     12  C   LIG    1       22.831 -18.974   4.167  0.00  0.00    +0.000 A 
ATOM     13  C   LIG    1       22.568 -19.549   5.410  0.00  0.00    +0.000 A 
ATOM     14  C   LIG    1       23.503 -20.409   5.995  0.00  0.00    +0.005 A 
ENDBRANCH   1   9
BRANCH   1  15
ATOM     15  C   LIG    1       25.148 -23.027   6.190  0.00  0.00    -0.026 A 
ATOM     16  C   LIG    1       25.921 -24.193   6.044  0.00  0.00    +0.005 A 
ATOM     17  C   LIG    1       25.344 -25.457   6.161  0.00  0.00    +0.000 A 
ATOM     18  C   LIG    1       23.991 -25.577   6.466  0.00  0.00    +0.000 A 
ATOM     19  C   LIG    1       23.217 -24.435   6.660  0.00  0.00    +0.000 A 
ATOM     20  C   LIG    1       23.790 -23.168   6.525  0.00  0.00    +0.005 A 
ENDBRANCH   1  15
TORSDOF 3
ENDMDL
MODEL 3
REMARK VINA RESULT:      -7.5      1.589      5.173
REMARK  Name = *****
REMARK                            x       y       z     vdW  Elec       q    Type
REMARK                         _______ _______ _______ _____ _____    ______ ____
ROOT
ATOM      1  C   LIG    1       25.764 -21.600   6.056  0.00  0.00    +0.117 C 
ENDROOT
BRANCH   1   6
ATOM      2  C   LIG    1       29.938 -20.211   8.213  0.00  0.00    +0.105 C 
ATOM      3  N   LIG    1       29.342 -20.725   6.980  0.00  0.00    -0.303 NA
ATOM      4  C   LIG    1       28.706 -22.037   7.202  0.00  0.00    +0.099 C 
ATOM      5  C   LIG    1       27.341 -21.983   7.928  0.00  0.00    +0.100 C 
ATOM      6  N   LIG    1       26.335 -21.065   7.332  0.00  0.00    -0.289 NA
ATOM      7  C   LIG    1       26.993 -19.747   7.161  0.00  0.00    +0.100 C 
ATOM      8  C   LIG    1       28.354 -19.780   6.424  0.00  0.00    +0.099 C 
ENDBRANCH   1   6
BRANCH   1   9
ATOM      9  C   LIG    1       24.737 -20.659   5.406  0.00  0.00    -0.026 A 
ATOM     10  C   LIG    1       23.507 -20.380   6.025  0.00  0.00    +0.005 A 
ATOM     11  C   LIG    1       22.565 -19.555   5.404  0.00  0.00    +0.000 A 
ATOM     12  C   LIG    1       22.839 -18.992   4.162  0.00  0.00    +0.000 A 
ATOM     13  C   LIG    1       24.061 -19.247   3.538  0.00  0.00    +0.000 A 
ATOM     14  C   LIG    1       25.003 -20.075   4.156  0.00  0.00    +0.005 A 
ENDBRANCH   1   9
BRANCH   1  15
ATOM     15  C   LIG    1       25.142 -23.000   6.207  0.00  0.00    -0.026 A 
ATOM     16  C   LIG    1       25.895 -24.175   6.030  0.00  0.00    +0.005 A 
ATOM     17  C   LIG    1       25.301 -25.432   6.128  0.00  0.00    +0.000 A 
ATOM     18  C   LIG    1       23.948 -25.538   6.443  0.00  0.00    +0.000 A 
ATOM     19  C   LIG    1       23.194 -24.388   6.667  0.00  0.00    +0.000 A 
ATOM     20  C   LIG    1       23.785 -23.127   6.551  0.00  0.00    +0.005 A 
ENDBRANCH   1  15
TORSDOF 3
ENDMDL
MODEL 4
REMARK VINA RESULT:      -7.1      0.788      4.308
REMARK  Name = *****
REMARK                            x       y       z     vdW  Elec       q    Type
REMARK                         _______ _______ _______ _____ _____    ______ ____
ROOT
ATOM      1  C   LIG    1       25.274 -21.459   6.213  0.00  0.00    +0.117 C 
ENDROOT
BRANCH   1   6
ATOM      2  C   LIG    1       24.317 -26.264   6.138  0.00  0.00    +0.105 C 
ATOM      3  N   LIG    1       24.098 -25.012   6.862  0.00  0.00    -0.303 NA
ATOM      4  C   LIG    1       25.373 -24.441   7.336  0.00  0.00    +0.099 C 
ATOM      5  C   LIG    1       26.222 -23.748   6.244  0.00  0.00    +0.100 C 
ATOM      6  N   LIG    1       25.513 -22.718   5.440  0.00  0.00    -0.289 NA
ATOM      7  C   LIG    1       24.259 -23.336   4.944  0.00  0.00    +0.100 C 
ATOM      8  C   LIG    1       23.390 -24.022   6.027  0.00  0.00    +0.099 C 
ENDBRANCH   1   6
BRANCH   1   9
ATOM      9  C   LIG    1       24.379 -20.451   5.475  0.00  0.00    -0.026 A 
ATOM     10  C   LIG    1       23.094 -20.133   5.945  0.00  0.00    +0.005 A 
ATOM     11  C   LIG    1       22.275 -19.245   5.242  0.00  0.00    +0.000 A 
ATOM     12  C   LIG    1       22.728 -18.659   4.065  0.00  0.00    +0.000 A 
ATOM     13  C   LIG    1       24.006 -18.952   3.590  0.00  0.00    +0.000 A 
ATOM     14  C   LIG    1       24.826 -19.842   4.290  0.00  0.00    +0.005 A 
ENDBRANCH   1   9
BRANCH   1  15
ATOM     15  C   LIG    1       26.574 -20.758   6.650  0.00  0.00    -0.026 A 
ATOM     16  C   LIG    1       27.501 -20.256   5.719  0.00  0.00    +0.005 A 
ATOM     17  C   LIG    1       28.692 -19.665   6.138  0.00  0.00    +0.000 A 
ATOM     18  C   LIG    1       28.960 -19.530   7.498  0.00  0.00    +0.000 A 
ATOM     19  C   LIG    1       28.034 -19.979   8.437  0.00  0.00    +0.000 A 
ATOM     20  C   LIG    1       26.848 -20.588   8.019  0.00  0.00    +0.005 A 
ENDBRANCH   1  15
TORSDOF 3
ENDMDL
MODEL 5
REMARK VINA RESULT:      -6.1      1.607      4.568
REMARK  Name = *****
REMARK                            x       y       z     vdW  Elec       q    Type
REMARK                         _______ _______ _______ _____ _____    ______ ____
ROOT
ATOM      1  C   LIG    1       25.676 -21.561   6.555  0.00  0.00    +0.117 C 
ENDROOT
BRANCH   1   6
ATOM      2  C   LIG    1       30.088 -20.009   8.015  0.00  0.00    +0.105 C 
ATOM      3  N   LIG    1       28.679 -20.131   8.389  0.00  0.00    -0.303 NA
ATOM      4  C   LIG    1       27.814 -19.378   7.461  0.00  0.00    +0.099 C 
ATOM      5  C   LIG    1       27.587 -20.055   6.088  0.00  0.00    +0.100 C 
ATOM      6  N   LIG    1       27.111 -21.462   6.141  0.00  0.00    -0.289 NA
ATOM      7  C   LIG    1       28.024 -22.200   7.046  0.00  0.00    +0.100 C 
ATOM      8  C   LIG    1       28.252 -21.544   8.430  0.00  0.00    +0.099 C 
ENDBRANCH   1   6
BRANCH   1   9
ATOM      9  C   LIG    1       25.140 -23.001   6.557  0.00  0.00    -0.026 A 
ATOM     10  C   LIG    1       26.007 -24.105   6.481  0.00  0.00    +0.005 A 
ATOM     11  C   LIG    1       25.504 -25.408   6.442  0.00  0.00    +0.000 A 
ATOM     12  C   LIG    1       24.131 -25.629   6.485  0.00  0.00    +0.000 A 
ATOM     13  C   LIG    1       23.255 -24.547   6.574  0.00  0.00    +0.000 A 
ATOM     14  C   LIG    1       23.756 -23.242   6.609  0.00  0.00    +0.005 A 
ENDBRANCH   1   9
BRANCH   1  15
ATOM     15  C   LIG    1       24.738 -20.673   5.717  0.00  0.00    -0.026 A 
ATOM     16  C   LIG    1       23.484 -20.251   6.195  0.00  0.00    +0.005 A 
ATOM     17  C   LIG    1       22.632 -19.485   5.400  0.00  0.00    +0.000 A 
ATOM     18  C   LIG    1       23.036 -19.093   4.126  0.00  0.00    +0.000 A 
ATOM     19  C   LIG    1       24.292 -19.462   3.651  0.00  0.00    +0.000 A 
ATOM     20  C   LIG    1       25.139 -20.246   4.439  0.00  0.00    +0.005 A 
ENDBRANCH   1  15
TORSDOF 3
ENDMDL
MODEL 6
REMARK VINA RESULT:      -5.7      1.455      5.305
REMARK  Name = *****
REMARK                            x       y       z     vdW  Elec       q    Type
REMARK                         _______ _______ _______ _____ _____    ______ ____
ROOT
ATOM      1  C   LIG    1       25.032 -22.894   5.478  0.00  0.00    +0.117 C 
ENDROOT
BRANCH   1   6
ATOM      2  C   LIG    1       22.289 -18.979   4.399  0.00  0.00    +0.105 C 
ATOM      3  N   LIG    1       23.612 -19.431   4.832  0.00  0.00    -0.303 NA
ATOM      4  C   LIG    1       23.534 -20.153   6.116  0.00  0.00    +0.099 C 
ATOM      5  C   LIG    1       22.990 -21.598   6.017  0.00  0.00    +0.100 C 
ATOM      6  N   LIG    1       23.669 -22.471   5.025  0.00  0.00    -0.289 NA
ATOM      7  C   LIG    1       23.693 -21.735   3.738  0.00  0.00    +0.100 C 
ATOM      8  C   LIG    1       24.248 -20.291   3.815  0.00  0.00    +0.099 C 
ENDBRANCH   1   6
BRANCH   1   9
ATOM      9  C   LIG    1       25.116 -24.382   5.851  0.00  0.00    -0.026 A 
ATOM     10  C   LIG    1       26.323 -24.962   6.277  0.00  0.00    +0.005 A 
ATOM     11  C   LIG    1       26.395 -26.326   6.574  0.00  0.00    +0.000 A 
ATOM     12  C   LIG    1       25.265 -27.128   6.456  0.00  0.00    +0.000 A 
ATOM     13  C   LIG    1       24.055 -26.568   6.046  0.00  0.00    +0.000 A 
ATOM     14  C   LIG    1       23.981 -25.204   5.745  0.00  0.00    +0.005 A 
ENDBRANCH   1   9
BRANCH   1  15
ATOM     15  C   LIG    1       25.574 -22.048   6.645  0.00  0.00    -0.026 A 
ATOM     16  C   LIG    1       25.113 -22.212   7.964  0.00  0.00    +0.005 A 
ATOM     17  C   LIG    1       25.586 -21.404   8.997  0.00  0.00    +0.000 A 
ATOM     18  C   LIG    1       26.559 -20.443   8.736  0.00  0.00    +0.000 A 
ATOM     19  C   LIG    1       27.062 -20.294   7.446  0.00  0.00    +0.000 A 
ATOM     20  C   LIG    1       26.576 -21.091   6.406  0.00  0.00    +0.005 A 
ENDBRANCH   1  15
TORSDOF 3
ENDMDL
MODEL 7
REMARK VINA RESULT:      -5.7      1.830      4.804
REMARK  Name = *****
REMARK                            x       y       z     vdW  Elec       q    Type
REMARK                         _______ _______ _______ _____ _____    ______ ____
ROOT
ATOM      1  C   LIG    1       24.613 -20.821   5.861  0.00  0.00    +0.117 C 
ENDROOT
BRANCH   1   6
ATOM      2  C   LIG    1       21.118 -18.655   3.195  0.00  0.00    +0.105 C 
ATOM      3  N   LIG    1       21.482 -19.131   4.530  0.00  0.00    -0.303 NA
ATOM      4  C   LIG    1       21.726 -20.586   4.529  0.00  0.00    +0.099 C 
ATOM      5  C   LIG    1       23.082 -21.017   3.922  0.00  0.00    +0.100 C 
ATOM      6  N   LIG    1       24.280 -20.338   4.484  0.00  0.00    -0.289 NA
ATOM      7  C   LIG    1       24.020 -18.879   4.431  0.00  0.00    +0.100 C 
ATOM      8  C   LIG    1       22.672 -18.428   5.047  0.00  0.00    +0.099 C 
ENDBRANCH   1   6
BRANCH   1   9
ATOM      9  C   LIG    1       26.039 -20.461   6.305  0.00  0.00    -0.026 A 
ATOM     10  C   LIG    1       27.022 -20.085   5.373  0.00  0.00    +0.005 A 
ATOM     11  C   LIG    1       28.327 -19.800   5.786  0.00  0.00    +0.000 A 
ATOM     12  C   LIG    1       28.667 -19.880   7.132  0.00  0.00    +0.000 A 
ATOM     13  C   LIG    1       27.702 -20.239   8.073  0.00  0.00    +0.000 A 
ATOM     14  C   LIG    1       26.397 -20.528   7.662  0.00  0.00    +0.005 A 
ENDBRANCH   1   9
BRANCH   1  15
ATOM     15  C   LIG    1       24.392 -22.334   6.046  0.00  0.00    -0.026 A 
ATOM     16  C   LIG    1       25.334 -23.284   5.612  0.00  0.00    +0.005 A 
ATOM     17  C   LIG    1       25.092 -24.650   5.749  0.00  0.00    +0.000 A 
ATOM     18  C   LIG    1       23.919 -25.090   6.359  0.00  0.00    +0.000 A 
ATOM     19  C   LIG    1       22.994 -24.165   6.836  0.00  0.00    +0.000 A 
ATOM     20  C   LIG    1       23.227 -22.796   6.682  0.00  0.00    +0.005 A 
ENDBRANCH   1  15
TORSDOF 3
ENDMDL
MODEL 8
REMARK VINA RESULT:      -5.7      1.564      4.859
REMARK  Name = *****
REMARK                            x       y       z     vdW  Elec       q    Type
REMARK                         _______ _______ _______ _____ _____    ______ ____
ROOT
ATOM      1  C   LIG    1       24.652 -22.825   6.035  0.00  0.00    +0.117 C 
ENDROOT
BRANCH   1   6
ATOM      2  C   LIG    1       22.900 -18.834   3.797  0.00  0.00    +0.105 C 
ATOM      3  N   LIG    1       23.128 -19.477   5.091  0.00  0.00    -0.303 NA
ATOM      4  C   LIG    1       22.386 -20.748   5.192  0.00  0.00    +0.099 C 
ATOM      5  C   LIG    1       23.009 -21.929   4.411  0.00  0.00    +0.100 C 
ATOM      6  N   LIG    1       24.444 -22.196   4.693  0.00  0.00    -0.289 NA
ATOM      7  C   LIG    1       25.166 -20.910   4.541  0.00  0.00    +0.100 C 
ATOM      8  C   LIG    1       24.564 -19.720   5.328  0.00  0.00    +0.099 C 
ENDBRANCH   1   6
BRANCH   1   9
ATOM      9  C   LIG    1       25.619 -22.039   6.934  0.00  0.00    -0.026 A 
ATOM     10  C   LIG    1       25.151 -21.265   8.010  0.00  0.00    +0.005 A 
ATOM     11  C   LIG    1       26.038 -20.522   8.794  0.00  0.00    +0.000 A 
ATOM     12  C   LIG    1       27.401 -20.544   8.520  0.00  0.00    +0.000 A 
ATOM     13  C   LIG    1       27.885 -21.316   7.464  0.00  0.00    +0.000 A 
ATOM     14  C   LIG    1       27.000 -22.058   6.676  0.00  0.00    +0.005 A 
ENDBRANCH   1   9
BRANCH   1  15
ATOM     15  C   LIG    1       25.116 -24.292   5.954  0.00  0.00    -0.026 A 
ATOM     16  C   LIG    1       25.588 -24.989   7.081  0.00  0.00    +0.005 A 
ATOM     17  C   LIG    1       26.045 -26.302   6.974  0.00  0.00    +0.000 A 
ATOM     18  C   LIG    1       26.001 -26.955   5.745  0.00  0.00    +0.000 A 
ATOM     19  C   LIG    1       25.495 -26.298   4.626  0.00  0.00    +0.000 A 
ATOM     20  C   LIG    1       25.053 -24.976   4.728  0.00  0.00    +0.005 A 
ENDBRANCH   1  15
TORSDOF 3
ENDMDL
MODEL 9
REMARK VINA RESULT:      -5.7      6.109     10.018
REMARK  Name = *****
REMARK                            x       y       z     vdW  Elec       q    Type
REMARK                         _______ _______ _______ _____ _____    ______ ____
ROOT
ATOM      1  C   LIG    1       25.074 -30.519   7.755  0.00  0.00    +0.117 C 
ENDROOT
BRANCH   1   6
ATOM      2  C   LIG    1       22.629 -32.613  11.449  0.00  0.00    +0.105 C 
ATOM      3  N   LIG    1       23.939 -32.148  10.993  0.00  0.00    -0.303 NA
ATOM      4  C   LIG    1       24.371 -32.875   9.784  0.00  0.00    +0.099 C 
ATOM      5  C   LIG    1       23.674 -32.432   8.475  0.00  0.00    +0.100 C 
ATOM      6  N   LIG    1       23.716 -30.974   8.190  0.00  0.00    -0.289 NA
ATOM      7  C   LIG    1       23.237 -30.276   9.407  0.00  0.00    +0.100 C 
ATOM      8  C   LIG    1       23.934 -30.696  10.725  0.00  0.00    +0.099 C 
ENDBRANCH   1   6
BRANCH   1   9
ATOM      9  C   LIG    1       25.091 -29.079   7.218  0.00  0.00    -0.026 A 
ATOM     10  C   LIG    1       24.240 -28.677   6.175  0.00  0.00    +0.005 A 
ATOM     11  C   LIG    1       24.294 -27.375   5.668  0.00  0.00    +0.000 A 
ATOM     12  C   LIG    1       25.194 -26.457   6.198  0.00  0.00    +0.000 A 
ATOM     13  C   LIG    1       26.038 -26.833   7.242  0.00  0.00    +0.000 A 
ATOM     14  C   LIG    1       25.987 -28.135   7.748  0.00  0.00    +0.005 A 
ENDBRANCH   1   9
BRANCH   1  15
ATOM     15  C   LIG    1       25.726 -31.453   6.718  0.00  0.00    -0.026 A 
ATOM     16  C   LIG    1       25.214 -31.596   5.416  0.00  0.00    +0.005 A 
ATOM     17  C   LIG    1       25.794 -32.482   4.509  0.00  0.00    +0.000 A 
ATOM     18  C   LIG    1       26.921 -33.213   4.876  0.00  0.00    +0.000 A 
ATOM     19  C   LIG    1       27.471 -33.053   6.146  0.00  0.00    +0.000 A 
ATOM     20  C   LIG    1       26.880 -32.179   7.062  0.00  0.00    +0.005 A 
ENDBRANCH   1  15
TORSDOF 3
ENDMDL
