MODEL 1
REMARK VINA RESULT:      -8.1      0.000      0.000
REMARK  Name = *****
REMARK                            x       y       z     vdW  Elec       q    Type
REMARK                         _______ _______ _______ _____ _____    ______ ____
ROOT
ATOM      1  C   LIG    1       31.034 -20.037   8.301  0.00  0.00    +0.117 A 
ATOM      2  C   LIG    1       30.839 -18.965   7.441  0.00  0.00    +0.049 A 
ATOM      3  C   LIG    1       29.735 -18.953   6.584  0.00  0.00    +0.049 A 
ATOM      4  C   LIG    1       28.824 -20.014   6.592  0.00  0.00    +0.121 A 
ATOM      5  C   LIG    1       29.033 -21.084   7.467  0.00  0.00    +0.049 A 
ATOM      6  C   LIG    1       30.139 -21.100   8.325  0.00  0.00    +0.049 A 
ENDROOT
BRANCH   1   7
ATOM      7  O   LIG    1       32.129 -20.004   9.111  0.00  0.00    -0.507 OA
ATOM      8  H   LIG    1       32.300 -20.903   9.437  0.00  0.00    +0.292 HD
ENDBRANCH   1   7
BRANCH   4   9
ATOM      9  O   LIG    1       27.709 -20.114   5.799  0.00  0.00    -0.487 OA
BRANCH   9  10
ATOM     10  C   LIG    1       26.638 -20.897   6.327  0.00  0.00    +0.264 C 
BRANCH  10  11
ATOM     11  C   LIG    1       25.328 -20.506   5.687  0.00  0.00    -0.010 A 
ATOM     12  C   LIG    1       24.123 -20.625   6.393  0.00  0.00    +0.007 A 
ATOM     13  C   LIG    1       22.923 -20.199   5.819  0.00  0.00    +0.000 A 
ATOM     14  C   LIG    1       22.915 -19.654   4.537  0.00  0.00    +0.000 A 
ATOM     15  C   LIG    1       24.106 -19.537   3.823  0.00  0.00    +0.000 A 
ATOM     16  C   LIG    1       25.307 -19.960   4.395  0.00  0.00    +0.007 A 
ENDBRANCH  10  11
ENDBRANCH   9  10
ENDBRANCH   4   9
TORSDOF 4
ENDMDL
MODEL 2
REMARK VINA RESULT:      -8.0      4.444      5.615
REMARK  Name = *****
REMARK                            x       y       z     vdW  Elec       q    Type
REMARK                         _______ _______ _______ _____ _____    ______ ____
ROOT
ATOM      1  C   LIG    1       25.579 -26.092   6.086  0.00  0.00    +0.117 A 
ATOM      2  C   LIG    1       26.289 -25.008   6.587  0.00  0.00    +0.049 A 
ATOM      3  C   LIG    1       25.610 -23.846   6.962  0.00  0.00    +0.049 A 
ATOM      4  C   LIG    1       24.219 -23.770   6.839  0.00  0.00    +0.121 A 
ATOM      5  C   LIG    1       23.519 -24.871   6.337  0.00  0.00    +0.049 A 
ATOM      6  C   LIG    1       24.197 -26.037   5.959  0.00  0.00    +0.049 A 
ENDROOT
BRANCH   1   7
ATOM      7  O   LIG    1       26.289 -27.198   5.729  0.00  0.00    -0.507 OA
ATOM      8  H   LIG    1       26.446 -27.168   4.770  0.00  0.00    +0.292 HD
ENDBRANCH   1   7
BRANCH   4   9
ATOM      9  O   LIG    1       23.447 -22.687   7.171  0.00  0.00    -0.487 OA
BRANCH   9  10
ATOM     10  C   LIG    1       24.143 -21.449   7.322  0.00  0.00    +0.264 C 
BRANCH  10  11
ATOM     11  C   LIG    1       24.009 -20.608   6.075  0.00  0.00    -0.010 A 
ATOM     12  C   LIG    1       25.077 -20.487   5.175  0.00  0.00    +0.007 A 
ATOM     13  C   LIG    1       24.924 -19.763   3.991  0.00  0.00    +0.000 A 
ATOM     14  C   LIG    1       23.707 -19.151   3.697  0.00  0.00    +0.000 A 
ATOM     15  C   LIG    1       22.641 -19.260   4.587  0.00  0.00    +0.000 A 
ATOM     16  C   LIG    1       22.790 -19.984   5.770  0.00  0.00    +0.007 A 
ENDBRANCH  10  11
ENDBRANCH   9  10
ENDBRANCH   4   9
TORSDOF 4
ENDMDL
MODEL 3
REMARK VINA RESULT:      -7.8      2.031      2.953
REMARK  Name = *****
REMARK                            x       y       z     vdW  Elec       q    Type
REMARK                         _______ _______ _______ _____ _____    ______ ____
ROOT
ATOM      1  C   LIG    1       30.621 -19.674   7.316  0.00  0.00    +0.117 A 
ATOM      2  C   LIG    1       29.988 -20.711   7.989  0.00  0.00    +0.049 A 
ATOM      3  C   LIG    1       28.673 -21.053   7.659  0.00  0.00    +0.049 A 
ATOM      4  C   LIG    1       27.994 -20.358   6.653  0.00  0.00    +0.121 A 
ATOM      5  C   LIG    1       28.647 -19.320   5.984  0.00  0.00    +0.049 A 
ATOM      6  C   LIG    1       29.964 -18.974   6.312  0.00  0.00    +0.049 A 
ENDROOT
BRANCH   1   7
ATOM      7  O   LIG    1       31.899 -19.376   7.680  0.00  0.00    -0.507 OA
ATOM      8  H   LIG    1       31.909 -19.161   8.628  0.00  0.00    +0.292 HD
ENDBRANCH   1   7
BRANCH   4   9
ATOM      9  O   LIG    1       26.708 -20.602   6.245  0.00  0.00    -0.487 OA
BRANCH   9  10
ATOM     10  C   LIG    1       25.752 -20.805   7.287  0.00  0.00    +0.264 C 
BRANCH  10  11
ATOM     11  C   LIG    1       25.023 -22.112   7.092  0.00  0.00    -0.010 A 
ATOM     12  C   LIG    1       23.622 -22.151   7.049  0.00  0.00    +0.007 A 
ATOM     13  C   LIG    1       22.955 -23.353   6.802  0.00  0.00    +0.000 A 
ATOM     14  C   LIG    1       23.680 -24.525   6.597  0.00  0.00    +0.000 A 
ATOM     15  C   LIG    1       25.072 -24.500   6.643  0.00  0.00    +0.000 A 
ATOM     16  C   LIG    1       25.741 -23.300   6.889  0.00  0.00    +0.007 A 
ENDBRANCH  10  11
ENDBRANCH   9  10
ENDBRANCH   4   9
TORSDOF 4
ENDMDL
MODEL 4
REMARK VINA RESULT:      -7.8      4.156      5.646
REMARK  Name = *****
REMARK                            x       y       z     vdW  Elec       q    Type
REMARK                         _______ _______ _______ _____ _____    ______ ____
ROOT
ATOM      1  C   LIG    1       25.346 -26.381   5.948  0.00  0.00    +0.117 A 
ATOM      2  C   LIG    1       24.007 -26.015   5.909  0.00  0.00    +0.049 A 
ATOM      3  C   LIG    1       23.620 -24.746   6.349  0.00  0.00    +0.049 A 
ATOM      4  C   LIG    1       24.576 -23.843   6.825  0.00  0.00    +0.121 A 
ATOM      5  C   LIG    1       25.919 -24.226   6.855  0.00  0.00    +0.049 A 
ATOM      6  C   LIG    1       26.310 -25.497   6.416  0.00  0.00    +0.049 A 
ENDROOT
BRANCH   1   7
ATOM      7  O   LIG    1       25.669 -27.631   5.515  0.00  0.00    -0.507 OA
ATOM      8  H   LIG    1       25.853 -28.190   6.289  0.00  0.00    +0.292 HD
ENDBRANCH   1   7
BRANCH   4   9
ATOM      9  O   LIG    1       24.317 -22.576   7.283  0.00  0.00    -0.487 OA
BRANCH   9  10
ATOM     10  C   LIG    1       25.176 -21.548   6.789  0.00  0.00    +0.264 C 
BRANCH  10  11
ATOM     11  C   LIG    1       24.452 -20.686   5.784  0.00  0.00    -0.010 A 
ATOM     12  C   LIG    1       23.132 -20.274   6.014  0.00  0.00    +0.007 A 
ATOM     13  C   LIG    1       22.490 -19.422   5.112  0.00  0.00    +0.000 A 
ATOM     14  C   LIG    1       23.159 -18.977   3.973  0.00  0.00    +0.000 A 
ATOM     15  C   LIG    1       24.469 -19.385   3.731  0.00  0.00    +0.000 A 
ATOM     16  C   LIG    1       25.113 -20.236   4.631  0.00  0.00    +0.007 A 
ENDBRANCH  10  11
ENDBRANCH   9  10
ENDBRANCH   4   9
TORSDOF 4
ENDMDL
MODEL 5
REMARK VINA RESULT:      -7.8      2.639      3.556
REMARK  Name = *****
REMARK                            x       y       z     vdW  Elec       q    Type
REMARK                         _______ _______ _______ _____ _____    ______ ____
ROOT
ATOM      1  C   LIG    1       29.278 -18.869   5.910  0.00  0.00    +0.117 A 
ATOM      2  C   LIG    1       29.706 -19.016   7.223  0.00  0.00    +0.049 A 
ATOM      3  C   LIG    1       28.987 -19.833   8.101  0.00  0.00    +0.049 A 
ATOM      4  C   LIG    1       27.842 -20.504   7.663  0.00  0.00    +0.121 A 
ATOM      5  C   LIG    1       27.426 -20.347   6.337  0.00  0.00    +0.049 A 
ATOM      6  C   LIG    1       28.143 -19.530   5.456  0.00  0.00    +0.049 A 
ENDROOT
BRANCH   1   7
ATOM      7  O   LIG    1       30.010 -18.057   5.097  0.00  0.00    -0.507 OA
ATOM      8  H   LIG    1       30.533 -17.455   5.652  0.00  0.00    +0.292 HD
ENDBRANCH   1   7
BRANCH   4   9
ATOM      9  O   LIG    1       27.057 -21.327   8.430  0.00  0.00    -0.487 OA
BRANCH   9  10
ATOM     10  C   LIG    1       25.647 -21.142   8.300  0.00  0.00    +0.264 C 
BRANCH  10  11
ATOM     11  C   LIG    1       25.014 -22.332   7.622  0.00  0.00    -0.010 A 
ATOM     12  C   LIG    1       25.765 -23.484   7.349  0.00  0.00    +0.007 A 
ATOM     13  C   LIG    1       25.158 -24.607   6.782  0.00  0.00    +0.000 A 
ATOM     14  C   LIG    1       23.797 -24.589   6.481  0.00  0.00    +0.000 A 
ATOM     15  C   LIG    1       23.042 -23.447   6.743  0.00  0.00    +0.000 A 
ATOM     16  C   LIG    1       23.646 -22.325   7.310  0.00  0.00    +0.007 A 
ENDBRANCH  10  11
ENDBRANCH   9  10
ENDBRANCH   4   9
TORSDOF 4
ENDMDL
MODEL 6
REMARK VINA RESULT:      -7.7      1.817      2.400
REMARK  Name = *****
REMARK                            x       y       z     vdW  Elec       q    Type
REMARK                         _______ _______ _______ _____ _____    ______ ____
ROOT
ATOM      1  C   LIG    1       30.999 -20.094   8.473  0.00  0.00    +0.117 A 
ATOM      2  C   LIG    1       30.508 -19.035   7.721  0.00  0.00    +0.049 A 
ATOM      3  C   LIG    1       29.291 -19.167   7.045  0.00  0.00    +0.049 A 
ATOM      4  C   LIG    1       28.566 -20.360   7.126  0.00  0.00    +0.121 A 
ATOM      5  C   LIG    1       29.072 -21.415   7.889  0.00  0.00    +0.049 A 
ATOM      6  C   LIG    1       30.291 -21.286   8.567  0.00  0.00    +0.049 A 
ENDROOT
BRANCH   1   7
ATOM      7  O   LIG    1       32.192 -19.916   9.106  0.00  0.00    -0.507 OA
ATOM      8  H   LIG    1       32.689 -20.750   9.068  0.00  0.00    +0.292 HD
ENDBRANCH   1   7
BRANCH   4   9
ATOM      9  O   LIG    1       27.366 -20.607   6.508  0.00  0.00    -0.487 OA
BRANCH   9  10
ATOM     10  C   LIG    1       26.206 -20.497   7.334  0.00  0.00    +0.264 C 
BRANCH  10  11
ATOM     11  C   LIG    1       25.317 -21.705   7.165  0.00  0.00    -0.010 A 
ATOM     12  C   LIG    1       23.923 -21.568   7.126  0.00  0.00    +0.007 A 
ATOM     13  C   LIG    1       23.109 -22.682   6.903  0.00  0.00    +0.000 A 
ATOM     14  C   LIG    1       23.680 -23.939   6.720  0.00  0.00    +0.000 A 
ATOM     15  C   LIG    1       25.065 -24.088   6.762  0.00  0.00    +0.000 A 
ATOM     16  C   LIG    1       25.880 -22.978   6.984  0.00  0.00    +0.007 A 
ENDBRANCH  10  11
ENDBRANCH   9  10
ENDBRANCH   4   9
TORSDOF 4
ENDMDL
MODEL 7
REMARK VINA RESULT:      -7.4      1.242      2.065
REMARK  Name = *****
REMARK                            x       y       z     vdW  Elec       q    Type
REMARK                         _______ _______ _______ _____ _____    ______ ____
ROOT
ATOM      1  C   LIG    1       31.385 -19.033   9.042  0.00  0.00    +0.117 A 
ATOM      2  C   LIG    1       30.786 -18.204   8.104  0.00  0.00    +0.049 A 
ATOM      3  C   LIG    1       29.926 -18.747   7.145  0.00  0.00    +0.049 A 
ATOM      4  C   LIG    1       29.665 -20.121   7.129  0.00  0.00    +0.121 A 
ATOM      5  C   LIG    1       30.273 -20.941   8.083  0.00  0.00    +0.049 A 
ATOM      6  C   LIG    1       31.136 -20.400   9.044  0.00  0.00    +0.049 A 
ENDROOT
BRANCH   1   7
ATOM      7  O   LIG    1       32.220 -18.455   9.951  0.00  0.00    -0.507 OA
ATOM      8  H   LIG    1       32.108 -18.907  10.804  0.00  0.00    +0.292 HD
ENDBRANCH   1   7
BRANCH   4   9
ATOM      9  O   LIG    1       28.844 -20.766   6.239  0.00  0.00    -0.487 OA
BRANCH   9  10
ATOM     10  C   LIG    1       27.839 -19.960   5.623  0.00  0.00    +0.264 C 
BRANCH  10  11
ATOM     11  C   LIG    1       26.474 -20.305   6.166  0.00  0.00    -0.010 A 
ATOM     12  C   LIG    1       25.390 -20.511   5.302  0.00  0.00    +0.007 A 
ATOM     13  C   LIG    1       24.145 -20.895   5.807  0.00  0.00    +0.000 A 
ATOM     14  C   LIG    1       23.972 -21.074   7.178  0.00  0.00    +0.000 A 
ATOM     15  C   LIG    1       25.041 -20.866   8.047  0.00  0.00    +0.000 A 
ATOM     16  C   LIG    1       26.285 -20.483   7.545  0.00  0.00    +0.007 A 
ENDBRANCH  10  11
ENDBRANCH   9  10
ENDBRANCH   4   9
TORSDOF 4
ENDMDL
MODEL 8
REMARK VINA RESULT:      -7.4      2.574      6.656
REMARK  Name = *****
REMARK                            x       y       z     vdW  Elec       q    Type
REMARK                         _______ _______ _______ _____ _____    ______ ____
ROOT
ATOM      1  C   LIG    1       23.075 -23.332   6.801  0.00  0.00    +0.117 A 
ATOM      2  C   LIG    1       24.094 -24.248   6.577  0.00  0.00    +0.049 A 
ATOM      3  C   LIG    1       25.427 -23.848   6.701  0.00  0.00    +0.049 A 
ATOM      4  C   LIG    1       25.739 -22.531   7.053  0.00  0.00    +0.121 A 
ATOM      5  C   LIG    1       24.701 -21.623   7.279  0.00  0.00    +0.049 A 
ATOM      6  C   LIG    1       23.365 -22.020   7.154  0.00  0.00    +0.049 A 
ENDROOT
BRANCH   1   7
ATOM      7  O   LIG    1       21.793 -23.770   6.660  0.00  0.00    -0.507 OA
ATOM      8  H   LIG    1       21.682 -24.120   5.760  0.00  0.00    +0.292 HD
ENDBRANCH   1   7
BRANCH   4   9
ATOM      9  O   LIG    1       27.005 -22.025   7.203  0.00  0.00    -0.487 OA
BRANCH   9  10
ATOM     10  C   LIG    1       27.235 -20.742   6.618  0.00  0.00    +0.264 C 
BRANCH  10  11
ATOM     11  C   LIG    1       28.628 -20.255   6.935  0.00  0.00    -0.010 A 
ATOM     12  C   LIG    1       29.410 -20.902   7.902  0.00  0.00    +0.007 A 
ATOM     13  C   LIG    1       30.722 -20.488   8.143  0.00  0.00    +0.000 A 
ATOM     14  C   LIG    1       31.264 -19.425   7.423  0.00  0.00    +0.000 A 
ATOM     15  C   LIG    1       30.494 -18.771   6.463  0.00  0.00    +0.000 A 
ATOM     16  C   LIG    1       29.183 -19.183   6.220  0.00  0.00    +0.007 A 
ENDBRANCH  10  11
ENDBRANCH   9  10
ENDBRANCH   4   9
TORSDOF 4
ENDMDL
MODEL 9
REMARK VINA RESULT:      -7.3      1.949      6.631
REMARK  Name = *****
REMARK                            x       y       z     vdW  Elec       q    Type
REMARK                         _______ _______ _______ _____ _____    ______ ____
ROOT
ATOM      1  C   LIG    1       22.812 -19.252   4.508  0.00  0.00    +0.117 A 
ATOM      2  C   LIG    1       22.742 -19.917   5.725  0.00  0.00    +0.049 A 
ATOM      3  C   LIG    1       23.857 -20.611   6.203  0.00  0.00    +0.049 A 
ATOM      4  C   LIG    1       25.043 -20.636   5.463  0.00  0.00    +0.121 A 
ATOM      5  C   LIG    1       25.099 -19.958   4.242  0.00  0.00    +0.049 A 
ATOM      6  C   LIG    1       23.983 -19.262   3.760  0.00  0.00    +0.049 A 
ENDROOT
BRANCH   1   7
ATOM      7  O   LIG    1       21.696 -18.596   4.084  0.00  0.00    -0.507 OA
ATOM      8  H   LIG    1       20.988 -19.248   3.947  0.00  0.00    +0.292 HD
ENDBRANCH   1   7
BRANCH   4   9
ATOM      9  O   LIG    1       26.197 -21.282   5.828  0.00  0.00    -0.487 OA
BRANCH   9  10
ATOM     10  C   LIG    1       26.755 -20.897   7.085  0.00  0.00    +0.264 C 
BRANCH  10  11
ATOM     11  C   LIG    1       28.145 -20.338   6.901  0.00  0.00    -0.010 A 
ATOM     12  C   LIG    1       28.409 -19.390   5.904  0.00  0.00    +0.007 A 
ATOM     13  C   LIG    1       29.682 -18.827   5.782  0.00  0.00    +0.000 A 
ATOM     14  C   LIG    1       30.701 -19.208   6.653  0.00  0.00    +0.000 A 
ATOM     15  C   LIG    1       30.451 -20.154   7.645  0.00  0.00    +0.000 A 
ATOM     16  C   LIG    1       29.181 -20.717   7.769  0.00  0.00    +0.007 A 
ENDBRANCH  10  11
ENDBRANCH   9  10
ENDBRANCH   4   9
TORSDOF 4
ENDMDL
