MODEL 1
REMARK VINA RESULT:      -6.9      0.000      0.000
REMARK  Name = *****
REMARK                            x       y       z     vdW  Elec       q    Type
REMARK                         _______ _______ _______ _____ _____    ______ ____
ROOT
ATOM      1  C   LIG    1       24.868 -22.649   6.193  0.00  0.00    +0.024 C 
ATOM      2  C   LIG    1       25.769 -23.375   7.227  0.00  0.00    +0.028 C 
ATOM      3  C   LIG    1       25.126 -21.075   6.059  0.00  0.00    -0.014 C 
ATOM      4  C   LIG    1       25.395 -20.570   4.625  0.00  0.00    +0.013 C 
ATOM      5  C   LIG    1       26.305 -20.563   6.918  0.00  0.00    +0.013 C 
ATOM      6  C   LIG    1       23.787 -20.467   6.620  0.00  0.00    -0.003 C 
ATOM      7  C   LIG    1       23.395 -21.457   7.720  0.00  0.00    +0.009 C 
ATOM      8  C   LIG    1       22.607 -20.664   5.652  0.00  0.00    +0.004 C 
ATOM      9  C   LIG    1       22.362 -22.174   5.718  0.00  0.00    +0.005 C 
ATOM     10  C   LIG    1       23.395 -22.653   6.763  0.00  0.00    +0.010 C 
ENDROOT
BRANCH   1  12
ATOM     11  C   LIG    1       25.050 -24.842   5.030  0.00  0.00    +0.101 C 
ATOM     12  N   LIG    1       24.880 -23.399   4.923  0.00  0.00    -0.313 NA
ATOM     13  H   LIG    1       24.018 -23.215   4.409  0.00  0.00    +0.122 HD
ENDBRANCH   1  12
TORSDOF 1
ENDMDL
MODEL 2
REMARK VINA RESULT:      -6.7      1.200      3.491
REMARK  Name = *****
REMARK                            x       y       z     vdW  Elec       q    Type
REMARK                         _______ _______ _______ _____ _____    ______ ____
ROOT
ATOM      1  C   LIG    1       24.347 -21.394   5.717  0.00  0.00    +0.024 C 
ATOM      2  C   LIG    1       22.950 -20.719   5.717  0.00  0.00    +0.028 C 
ATOM      3  C   LIG    1       24.395 -22.846   6.389  0.00  0.00    -0.014 C 
ATOM      4  C   LIG    1       25.008 -23.959   5.512  0.00  0.00    +0.013 C 
ATOM      5  C   LIG    1       23.012 -23.371   6.837  0.00  0.00    +0.013 C 
ATOM      6  C   LIG    1       25.281 -22.594   7.666  0.00  0.00    -0.003 C 
ATOM      7  C   LIG    1       24.892 -21.172   8.078  0.00  0.00    +0.009 C 
ATOM      8  C   LIG    1       26.763 -22.373   7.313  0.00  0.00    +0.004 C 
ATOM      9  C   LIG    1       26.748 -21.007   6.621  0.00  0.00    +0.005 C 
ATOM     10  C   LIG    1       25.264 -20.583   6.714  0.00  0.00    +0.010 C 
ENDROOT
BRANCH   1  12
ATOM     11  C   LIG    1       24.664 -20.080   3.627  0.00  0.00    +0.101 C 
ATOM     12  N   LIG    1       24.932 -21.307   4.366  0.00  0.00    -0.313 NA
ATOM     13  H   LIG    1       25.943 -21.432   4.423  0.00  0.00    +0.122 HD
ENDBRANCH   1  12
TORSDOF 1
ENDMDL
MODEL 3
REMARK VINA RESULT:      -6.0      1.349      2.865
REMARK  Name = *****
REMARK                            x       y       z     vdW  Elec       q    Type
REMARK                         _______ _______ _______ _____ _____    ______ ____
ROOT
ATOM      1  C   LIG    1       24.789 -22.564   6.399  0.00  0.00    +0.024 C 
ATOM      2  C   LIG    1       25.084 -23.375   5.108  0.00  0.00    +0.028 C 
ATOM      3  C   LIG    1       24.678 -20.981   6.191  0.00  0.00    -0.014 C 
ATOM      4  C   LIG    1       23.386 -20.333   6.735  0.00  0.00    +0.013 C 
ATOM      5  C   LIG    1       24.786 -20.538   4.714  0.00  0.00    +0.013 C 
ATOM      6  C   LIG    1       25.937 -20.452   6.974  0.00  0.00    -0.003 C 
ATOM      7  C   LIG    1       26.975 -21.552   6.737  0.00  0.00    +0.009 C 
ATOM      8  C   LIG    1       25.767 -20.571   8.499  0.00  0.00    +0.004 C 
ATOM      9  C   LIG    1       25.820 -22.084   8.730  0.00  0.00    +0.005 C 
ATOM     10  C   LIG    1       26.074 -22.647   7.313  0.00  0.00    +0.010 C 
ENDROOT
BRANCH   1  12
ATOM     11  C   LIG    1       23.227 -24.488   6.632  0.00  0.00    +0.101 C 
ATOM     12  N   LIG    1       23.661 -23.185   7.119  0.00  0.00    -0.313 NA
ATOM     13  H   LIG    1       23.895 -23.274   8.108  0.00  0.00    +0.122 HD
ENDBRANCH   1  12
TORSDOF 1
ENDMDL
MODEL 4
REMARK VINA RESULT:      -5.8      1.074      2.926
REMARK  Name = *****
REMARK                            x       y       z     vdW  Elec       q    Type
REMARK                         _______ _______ _______ _____ _____    ______ ____
ROOT
ATOM      1  C   LIG    1       25.150 -21.479   5.836  0.00  0.00    +0.024 C 
ATOM      2  C   LIG    1       26.133 -20.415   6.393  0.00  0.00    +0.028 C 
ATOM      3  C   LIG    1       23.726 -21.528   6.564  0.00  0.00    -0.014 C 
ATOM      4  C   LIG    1       22.503 -21.419   5.628  0.00  0.00    +0.013 C 
ATOM      5  C   LIG    1       23.537 -20.433   7.638  0.00  0.00    +0.013 C 
ATOM      6  C   LIG    1       23.761 -22.934   7.271  0.00  0.00    -0.003 C 
ATOM      7  C   LIG    1       25.233 -23.086   7.661  0.00  0.00    +0.009 C 
ATOM      8  C   LIG    1       23.629 -24.094   6.268  0.00  0.00    +0.004 C 
ATOM      9  C   LIG    1       24.963 -24.046   5.517  0.00  0.00    +0.005 C 
ATOM     10  C   LIG    1       25.722 -22.899   6.222  0.00  0.00    +0.010 C 
ENDROOT
BRANCH   1  12
ATOM     11  C   LIG    1       25.228 -20.037   3.809  0.00  0.00    +0.101 C 
ATOM     12  N   LIG    1       25.102 -21.377   4.365  0.00  0.00    -0.313 NA
ATOM     13  H   LIG    1       25.832 -21.963   3.958  0.00  0.00    +0.122 HD
ENDBRANCH   1  12
TORSDOF 1
ENDMDL
MODEL 5
REMARK VINA RESULT:      -5.6      1.632      3.229
REMARK  Name = *****
REMARK                            x       y       z     vdW  Elec       q    Type
REMARK                         _______ _______ _______ _____ _____    ______ ____
ROOT
ATOM      1  C   LIG    1       24.924 -21.143   6.443  0.00  0.00    +0.024 C 
ATOM      2  C   LIG    1       26.467 -21.229   6.311  0.00  0.00    +0.028 C 
ATOM      3  C   LIG    1       24.129 -22.440   5.946  0.00  0.00    -0.014 C 
ATOM      4  C   LIG    1       23.143 -23.042   6.969  0.00  0.00    +0.013 C 
ATOM      5  C   LIG    1       25.049 -23.603   5.508  0.00  0.00    +0.013 C 
ATOM      6  C   LIG    1       23.360 -21.897   4.685  0.00  0.00    -0.003 C 
ATOM      7  C   LIG    1       24.340 -20.879   4.096  0.00  0.00    +0.009 C 
ATOM      8  C   LIG    1       22.200 -20.961   5.068  0.00  0.00    +0.004 C 
ATOM      9  C   LIG    1       22.926 -19.720   5.597  0.00  0.00    +0.005 C 
ATOM     10  C   LIG    1       24.418 -20.074   5.397  0.00  0.00    +0.010 C 
ENDROOT
BRANCH   1  12
ATOM     11  C   LIG    1       25.658 -20.662   8.773  0.00  0.00    +0.101 C 
ATOM     12  N   LIG    1       24.575 -20.672   7.798  0.00  0.00    -0.313 NA
ATOM     13  H   LIG    1       24.185 -19.732   7.742  0.00  0.00    +0.122 HD
ENDBRANCH   1  12
TORSDOF 1
ENDMDL
MODEL 6
REMARK VINA RESULT:      -5.6      1.175      2.367
REMARK  Name = *****
REMARK                            x       y       z     vdW  Elec       q    Type
REMARK                         _______ _______ _______ _____ _____    ______ ____
ROOT
ATOM      1  C   LIG    1       24.710 -22.164   5.383  0.00  0.00    +0.024 C 
ATOM      2  C   LIG    1       24.734 -23.543   4.671  0.00  0.00    +0.028 C 
ATOM      3  C   LIG    1       25.378 -22.143   6.837  0.00  0.00    -0.014 C 
ATOM      4  C   LIG    1       26.465 -21.068   7.049  0.00  0.00    +0.013 C 
ATOM      5  C   LIG    1       26.024 -23.487   7.245  0.00  0.00    +0.013 C 
ATOM      6  C   LIG    1       24.138 -21.871   7.769  0.00  0.00    -0.003 C 
ATOM      7  C   LIG    1       23.005 -22.614   7.058  0.00  0.00    +0.009 C 
ATOM      8  C   LIG    1       23.625 -20.425   7.650  0.00  0.00    +0.004 C 
ATOM      9  C   LIG    1       23.020 -20.394   6.244  0.00  0.00    +0.005 C 
ATOM     10  C   LIG    1       23.207 -21.847   5.749  0.00  0.00    +0.010 C 
ENDROOT
BRANCH   1  12
ATOM     11  C   LIG    1       24.356 -20.862   3.291  0.00  0.00    +0.101 C 
ATOM     12  N   LIG    1       25.195 -21.126   4.453  0.00  0.00    -0.313 NA
ATOM     13  H   LIG    1       25.327 -20.250   4.958  0.00  0.00    +0.122 HD
ENDBRANCH   1  12
TORSDOF 1
ENDMDL
MODEL 7
REMARK VINA RESULT:      -5.6      1.442      2.965
REMARK  Name = *****
REMARK                            x       y       z     vdW  Elec       q    Type
REMARK                         _______ _______ _______ _____ _____    ______ ____
ROOT
ATOM      1  C   LIG    1       25.623 -21.505   6.981  0.00  0.00    +0.024 C 
ATOM      2  C   LIG    1       25.406 -20.653   8.260  0.00  0.00    +0.028 C 
ATOM      3  C   LIG    1       24.475 -21.366   5.875  0.00  0.00    -0.014 C 
ATOM      4  C   LIG    1       24.965 -21.000   4.458  0.00  0.00    +0.013 C 
ATOM      5  C   LIG    1       23.389 -20.325   6.232  0.00  0.00    +0.013 C 
ATOM      6  C   LIG    1       23.826 -22.801   5.885  0.00  0.00    -0.003 C 
ATOM      7  C   LIG    1       23.934 -23.216   7.355  0.00  0.00    +0.009 C 
ATOM      8  C   LIG    1       24.741 -23.859   5.242  0.00  0.00    +0.004 C 
ATOM      9  C   LIG    1       25.882 -23.982   6.255  0.00  0.00    +0.005 C 
ATOM     10  C   LIG    1       25.453 -23.021   7.388  0.00  0.00    +0.010 C 
ENDROOT
BRANCH   1  12
ATOM     11  C   LIG    1       28.044 -21.252   7.502  0.00  0.00    +0.101 C 
ATOM     12  N   LIG    1       26.999 -21.304   6.488  0.00  0.00    -0.313 NA
ATOM     13  H   LIG    1       27.234 -22.042   5.824  0.00  0.00    +0.122 HD
ENDBRANCH   1  12
TORSDOF 1
ENDMDL
MODEL 8
REMARK VINA RESULT:      -5.5      1.359      2.908
REMARK  Name = *****
REMARK                            x       y       z     vdW  Elec       q    Type
REMARK                         _______ _______ _______ _____ _____    ______ ____
ROOT
ATOM      1  C   LIG    1       24.784 -22.037   5.644  0.00  0.00    +0.024 C 
ATOM      2  C   LIG    1       25.031 -23.547   5.385  0.00  0.00    +0.028 C 
ATOM      3  C   LIG    1       23.417 -21.697   6.404  0.00  0.00    -0.014 C 
ATOM      4  C   LIG    1       23.564 -20.826   7.670  0.00  0.00    +0.013 C 
ATOM      5  C   LIG    1       22.620 -22.949   6.839  0.00  0.00    +0.013 C 
ATOM      6  C   LIG    1       22.599 -20.934   5.296  0.00  0.00    -0.003 C 
ATOM      7  C   LIG    1       23.029 -21.637   4.006  0.00  0.00    +0.009 C 
ATOM      8  C   LIG    1       23.156 -19.524   5.029  0.00  0.00    +0.004 C 
ATOM      9  C   LIG    1       24.494 -19.811   4.342  0.00  0.00    +0.005 C 
ATOM     10  C   LIG    1       24.515 -21.354   4.245  0.00  0.00    +0.010 C 
ENDROOT
BRANCH   1  12
ATOM     11  C   LIG    1       26.748 -22.278   7.154  0.00  0.00    +0.101 C 
ATOM     12  N   LIG    1       25.997 -21.437   6.232  0.00  0.00    -0.313 NA
ATOM     13  H   LIG    1       26.625 -21.137   5.487  0.00  0.00    +0.122 HD
ENDBRANCH   1  12
TORSDOF 1
ENDMDL
MODEL 9
REMARK VINA RESULT:      -5.5      1.408      2.926
REMARK  Name = *****
REMARK                            x       y       z     vdW  Elec       q    Type
REMARK                         _______ _______ _______ _____ _____    ______ ____
ROOT
ATOM      1  C   LIG    1       25.539 -21.221   5.948  0.00  0.00    +0.024 C 
ATOM      2  C   LIG    1       26.182 -20.002   5.232  0.00  0.00    +0.028 C 
ATOM      3  C   LIG    1       24.459 -22.021   5.080  0.00  0.00    -0.014 C 
ATOM      4  C   LIG    1       24.704 -23.541   4.960  0.00  0.00    +0.013 C 
ATOM      5  C   LIG    1       24.313 -21.498   3.632  0.00  0.00    +0.013 C 
ATOM      6  C   LIG    1       23.123 -21.734   5.862  0.00  0.00    -0.003 C 
ATOM      7  C   LIG    1       23.326 -20.306   6.374  0.00  0.00    +0.009 C 
ATOM      8  C   LIG    1       23.057 -22.490   7.200  0.00  0.00    +0.004 C 
ATOM      9  C   LIG    1       24.118 -21.779   8.045  0.00  0.00    +0.005 C 
ATOM     10  C   LIG    1       24.623 -20.660   7.106  0.00  0.00    +0.010 C 
ENDROOT
BRANCH   1  12
ATOM     11  C   LIG    1       27.718 -21.328   7.147  0.00  0.00    +0.101 C 
ATOM     12  N   LIG    1       26.601 -22.049   6.551  0.00  0.00    -0.313 NA
ATOM     13  H   LIG    1       26.197 -22.658   7.261  0.00  0.00    +0.122 HD
ENDBRANCH   1  12
TORSDOF 1
ENDMDL
