MODEL 1
REMARK VINA RESULT:      -8.3      0.000      0.000
REMARK  Name = *****
REMARK                            x       y       z     vdW  Elec       q    Type
REMARK                         _______ _______ _______ _____ _____    ______ ____
ROOT
ATOM      1  C   LIG    1       28.628 -20.694   6.203  0.00  0.00    +0.105 C 
ATOM      2  N   LIG    1       27.366 -20.374   6.877  0.00  0.00    -0.302 NA
ATOM      3  C   LIG    1       26.221 -20.653   5.964  0.00  0.00    +0.111 C 
ATOM      4  C   LIG    1       24.834 -20.633   6.696  0.00  0.00    +0.119 C 
ATOM      5  N   LIG    1       24.824 -21.663   7.776  0.00  0.00    -0.305 N 
ATOM      6  C   LIG    1       24.936 -22.970   7.252  0.00  0.00    +0.125 A 
ATOM      7  C   LIG    1       23.837 -23.516   6.582  0.00  0.00    -0.003 A 
ATOM      8  C   LIG    1       22.538 -22.768   6.586  0.00  0.00    +0.074 C 
ATOM      9  C   LIG    1       22.552 -21.513   5.747  0.00  0.00    -0.038 A 
ATOM     10  C   LIG    1       21.413 -21.257   4.952  0.00  0.00    +0.004 A 
ATOM     11  C   LIG    1       21.305 -20.097   4.190  0.00  0.00    +0.000 A 
ATOM     12  C   LIG    1       22.336 -19.171   4.204  0.00  0.00    +0.000 A 
ATOM     13  C   LIG    1       23.466 -19.403   4.991  0.00  0.00    +0.006 A 
ATOM     14  C   LIG    1       23.978 -24.745   5.927  0.00  0.00    +0.009 A 
ATOM     15  C   LIG    1       25.197 -25.403   5.952  0.00  0.00    +0.020 A 
ATOM     16  C   LIG    1       26.221 -24.821   6.673  0.00  0.00    +0.113 A 
ATOM     17  N   LIG    1       26.100 -23.650   7.330  0.00  0.00    -0.240 NA
ATOM     18  C   LIG    1       25.874 -21.332   8.767  0.00  0.00    +0.122 C 
ATOM     19  C   LIG    1       23.599 -20.567   5.787  0.00  0.00    -0.022 A 
ATOM     20  C   LIG    1       27.285 -21.145   8.145  0.00  0.00    +0.103 C 
ENDROOT
TORSDOF 0
ENDMDL
MODEL 2
REMARK VINA RESULT:      -6.4      5.700      8.202
REMARK  Name = *****
REMARK                            x       y       z     vdW  Elec       q    Type
REMARK                         _______ _______ _______ _____ _____    ______ ____
ROOT
ATOM      1  C   LIG    1       27.717 -29.445  11.288  0.00  0.00    +0.105 C 
ATOM      2  N   LIG    1       26.446 -29.077  10.657  0.00  0.00    -0.302 NA
ATOM      3  C   LIG    1       26.678 -28.702   9.233  0.00  0.00    +0.111 C 
ATOM      4  C   LIG    1       25.351 -28.592   8.403  0.00  0.00    +0.119 C 
ATOM      5  N   LIG    1       24.639 -29.903   8.424  0.00  0.00    -0.305 N 
ATOM      6  C   LIG    1       25.385 -30.914   7.778  0.00  0.00    +0.125 A 
ATOM      7  C   LIG    1       25.488 -30.878   6.384  0.00  0.00    -0.003 A 
ATOM      8  C   LIG    1       24.677 -29.875   5.621  0.00  0.00    +0.074 C 
ATOM      9  C   LIG    1       25.147 -28.451   5.791  0.00  0.00    -0.038 A 
ATOM     10  C   LIG    1       25.181 -27.640   4.636  0.00  0.00    +0.004 A 
ATOM     11  C   LIG    1       25.543 -26.298   4.700  0.00  0.00    +0.000 A 
ATOM     12  C   LIG    1       25.881 -25.738   5.922  0.00  0.00    +0.000 A 
ATOM     13  C   LIG    1       25.844 -26.521   7.076  0.00  0.00    +0.006 A 
ATOM     14  C   LIG    1       26.344 -31.778   5.740  0.00  0.00    +0.009 A 
ATOM     15  C   LIG    1       27.073 -32.691   6.485  0.00  0.00    +0.020 A 
ATOM     16  C   LIG    1       26.882 -32.693   7.853  0.00  0.00    +0.113 A 
ATOM     17  N   LIG    1       26.046 -31.851   8.492  0.00  0.00    -0.240 NA
ATOM     18  C   LIG    1       24.282 -30.235   9.824  0.00  0.00    +0.122 C 
ATOM     19  C   LIG    1       25.468 -27.886   7.045  0.00  0.00    -0.022 A 
ATOM     20  C   LIG    1       25.489 -30.206  10.800  0.00  0.00    +0.103 C 
ENDROOT
TORSDOF 0
ENDMDL
MODEL 3
REMARK VINA RESULT:      -5.9      6.386      9.563
REMARK  Name = *****
REMARK                            x       y       z     vdW  Elec       q    Type
REMARK                         _______ _______ _______ _____ _____    ______ ____
ROOT
ATOM      1  C   LIG    1       22.865 -33.622   8.143  0.00  0.00    +0.105 C 
ATOM      2  N   LIG    1       24.086 -33.001   7.621  0.00  0.00    -0.302 NA
ATOM      3  C   LIG    1       23.950 -31.517   7.646  0.00  0.00    +0.111 C 
ATOM      4  C   LIG    1       25.307 -30.771   7.398  0.00  0.00    +0.119 C 
ATOM      5  N   LIG    1       26.291 -31.161   8.450  0.00  0.00    -0.305 N 
ATOM      6  C   LIG    1       25.877 -30.739   9.734  0.00  0.00    +0.125 A 
ATOM      7  C   LIG    1       25.939 -29.377  10.039  0.00  0.00    -0.003 A 
ATOM      8  C   LIG    1       26.587 -28.441   9.064  0.00  0.00    +0.074 C 
ATOM      9  C   LIG    1       25.788 -28.224   7.801  0.00  0.00    -0.038 A 
ATOM     10  C   LIG    1       25.711 -26.903   7.307  0.00  0.00    +0.004 A 
ATOM     11  C   LIG    1       25.049 -26.610   6.118  0.00  0.00    +0.000 A 
ATOM     12  C   LIG    1       24.447 -27.632   5.400  0.00  0.00    +0.000 A 
ATOM     13  C   LIG    1       24.520 -28.944   5.869  0.00  0.00    +0.006 A 
ATOM     14  C   LIG    1       25.394 -28.922  11.246  0.00  0.00    +0.009 A 
ATOM     15  C   LIG    1       24.808 -29.823  12.120  0.00  0.00    +0.020 A 
ATOM     16  C   LIG    1       24.827 -31.158  11.766  0.00  0.00    +0.113 A 
ATOM     17  N   LIG    1       25.365 -31.620  10.621  0.00  0.00    -0.240 NA
ATOM     18  C   LIG    1       26.541 -32.618   8.359  0.00  0.00    +0.122 C 
ATOM     19  C   LIG    1       25.198 -29.276   7.068  0.00  0.00    -0.022 A 
ATOM     20  C   LIG    1       25.249 -33.479   8.413  0.00  0.00    +0.103 C 
ENDROOT
TORSDOF 0
ENDMDL
MODEL 4
REMARK VINA RESULT:      -5.8      6.742      9.648
REMARK  Name = *****
REMARK                            x       y       z     vdW  Elec       q    Type
REMARK                         _______ _______ _______ _____ _____    ______ ____
ROOT
ATOM      1  C   LIG    1       21.552 -32.257  10.223  0.00  0.00    +0.105 C 
ATOM      2  N   LIG    1       22.805 -32.218   9.462  0.00  0.00    -0.302 NA
ATOM      3  C   LIG    1       23.148 -30.807   9.125  0.00  0.00    +0.111 C 
ATOM      4  C   LIG    1       24.612 -30.643   8.585  0.00  0.00    +0.119 C 
ATOM      5  N   LIG    1       25.580 -31.119   9.616  0.00  0.00    -0.305 N 
ATOM      6  C   LIG    1       25.534 -30.322  10.783  0.00  0.00    +0.125 A 
ATOM      7  C   LIG    1       26.070 -29.032  10.730  0.00  0.00    -0.003 A 
ATOM      8  C   LIG    1       26.812 -28.603   9.500  0.00  0.00    +0.074 C 
ATOM      9  C   LIG    1       25.928 -28.392   8.294  0.00  0.00    -0.038 A 
ATOM     10  C   LIG    1       26.191 -27.260   7.492  0.00  0.00    +0.004 A 
ATOM     11  C   LIG    1       25.471 -27.012   6.327  0.00  0.00    +0.000 A 
ATOM     12  C   LIG    1       24.470 -27.890   5.942  0.00  0.00    +0.000 A 
ATOM     13  C   LIG    1       24.202 -29.019   6.717  0.00  0.00    +0.006 A 
ATOM     14  C   LIG    1       25.900 -28.177  11.825  0.00  0.00    +0.009 A 
ATOM     15  C   LIG    1       25.210 -28.617  12.942  0.00  0.00    +0.020 A 
ATOM     16  C   LIG    1       24.750 -29.920  12.935  0.00  0.00    +0.113 A 
ATOM     17  N   LIG    1       24.923 -30.767  11.902  0.00  0.00    -0.240 NA
ATOM     18  C   LIG    1       25.341 -32.558   9.874  0.00  0.00    +0.122 C 
ATOM     19  C   LIG    1       24.926 -29.305   7.900  0.00  0.00    -0.022 A 
ATOM     20  C   LIG    1       23.871 -32.891  10.249  0.00  0.00    +0.103 C 
ENDROOT
TORSDOF 0
ENDMDL
MODEL 5
REMARK VINA RESULT:      -5.8      8.964     10.828
REMARK  Name = *****
REMARK                            x       y       z     vdW  Elec       q    Type
REMARK                         _______ _______ _______ _____ _____    ______ ____
ROOT
ATOM      1  C   LIG    1       19.818 -31.237  10.315  0.00  0.00    +0.105 C 
ATOM      2  N   LIG    1       21.081 -31.536  10.996  0.00  0.00    -0.302 NA
ATOM      3  C   LIG    1       22.095 -30.496  10.661  0.00  0.00    +0.111 C 
ATOM      4  C   LIG    1       23.367 -30.561  11.576  0.00  0.00    +0.119 C 
ATOM      5  N   LIG    1       22.968 -30.372  13.001  0.00  0.00    -0.305 N 
ATOM      6  C   LIG    1       22.427 -29.086  13.227  0.00  0.00    +0.125 A 
ATOM      7  C   LIG    1       23.293 -27.989  13.220  0.00  0.00    -0.003 A 
ATOM      8  C   LIG    1       24.771 -28.229  13.137  0.00  0.00    +0.074 C 
ATOM      9  C   LIG    1       25.235 -28.731  11.791  0.00  0.00    -0.038 A 
ATOM     10  C   LIG    1       26.425 -28.175  11.271  0.00  0.00    +0.004 A 
ATOM     11  C   LIG    1       26.966 -28.615  10.067  0.00  0.00    +0.000 A 
ATOM     12  C   LIG    1       26.326 -29.617   9.354  0.00  0.00    +0.000 A 
ATOM     13  C   LIG    1       25.154 -30.183   9.856  0.00  0.00    +0.006 A 
ATOM     14  C   LIG    1       22.759 -26.697  13.289  0.00  0.00    +0.009 A 
ATOM     15  C   LIG    1       21.387 -26.522  13.368  0.00  0.00    +0.020 A 
ATOM     16  C   LIG    1       20.602 -27.657  13.416  0.00  0.00    +0.113 A 
ATOM     17  N   LIG    1       21.096 -28.910  13.373  0.00  0.00    -0.240 NA
ATOM     18  C   LIG    1       22.058 -31.473  13.396  0.00  0.00    +0.122 C 
ATOM     19  C   LIG    1       24.586 -29.767  11.084  0.00  0.00    -0.022 A 
ATOM     20  C   LIG    1       20.831 -31.637  12.458  0.00  0.00    +0.103 C 
ENDROOT
TORSDOF 0
ENDMDL
MODEL 6
REMARK VINA RESULT:      -5.7      8.686      9.302
REMARK  Name = *****
REMARK                            x       y       z     vdW  Elec       q    Type
REMARK                         _______ _______ _______ _____ _____    ______ ____
ROOT
ATOM      1  C   LIG    1       27.753 -24.874  13.991  0.00  0.00    +0.105 C 
ATOM      2  N   LIG    1       26.873 -25.862  14.622  0.00  0.00    -0.302 NA
ATOM      3  C   LIG    1       25.685 -26.107  13.756  0.00  0.00    +0.111 C 
ATOM      4  C   LIG    1       24.852 -27.361  14.196  0.00  0.00    +0.119 C 
ATOM      5  N   LIG    1       25.716 -28.576  14.148  0.00  0.00    -0.305 N 
ATOM      6  C   LIG    1       26.136 -28.867  12.830  0.00  0.00    +0.125 A 
ATOM      7  C   LIG    1       25.196 -29.376  11.929  0.00  0.00    -0.003 A 
ATOM      8  C   LIG    1       23.833 -29.746  12.431  0.00  0.00    +0.074 C 
ATOM      9  C   LIG    1       22.977 -28.560  12.807  0.00  0.00    -0.038 A 
ATOM     10  C   LIG    1       21.620 -28.595  12.417  0.00  0.00    +0.004 A 
ATOM     11  C   LIG    1       20.737 -27.578  12.769  0.00  0.00    +0.000 A 
ATOM     12  C   LIG    1       21.194 -26.502  13.514  0.00  0.00    +0.000 A 
ATOM     13  C   LIG    1       22.530 -26.455  13.915  0.00  0.00    +0.006 A 
ATOM     14  C   LIG    1       25.553 -29.527  10.584  0.00  0.00    +0.009 A 
ATOM     15  C   LIG    1       26.825 -29.176  10.165  0.00  0.00    +0.020 A 
ATOM     16  C   LIG    1       27.710 -28.723  11.124  0.00  0.00    +0.113 A 
ATOM     17  N   LIG    1       27.395 -28.592  12.428  0.00  0.00    -0.240 NA
ATOM     18  C   LIG    1       26.838 -28.408  15.102  0.00  0.00    +0.122 C 
ATOM     19  C   LIG    1       23.449 -27.480  13.585  0.00  0.00    -0.022 A 
ATOM     20  C   LIG    1       27.649 -27.101  14.889  0.00  0.00    +0.103 C 
ENDROOT
TORSDOF 0
ENDMDL
MODEL 7
REMARK VINA RESULT:      -5.6      1.773      5.298
REMARK  Name = *****
REMARK                            x       y       z     vdW  Elec       q    Type
REMARK                         _______ _______ _______ _____ _____    ______ ____
ROOT
ATOM      1  C   LIG    1       24.061 -25.156   6.198  0.00  0.00    +0.105 C 
ATOM      2  N   LIG    1       24.339 -23.966   7.010  0.00  0.00    -0.302 NA
ATOM      3  C   LIG    1       25.575 -23.296   6.516  0.00  0.00    +0.111 C 
ATOM      4  C   LIG    1       25.778 -21.861   7.118  0.00  0.00    +0.119 C 
ATOM      5  N   LIG    1       24.613 -21.001   6.760  0.00  0.00    -0.305 N 
ATOM      6  C   LIG    1       24.523 -20.797   5.365  0.00  0.00    +0.125 A 
ATOM      7  C   LIG    1       25.459 -19.958   4.753  0.00  0.00    -0.003 A 
ATOM      8  C   LIG    1       26.414 -19.184   5.612  0.00  0.00    +0.074 C 
ATOM      9  C   LIG    1       27.466 -20.037   6.279  0.00  0.00    -0.038 A 
ATOM     10  C   LIG    1       28.785 -19.533   6.302  0.00  0.00    +0.004 A 
ATOM     11  C   LIG    1       29.813 -20.217   6.945  0.00  0.00    +0.000 A 
ATOM     12  C   LIG    1       29.544 -21.421   7.576  0.00  0.00    +0.000 A 
ATOM     13  C   LIG    1       28.244 -21.930   7.572  0.00  0.00    +0.006 A 
ATOM     14  C   LIG    1       25.481 -19.863   3.357  0.00  0.00    +0.009 A 
ATOM     15  C   LIG    1       24.578 -20.593   2.602  0.00  0.00    +0.020 A 
ATOM     16  C   LIG    1       23.656 -21.364   3.283  0.00  0.00    +0.113 A 
ATOM     17  N   LIG    1       23.602 -21.452   4.627  0.00  0.00    -0.240 NA
ATOM     18  C   LIG    1       23.385 -21.581   7.352  0.00  0.00    +0.122 C 
ATOM     19  C   LIG    1       27.175 -21.252   6.938  0.00  0.00    -0.022 A 
ATOM     20  C   LIG    1       23.153 -23.071   6.977  0.00  0.00    +0.103 C 
ENDROOT
TORSDOF 0
ENDMDL
MODEL 8
REMARK VINA RESULT:      -5.5      9.429     11.422
REMARK  Name = *****
REMARK                            x       y       z     vdW  Elec       q    Type
REMARK                         _______ _______ _______ _____ _____    ______ ____
ROOT
ATOM      1  C   LIG    1       22.501 -32.432  14.550  0.00  0.00    +0.105 C 
ATOM      2  N   LIG    1       21.497 -31.806  13.684  0.00  0.00    -0.302 NA
ATOM      3  C   LIG    1       20.958 -30.580  14.339  0.00  0.00    +0.111 C 
ATOM      4  C   LIG    1       20.114 -29.684  13.366  0.00  0.00    +0.119 C 
ATOM      5  N   LIG    1       20.964 -29.257  12.216  0.00  0.00    -0.305 N 
ATOM      6  C   LIG    1       22.030 -28.429  12.634  0.00  0.00    +0.125 A 
ATOM      7  C   LIG    1       21.740 -27.122  13.036  0.00  0.00    -0.003 A 
ATOM      8  C   LIG    1       20.347 -26.598  12.856  0.00  0.00    +0.074 C 
ATOM      9  C   LIG    1       19.336 -27.215  13.791  0.00  0.00    -0.038 A 
ATOM     10  C   LIG    1       18.389 -26.349  14.379  0.00  0.00    +0.004 A 
ATOM     11  C   LIG    1       17.379 -26.831  15.207  0.00  0.00    +0.000 A 
ATOM     12  C   LIG    1       17.298 -28.190  15.467  0.00  0.00    +0.000 A 
ATOM     13  C   LIG    1       18.220 -29.062  14.888  0.00  0.00    +0.006 A 
ATOM     14  C   LIG    1       22.756 -26.338  13.595  0.00  0.00    +0.009 A 
ATOM     15  C   LIG    1       24.030 -26.862  13.739  0.00  0.00    +0.020 A 
ATOM     16  C   LIG    1       24.247 -28.146  13.276  0.00  0.00    +0.113 A 
ATOM     17  N   LIG    1       23.290 -28.909  12.715  0.00  0.00    -0.240 NA
ATOM     18  C   LIG    1       21.407 -30.459  11.472  0.00  0.00    +0.122 C 
ATOM     19  C   LIG    1       19.250 -28.604  14.031  0.00  0.00    -0.022 A 
ATOM     20  C   LIG    1       22.110 -31.522  12.360  0.00  0.00    +0.103 C 
ENDROOT
TORSDOF 0
ENDMDL
MODEL 9
REMARK VINA RESULT:      -5.3      6.663      9.570
REMARK  Name = *****
REMARK                            x       y       z     vdW  Elec       q    Type
REMARK                         _______ _______ _______ _____ _____    ______ ____
ROOT
ATOM      1  C   LIG    1       25.006 -30.594  11.884  0.00  0.00    +0.105 C 
ATOM      2  N   LIG    1       24.150 -30.518  10.696  0.00  0.00    -0.302 NA
ATOM      3  C   LIG    1       24.919 -29.946   9.555  0.00  0.00    +0.111 C 
ATOM      4  C   LIG    1       24.187 -30.111   8.177  0.00  0.00    +0.119 C 
ATOM      5  N   LIG    1       23.962 -31.560   7.901  0.00  0.00    -0.305 N 
ATOM      6  C   LIG    1       25.181 -32.257   7.747  0.00  0.00    +0.125 A 
ATOM      7  C   LIG    1       25.926 -32.047   6.583  0.00  0.00    -0.003 A 
ATOM      8  C   LIG    1       25.333 -31.225   5.478  0.00  0.00    +0.074 C 
ATOM      9  C   LIG    1       25.232 -29.753   5.798  0.00  0.00    -0.038 A 
ATOM     10  C   LIG    1       25.584 -28.846   4.775  0.00  0.00    +0.004 A 
ATOM     11  C   LIG    1       25.467 -27.470   4.952  0.00  0.00    +0.000 A 
ATOM     12  C   LIG    1       24.999 -26.973   6.158  0.00  0.00    +0.000 A 
ATOM     13  C   LIG    1       24.639 -27.855   7.178  0.00  0.00    +0.006 A 
ATOM     14  C   LIG    1       27.204 -32.610   6.479  0.00  0.00    +0.009 A 
ATOM     15  C   LIG    1       27.711 -33.366   7.523  0.00  0.00    +0.020 A 
ATOM     16  C   LIG    1       26.895 -33.564   8.620  0.00  0.00    +0.113 A 
ATOM     17  N   LIG    1       25.654 -33.051   8.732  0.00  0.00    -0.240 NA
ATOM     18  C   LIG    1       23.090 -32.122   8.959  0.00  0.00    +0.122 C 
ATOM     19  C   LIG    1       24.734 -29.259   7.023  0.00  0.00    -0.022 A 
ATOM     20  C   LIG    1       23.612 -31.872  10.400  0.00  0.00    +0.103 C 
ENDROOT
TORSDOF 0
ENDMDL
