MODEL 1
REMARK VINA RESULT:      -5.4      0.000      0.000
REMARK  Name = *****
REMARK                            x       y       z     vdW  Elec       q    Type
REMARK                         _______ _______ _______ _____ _____    ______ ____
ROOT
ATOM      1  C   LIG    1       23.235 -16.538   4.192  0.00  0.00    -0.023 A 
ATOM      2  C   LIG    1       24.133 -17.603   4.076  0.00  0.00    +0.036 A 
ATOM      3  C   LIG    1       23.668 -18.913   4.162  0.00  0.00    +0.109 A 
ATOM      4  C   LIG    1       22.300 -19.177   4.340  0.00  0.00    +0.029 A 
ATOM      5  C   LIG    1       21.405 -18.109   4.446  0.00  0.00    +0.003 A 
ATOM      6  C   LIG    1       21.869 -16.795   4.373  0.00  0.00    +0.008 A 
ENDROOT
BRANCH   3   7
ATOM      7  S   LIG    1       24.804 -20.275   3.987  0.00  0.00    +0.072 S 
ATOM      8  O   LIG    1       26.032 -19.765   3.409  0.00  0.00    -0.150 OA
ATOM      9  O   LIG    1       24.076 -21.376   3.391  0.00  0.00    -0.150 OA
BRANCH   7  10
ATOM     10  N   LIG    1       25.140 -20.595   5.624  0.00  0.00    -0.216 N 
ATOM     11  H   LIG    1       24.632 -19.893   6.159  0.00  0.00    +0.174 HD
BRANCH  10  12
ATOM     12  C   LIG    1       26.537 -20.565   5.959  0.00  0.00    +0.048 A 
ATOM     13  C   LIG    1       27.100 -21.572   6.744  0.00  0.00    +0.024 A 
ATOM     14  C   LIG    1       28.459 -21.522   7.061  0.00  0.00    +0.002 A 
ATOM     15  C   LIG    1       29.246 -20.463   6.607  0.00  0.00    +0.000 A 
ATOM     16  C   LIG    1       28.672 -19.445   5.846  0.00  0.00    +0.002 A 
ATOM     17  C   LIG    1       27.314 -19.492   5.528  0.00  0.00    +0.024 A 
ENDBRANCH  10  12
ENDBRANCH   7  10
ENDBRANCH   3   7
BRANCH   1  19
ATOM     18  C   LIG    1       24.958 -14.901   3.622  0.00  0.00    +0.070 C 
ATOM     19  C   LIG    1       23.727 -15.166   4.089  0.00  0.00    +0.013 C 
BRANCH  18  21
ATOM     20  O   LIG    1       25.115 -12.702   4.514  0.00  0.00    -0.269 OA
ATOM     21  C   LIG    1       25.475 -13.509   3.662  0.00  0.00    +0.259 C 
ATOM     22  N   LIG    1       26.371 -13.155   2.695  0.00  0.00    -0.194 N 
ATOM     23  H   LIG    1       26.927 -12.325   2.895  0.00  0.00    +0.182 HD
BRANCH  22  24
ATOM     24  O   LIG    1       26.964 -14.128   1.870  0.00  0.00    -0.295 OA
ATOM     25  H   LIG    1       26.742 -13.792   0.979  0.00  0.00    +0.241 HD
ENDBRANCH  22  24
ENDBRANCH  18  21
ENDBRANCH   1  19
TORSDOF 6
ENDMDL
MODEL 2
REMARK VINA RESULT:      -5.0      1.889      2.703
REMARK  Name = *****
REMARK                            x       y       z     vdW  Elec       q    Type
REMARK                         _______ _______ _______ _____ _____    ______ ____
ROOT
ATOM      1  C   LIG    1       25.409 -15.383   3.729  0.00  0.00    -0.023 A 
ATOM      2  C   LIG    1       25.253 -16.771   3.674  0.00  0.00    +0.036 A 
ATOM      3  C   LIG    1       24.024 -17.343   3.988  0.00  0.00    +0.109 A 
ATOM      4  C   LIG    1       22.927 -16.537   4.337  0.00  0.00    +0.029 A 
ATOM      5  C   LIG    1       23.084 -15.149   4.383  0.00  0.00    +0.003 A 
ATOM      6  C   LIG    1       24.320 -14.574   4.080  0.00  0.00    +0.008 A 
ENDROOT
BRANCH   3   7
ATOM      7  S   LIG    1       23.811 -19.110   3.892  0.00  0.00    +0.072 S 
ATOM      8  O   LIG    1       23.090 -19.410   2.671  0.00  0.00    -0.150 OA
ATOM      9  O   LIG    1       23.348 -19.564   5.187  0.00  0.00    -0.150 OA
BRANCH   7  10
ATOM     10  N   LIG    1       25.422 -19.590   3.629  0.00  0.00    -0.216 N 
ATOM     11  H   LIG    1       25.391 -20.297   2.897  0.00  0.00    +0.174 HD
BRANCH  10  12
ATOM     12  C   LIG    1       26.084 -20.107   4.795  0.00  0.00    +0.048 A 
ATOM     13  C   LIG    1       25.463 -21.063   5.599  0.00  0.00    +0.024 A 
ATOM     14  C   LIG    1       26.122 -21.550   6.729  0.00  0.00    +0.002 A 
ATOM     15  C   LIG    1       27.390 -21.071   7.062  0.00  0.00    +0.000 A 
ATOM     16  C   LIG    1       27.995 -20.095   6.270  0.00  0.00    +0.002 A 
ATOM     17  C   LIG    1       27.338 -19.606   5.140  0.00  0.00    +0.024 A 
ENDBRANCH  10  12
ENDBRANCH   7  10
ENDBRANCH   3   7
BRANCH   1  19
ATOM     18  C   LIG    1       27.274 -13.870   4.177  0.00  0.00    +0.070 C 
ATOM     19  C   LIG    1       26.699 -14.788   3.386  0.00  0.00    +0.013 C 
BRANCH  18  21
ATOM     20  O   LIG    1       28.959 -13.317   2.591  0.00  0.00    -0.269 OA
ATOM     21  C   LIG    1       28.514 -13.185   3.728  0.00  0.00    +0.259 C 
ATOM     22  N   LIG    1       29.155 -12.403   4.645  0.00  0.00    -0.194 N 
ATOM     23  H   LIG    1       29.812 -11.727   4.261  0.00  0.00    +0.182 HD
BRANCH  22  24
ATOM     24  O   LIG    1       28.533 -12.059   5.859  0.00  0.00    -0.295 OA
ATOM     25  H   LIG    1       28.026 -12.871   6.056  0.00  0.00    +0.241 HD
ENDBRANCH  22  24
ENDBRANCH  18  21
ENDBRANCH   1  19
TORSDOF 6
ENDMDL
MODEL 3
REMARK VINA RESULT:      -4.0      2.726      5.981
REMARK  Name = *****
REMARK                            x       y       z     vdW  Elec       q    Type
REMARK                         _______ _______ _______ _____ _____    ______ ____
ROOT
ATOM      1  C   LIG    1       25.037 -20.610   5.471  0.00  0.00    -0.023 A 
ATOM      2  C   LIG    1       24.563 -19.419   4.914  0.00  0.00    +0.036 A 
ATOM      3  C   LIG    1       23.193 -19.203   4.802  0.00  0.00    +0.109 A 
ATOM      4  C   LIG    1       22.277 -20.161   5.268  0.00  0.00    +0.029 A 
ATOM      5  C   LIG    1       22.754 -21.347   5.832  0.00  0.00    +0.003 A 
ATOM      6  C   LIG    1       24.128 -21.572   5.933  0.00  0.00    +0.008 A 
ENDROOT
BRANCH   3   7
ATOM      7  S   LIG    1       22.583 -17.674   4.119  0.00  0.00    +0.072 S 
ATOM      8  O   LIG    1       22.356 -16.752   5.215  0.00  0.00    -0.150 OA
ATOM      9  O   LIG    1       21.542 -18.005   3.168  0.00  0.00    -0.150 OA
BRANCH   7  10
ATOM     10  N   LIG    1       23.980 -17.129   3.315  0.00  0.00    -0.216 N 
ATOM     11  H   LIG    1       24.706 -17.815   3.514  0.00  0.00    +0.174 HD
BRANCH  10  12
ATOM     12  C   LIG    1       24.412 -15.815   3.703  0.00  0.00    +0.048 A 
ATOM     13  C   LIG    1       23.482 -14.838   4.059  0.00  0.00    +0.024 A 
ATOM     14  C   LIG    1       23.923 -13.566   4.430  0.00  0.00    +0.002 A 
ATOM     15  C   LIG    1       25.286 -13.269   4.429  0.00  0.00    +0.000 A 
ATOM     16  C   LIG    1       26.210 -14.241   4.046  0.00  0.00    +0.002 A 
ATOM     17  C   LIG    1       25.772 -15.514   3.674  0.00  0.00    +0.024 A 
ENDBRANCH  10  12
ENDBRANCH   7  10
ENDBRANCH   3   7
BRANCH   1  19
ATOM     18  C   LIG    1       27.240 -20.012   6.343  0.00  0.00    +0.070 C 
ATOM     19  C   LIG    1       26.477 -20.825   5.596  0.00  0.00    +0.013 C 
BRANCH  18  21
ATOM     20  O   LIG    1       29.272 -21.125   6.884  0.00  0.00    -0.269 OA
ATOM     21  C   LIG    1       28.717 -20.177   6.334  0.00  0.00    +0.259 C 
ATOM     22  N   LIG    1       29.442 -19.215   5.693  0.00  0.00    -0.194 N 
ATOM     23  H   LIG    1       30.394 -19.478   5.443  0.00  0.00    +0.182 HD
BRANCH  22  24
ATOM     24  O   LIG    1       28.811 -18.268   4.867  0.00  0.00    -0.295 OA
ATOM     25  H   LIG    1       29.537 -17.631   4.708  0.00  0.00    +0.241 HD
ENDBRANCH  22  24
ENDBRANCH  18  21
ENDBRANCH   1  19
TORSDOF 6
ENDMDL
MODEL 4
REMARK VINA RESULT:      -3.8      2.119      4.732
REMARK  Name = *****
REMARK                            x       y       z     vdW  Elec       q    Type
REMARK                         _______ _______ _______ _____ _____    ______ ____
ROOT
ATOM      1  C   LIG    1       27.439 -17.249   4.126  0.00  0.00    -0.023 A 
ATOM      2  C   LIG    1       26.730 -18.326   4.664  0.00  0.00    +0.036 A 
ATOM      3  C   LIG    1       27.382 -19.245   5.482  0.00  0.00    +0.109 A 
ATOM      4  C   LIG    1       28.743 -19.088   5.792  0.00  0.00    +0.029 A 
ATOM      5  C   LIG    1       29.446 -18.004   5.259  0.00  0.00    +0.003 A 
ATOM      6  C   LIG    1       28.797 -17.088   4.429  0.00  0.00    +0.008 A 
ENDROOT
BRANCH   3   7
ATOM      7  S   LIG    1       26.477 -20.605   6.195  0.00  0.00    +0.072 S 
ATOM      8  O   LIG    1       25.451 -20.057   7.060  0.00  0.00    -0.150 OA
ATOM      9  O   LIG    1       27.445 -21.572   6.669  0.00  0.00    -0.150 OA
BRANCH   7  10
ATOM     10  N   LIG    1       25.676 -21.188   4.811  0.00  0.00    -0.216 N 
ATOM     11  H   LIG    1       26.281 -20.968   4.021  0.00  0.00    +0.174 HD
BRANCH  10  12
ATOM     12  C   LIG    1       24.366 -20.633   4.607  0.00  0.00    +0.048 A 
ATOM     13  C   LIG    1       24.203 -19.438   3.905  0.00  0.00    +0.024 A 
ATOM     14  C   LIG    1       22.922 -18.915   3.721  0.00  0.00    +0.002 A 
ATOM     15  C   LIG    1       21.812 -19.575   4.249  0.00  0.00    +0.000 A 
ATOM     16  C   LIG    1       21.984 -20.754   4.974  0.00  0.00    +0.002 A 
ATOM     17  C   LIG    1       23.263 -21.280   5.160  0.00  0.00    +0.024 A 
ENDBRANCH  10  12
ENDBRANCH   7  10
ENDBRANCH   3   7
BRANCH   1  19
ATOM     18  C   LIG    1       26.498 -15.033   3.705  0.00  0.00    +0.070 C 
ATOM     19  C   LIG    1       26.745 -16.281   3.278  0.00  0.00    +0.013 C 
BRANCH  18  21
ATOM     20  O   LIG    1       26.082 -13.641   1.821  0.00  0.00    -0.269 OA
ATOM     21  C   LIG    1       25.670 -14.121   2.874  0.00  0.00    +0.259 C 
ATOM     22  N   LIG    1       24.421 -13.826   3.338  0.00  0.00    -0.194 N 
ATOM     23  H   LIG    1       23.773 -13.455   2.645  0.00  0.00    +0.182 HD
BRANCH  22  24
ATOM     24  O   LIG    1       23.859 -14.550   4.405  0.00  0.00    -0.295 OA
ATOM     25  H   LIG    1       24.366 -14.204   5.165  0.00  0.00    +0.241 HD
ENDBRANCH  22  24
ENDBRANCH  18  21
ENDBRANCH   1  19
TORSDOF 6
ENDMDL
MODEL 5
REMARK VINA RESULT:      -3.4      1.599      2.069
REMARK  Name = *****
REMARK                            x       y       z     vdW  Elec       q    Type
REMARK                         _______ _______ _______ _____ _____    ______ ____
ROOT
ATOM      1  C   LIG    1       22.460 -16.745   4.142  0.00  0.00    -0.023 A 
ATOM      2  C   LIG    1       22.985 -17.825   4.857  0.00  0.00    +0.036 A 
ATOM      3  C   LIG    1       22.363 -19.069   4.789  0.00  0.00    +0.109 A 
ATOM      4  C   LIG    1       21.225 -19.258   3.988  0.00  0.00    +0.029 A 
ATOM      5  C   LIG    1       20.708 -18.177   3.268  0.00  0.00    +0.003 A 
ATOM      6  C   LIG    1       21.322 -16.926   3.344  0.00  0.00    +0.008 A 
ENDROOT
BRANCH   3   7
ATOM      7  S   LIG    1       23.045 -20.457   5.676  0.00  0.00    +0.072 S 
ATOM      8  O   LIG    1       22.123 -21.568   5.547  0.00  0.00    -0.150 OA
ATOM      9  O   LIG    1       23.488 -19.974   6.967  0.00  0.00    -0.150 OA
BRANCH   7  10
ATOM     10  N   LIG    1       24.377 -20.820   4.682  0.00  0.00    -0.216 N 
ATOM     11  H   LIG    1       24.235 -21.774   4.357  0.00  0.00    +0.174 HD
BRANCH  10  12
ATOM     12  C   LIG    1       25.653 -20.696   5.332  0.00  0.00    +0.048 A 
ATOM     13  C   LIG    1       26.579 -19.745   4.902  0.00  0.00    +0.024 A 
ATOM     14  C   LIG    1       27.814 -19.643   5.546  0.00  0.00    +0.002 A 
ATOM     15  C   LIG    1       28.126 -20.499   6.603  0.00  0.00    +0.000 A 
ATOM     16  C   LIG    1       27.208 -21.467   7.009  0.00  0.00    +0.002 A 
ATOM     17  C   LIG    1       25.972 -21.571   6.368  0.00  0.00    +0.024 A 
ENDBRANCH  10  12
ENDBRANCH   7  10
ENDBRANCH   3   7
BRANCH   1  19
ATOM     18  C   LIG    1       24.381 -15.282   3.766  0.00  0.00    +0.070 C 
ATOM     19  C   LIG    1       23.124 -15.445   4.209  0.00  0.00    +0.013 C 
BRANCH  18  21
ATOM     20  O   LIG    1       24.458 -12.949   4.224  0.00  0.00    -0.269 OA
ATOM     21  C   LIG    1       25.072 -13.984   3.977  0.00  0.00    +0.259 C 
ATOM     22  N   LIG    1       26.433 -13.984   3.873  0.00  0.00    -0.194 N 
ATOM     23  H   LIG    1       26.905 -13.187   4.295  0.00  0.00    +0.182 HD
BRANCH  22  24
ATOM     24  O   LIG    1       27.152 -15.192   3.829  0.00  0.00    -0.295 OA
ATOM     25  H   LIG    1       27.376 -15.253   2.879  0.00  0.00    +0.241 HD
ENDBRANCH  22  24
ENDBRANCH  18  21
ENDBRANCH   1  19
TORSDOF 6
ENDMDL
MODEL 6
REMARK VINA RESULT:      -3.2      2.756      7.597
REMARK  Name = *****
REMARK                            x       y       z     vdW  Elec       q    Type
REMARK                         _______ _______ _______ _____ _____    ______ ____
ROOT
ATOM      1  C   LIG    1       26.645 -18.727   4.115  0.00  0.00    -0.023 A 
ATOM      2  C   LIG    1       26.517 -17.396   3.711  0.00  0.00    +0.036 A 
ATOM      3  C   LIG    1       27.489 -16.466   4.070  0.00  0.00    +0.109 A 
ATOM      4  C   LIG    1       28.614 -16.858   4.815  0.00  0.00    +0.029 A 
ATOM      5  C   LIG    1       28.743 -18.192   5.209  0.00  0.00    +0.003 A 
ATOM      6  C   LIG    1       27.763 -19.124   4.862  0.00  0.00    +0.008 A 
ENDROOT
BRANCH   3   7
ATOM      7  S   LIG    1       27.346 -14.772   3.533  0.00  0.00    +0.072 S 
ATOM      8  O   LIG    1       26.745 -14.769   2.213  0.00  0.00    -0.150 OA
ATOM      9  O   LIG    1       28.611 -14.122   3.801  0.00  0.00    -0.150 OA
BRANCH   7  10
ATOM     10  N   LIG    1       26.148 -14.221   4.607  0.00  0.00    -0.216 N 
ATOM     11  H   LIG    1       25.646 -15.049   4.921  0.00  0.00    +0.174 HD
BRANCH  10  12
ATOM     12  C   LIG    1       25.234 -13.268   4.038  0.00  0.00    +0.048 A 
ATOM     13  C   LIG    1       24.451 -12.457   4.860  0.00  0.00    +0.024 A 
ATOM     14  C   LIG    1       23.568 -11.540   4.286  0.00  0.00    +0.002 A 
ATOM     15  C   LIG    1       23.458 -11.447   2.898  0.00  0.00    +0.000 A 
ATOM     16  C   LIG    1       24.223 -12.280   2.082  0.00  0.00    +0.002 A 
ATOM     17  C   LIG    1       25.107 -13.197   2.652  0.00  0.00    +0.024 A 
ENDBRANCH  10  12
ENDBRANCH   7  10
ENDBRANCH   3   7
BRANCH   1  19
ATOM     18  C   LIG    1       24.469 -19.804   4.397  0.00  0.00    +0.070 C 
ATOM     19  C   LIG    1       25.627 -19.700   3.725  0.00  0.00    +0.013 C 
BRANCH  18  21
ATOM     20  O   LIG    1       23.519 -21.447   2.963  0.00  0.00    -0.269 OA
ATOM     21  C   LIG    1       23.519 -20.896   4.061  0.00  0.00    +0.259 C 
ATOM     22  N   LIG    1       22.628 -21.260   5.028  0.00  0.00    -0.194 N 
ATOM     23  H   LIG    1       22.195 -22.173   4.904  0.00  0.00    +0.182 HD
BRANCH  22  24
ATOM     24  O   LIG    1       22.777 -20.806   6.352  0.00  0.00    -0.295 OA
ATOM     25  H   LIG    1       22.321 -19.942   6.315  0.00  0.00    +0.241 HD
ENDBRANCH  22  24
ENDBRANCH  18  21
ENDBRANCH   1  19
TORSDOF 6
ENDMDL
MODEL 7
REMARK VINA RESULT:      -2.8      2.221      5.122
REMARK  Name = *****
REMARK                            x       y       z     vdW  Elec       q    Type
REMARK                         _______ _______ _______ _____ _____    ______ ____
ROOT
ATOM      1  C   LIG    1       22.970 -16.866   4.409  0.00  0.00    -0.023 A 
ATOM      2  C   LIG    1       24.319 -16.888   4.043  0.00  0.00    +0.036 A 
ATOM      3  C   LIG    1       25.034 -15.697   3.962  0.00  0.00    +0.109 A 
ATOM      4  C   LIG    1       24.421 -14.471   4.270  0.00  0.00    +0.029 A 
ATOM      5  C   LIG    1       23.074 -14.454   4.644  0.00  0.00    +0.003 A 
ATOM      6  C   LIG    1       22.351 -15.646   4.713  0.00  0.00    +0.008 A 
ENDROOT
BRANCH   3   7
ATOM      7  S   LIG    1       26.762 -15.721   3.524  0.00  0.00    +0.072 S 
ATOM      8  O   LIG    1       27.531 -15.410   4.713  0.00  0.00    -0.150 OA
ATOM      9  O   LIG    1       26.910 -14.968   2.296  0.00  0.00    -0.150 OA
BRANCH   7  10
ATOM     10  N   LIG    1       26.972 -17.385   3.237  0.00  0.00    -0.216 N 
ATOM     11  H   LIG    1       26.042 -17.761   3.064  0.00  0.00    +0.174 HD
BRANCH  10  12
ATOM     12  C   LIG    1       27.609 -18.095   4.311  0.00  0.00    +0.048 A 
ATOM     13  C   LIG    1       28.871 -17.712   4.766  0.00  0.00    +0.024 A 
ATOM     14  C   LIG    1       29.474 -18.418   5.809  0.00  0.00    +0.002 A 
ATOM     15  C   LIG    1       28.824 -19.510   6.383  0.00  0.00    +0.000 A 
ATOM     16  C   LIG    1       27.575 -19.906   5.906  0.00  0.00    +0.002 A 
ATOM     17  C   LIG    1       26.970 -19.203   4.863  0.00  0.00    +0.024 A 
ENDBRANCH  10  12
ENDBRANCH   7  10
ENDBRANCH   3   7
BRANCH   1  19
ATOM     18  C   LIG    1       22.822 -19.252   4.917  0.00  0.00    +0.070 C 
ATOM     19  C   LIG    1       22.228 -18.122   4.503  0.00  0.00    +0.013 C 
BRANCH  18  21
ATOM     20  O   LIG    1       21.048 -20.669   4.207  0.00  0.00    -0.269 OA
ATOM     21  C   LIG    1       22.076 -20.536   4.867  0.00  0.00    +0.259 C 
ATOM     22  N   LIG    1       22.577 -21.571   5.601  0.00  0.00    -0.194 N 
ATOM     23  H   LIG    1       22.243 -22.497   5.338  0.00  0.00    +0.182 HD
BRANCH  22  24
ATOM     24  O   LIG    1       23.866 -21.500   6.160  0.00  0.00    -0.295 OA
ATOM     25  H   LIG    1       24.372 -22.084   5.560  0.00  0.00    +0.241 HD
ENDBRANCH  22  24
ENDBRANCH  18  21
ENDBRANCH   1  19
TORSDOF 6
ENDMDL
