MODEL 1
REMARK VINA RESULT:      -8.8      0.000      0.000
REMARK  Name = *****
REMARK                            x       y       z     vdW  Elec       q    Type
REMARK                         _______ _______ _______ _____ _____    ______ ____
ROOT
ATOM      1  C   LIG    1       25.210 -22.291   7.755  0.00  0.00    +0.069 C 
ENDROOT
BRANCH   1   3
ATOM      2  C   LIG    1       25.768 -20.648   5.840  0.00  0.00    +0.130 A 
ATOM      3  C   LIG    1       26.153 -21.319   7.052  0.00  0.00    +0.040 A 
ATOM      4  C   LIG    1       27.412 -21.054   7.614  0.00  0.00    +0.138 A 
ATOM      5  C   LIG    1       28.237 -20.156   6.974  0.00  0.00    +0.107 A 
ATOM      6  C   LIG    1       29.577 -19.747   7.362  0.00  0.00    +0.344 C 
ATOM      7  O   LIG    1       30.010 -18.856   6.415  0.00  0.00    -0.456 OA
ATOM      8  C   LIG    1       29.019 -18.650   5.398  0.00  0.00    +0.269 C 
ATOM      9  O   LIG    1       30.168 -20.145   8.331  0.00  0.00    -0.245 OA
ATOM     10  C   LIG    1       27.885 -19.513   5.808  0.00  0.00    +0.014 A 
ATOM     11  C   LIG    1       26.655 -19.750   5.191  0.00  0.00    -0.001 A 
ATOM     12  C   LIG    1       26.380 -19.071   3.881  0.00  0.00    +0.048 C 
BRANCH   2  14
ATOM     13  C   LIG    1       23.387 -20.230   5.556  0.00  0.00    +0.277 C 
ATOM     14  O   LIG    1       24.535 -21.035   5.382  0.00  0.00    -0.494 OA
ENDBRANCH   2  14
BRANCH   4  15
ATOM     15  O   LIG    1       27.805 -21.680   8.763  0.00  0.00    -0.505 OA
ATOM     16  H   LIG    1       28.647 -21.279   9.075  0.00  0.00    +0.292 HD
ENDBRANCH   4  15
ENDBRANCH   1   3
BRANCH   1  17
ATOM     17  C   LIG    1       25.083 -23.620   7.056  0.00  0.00    -0.023 C 
ATOM     18  C   LIG    1       23.969 -24.246   6.630  0.00  0.00    -0.076 C 
ATOM     19  C   LIG    1       22.587 -23.664   6.713  0.00  0.00    +0.038 C 
BRANCH  18  20
ATOM     20  C   LIG    1       24.080 -25.622   6.003  0.00  0.00    +0.041 C 
BRANCH  20  21
ATOM     21  C   LIG    1       25.131 -25.707   4.891  0.00  0.00    +0.125 C 
BRANCH  21  22
ATOM     22  C   LIG    1       25.844 -27.044   4.872  0.00  0.00    +0.307 C 
ATOM     23  O   LIG    1       27.057 -27.173   4.796  0.00  0.00    -0.251 OA
BRANCH  22  24
ATOM     24  O   LIG    1       24.953 -28.065   4.837  0.00  0.00    -0.463 OA
BRANCH  24  25
ATOM     25  C   LIG    1       25.177 -29.193   5.696  0.00  0.00    +0.247 C 
BRANCH  25  26
ATOM     26  C   LIG    1       24.417 -29.122   7.041  0.00  0.00    +0.125 C 
BRANCH  26  27
ATOM     27  N   LIG    1       24.055 -30.420   7.649  0.00  0.00    -0.295 NA
ATOM     28  C   LIG    1       25.086 -31.474   7.548  0.00  0.00    +0.112 C 
ATOM     29  C   LIG    1       26.262 -31.331   8.528  0.00  0.00    +0.175 C 
ATOM     30  O   LIG    1       25.803 -31.243   9.882  0.00  0.00    -0.377 OA
ATOM     31  C   LIG    1       24.914 -30.128  10.025  0.00  0.00    +0.175 C 
ATOM     32  C   LIG    1       23.702 -30.270   9.085  0.00  0.00    +0.112 C 
ENDBRANCH  26  27
ENDBRANCH  25  26
ENDBRANCH  24  25
ENDBRANCH  22  24
ENDBRANCH  21  22
ENDBRANCH  20  21
ENDBRANCH  18  20
ENDBRANCH   1  17
TORSDOF 11
ENDMDL
MODEL 2
REMARK VINA RESULT:      -8.5      1.066      1.370
REMARK  Name = *****
REMARK                            x       y       z     vdW  Elec       q    Type
REMARK                         _______ _______ _______ _____ _____    ______ ____
ROOT
ATOM      1  C   LIG    1       23.866 -22.182   7.545  0.00  0.00    +0.069 C 
ENDROOT
BRANCH   1   3
ATOM      2  C   LIG    1       24.787 -20.773   5.583  0.00  0.00    +0.130 A 
ATOM      3  C   LIG    1       24.973 -21.371   6.878  0.00  0.00    +0.040 A 
ATOM      4  C   LIG    1       26.190 -21.182   7.553  0.00  0.00    +0.138 A 
ATOM      5  C   LIG    1       27.166 -20.428   6.940  0.00  0.00    +0.107 A 
ATOM      6  C   LIG    1       28.496 -20.119   7.441  0.00  0.00    +0.344 C 
ATOM      7  O   LIG    1       29.114 -19.360   6.482  0.00  0.00    -0.456 OA
ATOM      8  C   LIG    1       28.259 -19.147   5.351  0.00  0.00    +0.269 C 
ATOM      9  O   LIG    1       28.941 -20.488   8.496  0.00  0.00    -0.245 OA
ATOM     10  C   LIG    1       27.004 -19.857   5.698  0.00  0.00    +0.014 A 
ATOM     11  C   LIG    1       25.824 -20.026   4.970  0.00  0.00    -0.001 A 
ATOM     12  C   LIG    1       25.757 -19.438   3.590  0.00  0.00    +0.048 C 
BRANCH   2  14
ATOM     13  C   LIG    1       22.517 -20.138   4.975  0.00  0.00    +0.277 C 
ATOM     14  O   LIG    1       23.572 -21.076   5.024  0.00  0.00    -0.494 OA
ENDBRANCH   2  14
BRANCH   4  15
ATOM     15  O   LIG    1       26.396 -21.742   8.782  0.00  0.00    -0.505 OA
ATOM     16  H   LIG    1       27.137 -22.386   8.721  0.00  0.00    +0.292 HD
ENDBRANCH   4  15
ENDBRANCH   1   3
BRANCH   1  17
ATOM     17  C   LIG    1       23.595 -23.501   6.869  0.00  0.00    -0.023 C 
ATOM     18  C   LIG    1       24.459 -24.491   6.572  0.00  0.00    -0.076 C 
ATOM     19  C   LIG    1       25.913 -24.486   6.951  0.00  0.00    +0.038 C 
BRANCH  18  20
ATOM     20  C   LIG    1       23.965 -25.713   5.824  0.00  0.00    +0.041 C 
BRANCH  20  21
ATOM     21  C   LIG    1       24.597 -27.024   6.304  0.00  0.00    +0.125 C 
BRANCH  21  22
ATOM     22  C   LIG    1       25.509 -27.640   5.263  0.00  0.00    +0.307 C 
ATOM     23  O   LIG    1       26.346 -27.016   4.627  0.00  0.00    -0.251 OA
BRANCH  22  24
ATOM     24  O   LIG    1       25.194 -28.943   5.057  0.00  0.00    -0.463 OA
BRANCH  24  25
ATOM     25  C   LIG    1       24.501 -29.648   6.097  0.00  0.00    +0.247 C 
BRANCH  25  26
ATOM     26  C   LIG    1       25.256 -30.889   6.628  0.00  0.00    +0.125 C 
BRANCH  26  27
ATOM     27  N   LIG    1       24.900 -31.329   7.994  0.00  0.00    -0.295 NA
ATOM     28  C   LIG    1       25.483 -32.621   8.412  0.00  0.00    +0.112 C 
ATOM     29  C   LIG    1       26.969 -32.568   8.806  0.00  0.00    +0.175 C 
ATOM     30  O   LIG    1       27.203 -31.588   9.824  0.00  0.00    -0.377 OA
ATOM     31  C   LIG    1       26.775 -30.298   9.368  0.00  0.00    +0.175 C 
ATOM     32  C   LIG    1       25.277 -30.313   9.010  0.00  0.00    +0.112 C 
ENDBRANCH  26  27
ENDBRANCH  25  26
ENDBRANCH  24  25
ENDBRANCH  22  24
ENDBRANCH  21  22
ENDBRANCH  20  21
ENDBRANCH  18  20
ENDBRANCH   1  17
TORSDOF 11
ENDMDL
MODEL 3
REMARK VINA RESULT:      -8.5      1.480      1.881
REMARK  Name = *****
REMARK                            x       y       z     vdW  Elec       q    Type
REMARK                         _______ _______ _______ _____ _____    ______ ____
ROOT
ATOM      1  C   LIG    1       25.160 -22.275   7.761  0.00  0.00    +0.069 C 
ENDROOT
BRANCH   1   3
ATOM      2  C   LIG    1       25.741 -20.643   5.844  0.00  0.00    +0.130 A 
ATOM      3  C   LIG    1       26.116 -21.317   7.058  0.00  0.00    +0.040 A 
ATOM      4  C   LIG    1       27.378 -21.067   7.620  0.00  0.00    +0.138 A 
ATOM      5  C   LIG    1       28.215 -20.181   6.979  0.00  0.00    +0.107 A 
ATOM      6  C   LIG    1       29.560 -19.788   7.367  0.00  0.00    +0.344 C 
ATOM      7  O   LIG    1       30.004 -18.905   6.418  0.00  0.00    -0.456 OA
ATOM      8  C   LIG    1       29.016 -18.687   5.402  0.00  0.00    +0.269 C 
ATOM      9  O   LIG    1       30.146 -20.193   8.337  0.00  0.00    -0.245 OA
ATOM     10  C   LIG    1       27.872 -19.535   5.812  0.00  0.00    +0.014 A 
ATOM     11  C   LIG    1       26.639 -19.758   5.195  0.00  0.00    -0.001 A 
ATOM     12  C   LIG    1       26.373 -19.076   3.884  0.00  0.00    +0.048 C 
BRANCH   2  14
ATOM     13  C   LIG    1       23.366 -20.192   5.554  0.00  0.00    +0.277 C 
ATOM     14  O   LIG    1       24.503 -21.014   5.386  0.00  0.00    -0.494 OA
ENDBRANCH   2  14
BRANCH   4  15
ATOM     15  O   LIG    1       27.763 -21.697   8.770  0.00  0.00    -0.505 OA
ATOM     16  H   LIG    1       27.463 -21.166   9.542  0.00  0.00    +0.292 HD
ENDBRANCH   4  15
ENDBRANCH   1   3
BRANCH   1  17
ATOM     17  C   LIG    1       25.034 -23.612   7.076  0.00  0.00    -0.023 C 
ATOM     18  C   LIG    1       23.922 -24.231   6.634  0.00  0.00    -0.076 C 
ATOM     19  C   LIG    1       22.545 -23.633   6.681  0.00  0.00    +0.038 C 
BRANCH  18  20
ATOM     20  C   LIG    1       24.031 -25.616   6.027  0.00  0.00    +0.041 C 
BRANCH  20  21
ATOM     21  C   LIG    1       25.110 -25.728   4.945  0.00  0.00    +0.125 C 
BRANCH  21  22
ATOM     22  C   LIG    1       26.069 -26.873   5.203  0.00  0.00    +0.307 C 
ATOM     23  O   LIG    1       27.280 -26.744   5.305  0.00  0.00    -0.251 OA
BRANCH  22  24
ATOM     24  O   LIG    1       25.415 -28.061   5.193  0.00  0.00    -0.463 OA
BRANCH  24  25
ATOM     25  C   LIG    1       25.186 -28.723   6.446  0.00  0.00    +0.247 C 
BRANCH  25  26
ATOM     26  C   LIG    1       24.209 -29.918   6.358  0.00  0.00    +0.125 C 
BRANCH  26  27
ATOM     27  N   LIG    1       24.735 -31.220   6.822  0.00  0.00    -0.295 NA
ATOM     28  C   LIG    1       23.756 -32.326   6.838  0.00  0.00    +0.112 C 
ATOM     29  C   LIG    1       23.437 -32.934   5.462  0.00  0.00    +0.175 C 
ATOM     30  O   LIG    1       24.629 -33.364   4.793  0.00  0.00    -0.377 OA
ATOM     31  C   LIG    1       25.527 -32.258   4.640  0.00  0.00    +0.175 C 
ATOM     32  C   LIG    1       25.899 -31.659   6.009  0.00  0.00    +0.112 C 
ENDBRANCH  26  27
ENDBRANCH  25  26
ENDBRANCH  24  25
ENDBRANCH  22  24
ENDBRANCH  21  22
ENDBRANCH  20  21
ENDBRANCH  18  20
ENDBRANCH   1  17
TORSDOF 11
ENDMDL
MODEL 4
REMARK VINA RESULT:      -8.4      1.958      2.630
REMARK  Name = *****
REMARK                            x       y       z     vdW  Elec       q    Type
REMARK                         _______ _______ _______ _____ _____    ______ ____
ROOT
ATOM      1  C   LIG    1       23.918 -22.216   7.561  0.00  0.00    +0.069 C 
ENDROOT
BRANCH   1   3
ATOM      2  C   LIG    1       24.813 -20.787   5.603  0.00  0.00    +0.130 A 
ATOM      3  C   LIG    1       25.015 -21.396   6.890  0.00  0.00    +0.040 A 
ATOM      4  C   LIG    1       26.239 -21.210   7.553  0.00  0.00    +0.138 A 
ATOM      5  C   LIG    1       27.206 -20.447   6.937  0.00  0.00    +0.107 A 
ATOM      6  C   LIG    1       28.540 -20.139   7.425  0.00  0.00    +0.344 C 
ATOM      7  O   LIG    1       29.146 -19.370   6.466  0.00  0.00    -0.456 OA
ATOM      8  C   LIG    1       28.277 -19.148   5.347  0.00  0.00    +0.269 C 
ATOM      9  O   LIG    1       28.998 -20.516   8.472  0.00  0.00    -0.245 OA
ATOM     10  C   LIG    1       27.029 -19.865   5.701  0.00  0.00    +0.014 A 
ATOM     11  C   LIG    1       25.841 -20.031   4.985  0.00  0.00    -0.001 A 
ATOM     12  C   LIG    1       25.757 -19.431   3.611  0.00  0.00    +0.048 C 
BRANCH   2  14
ATOM     13  C   LIG    1       22.525 -20.163   5.053  0.00  0.00    +0.277 C 
ATOM     14  O   LIG    1       23.593 -21.088   5.054  0.00  0.00    -0.494 OA
ENDBRANCH   2  14
BRANCH   4  15
ATOM     15  O   LIG    1       26.460 -21.781   8.775  0.00  0.00    -0.505 OA
ATOM     16  H   LIG    1       25.760 -22.449   8.948  0.00  0.00    +0.292 HD
ENDBRANCH   4  15
ENDBRANCH   1   3
BRANCH   1  17
ATOM     17  C   LIG    1       23.627 -23.519   6.863  0.00  0.00    -0.023 C 
ATOM     18  C   LIG    1       24.471 -24.528   6.573  0.00  0.00    -0.076 C 
ATOM     19  C   LIG    1       25.916 -24.567   6.985  0.00  0.00    +0.038 C 
BRANCH  18  20
ATOM     20  C   LIG    1       23.962 -25.728   5.800  0.00  0.00    +0.041 C 
BRANCH  20  21
ATOM     21  C   LIG    1       24.553 -27.060   6.272  0.00  0.00    +0.125 C 
BRANCH  21  22
ATOM     22  C   LIG    1       25.462 -27.689   5.236  0.00  0.00    +0.307 C 
ATOM     23  O   LIG    1       26.310 -27.075   4.604  0.00  0.00    -0.251 OA
BRANCH  22  24
ATOM     24  O   LIG    1       25.132 -28.987   5.029  0.00  0.00    -0.463 OA
BRANCH  24  25
ATOM     25  C   LIG    1       25.115 -29.873   6.158  0.00  0.00    +0.247 C 
BRANCH  25  26
ATOM     26  C   LIG    1       24.223 -31.122   5.966  0.00  0.00    +0.125 C 
BRANCH  26  27
ATOM     27  N   LIG    1       24.920 -32.426   5.997  0.00  0.00    -0.295 NA
ATOM     28  C   LIG    1       24.108 -33.584   5.567  0.00  0.00    +0.112 C 
ATOM     29  C   LIG    1       23.911 -33.715   4.048  0.00  0.00    +0.175 C 
ATOM     30  O   LIG    1       25.167 -33.732   3.360  0.00  0.00    -0.377 OA
ATOM     31  C   LIG    1       25.901 -32.537   3.654  0.00  0.00    +0.175 C 
ATOM     32  C   LIG    1       26.153 -32.406   5.167  0.00  0.00    +0.112 C 
ENDBRANCH  26  27
ENDBRANCH  25  26
ENDBRANCH  24  25
ENDBRANCH  22  24
ENDBRANCH  21  22
ENDBRANCH  20  21
ENDBRANCH  18  20
ENDBRANCH   1  17
TORSDOF 11
ENDMDL
MODEL 5
REMARK VINA RESULT:      -8.1      1.410      1.895
REMARK  Name = *****
REMARK                            x       y       z     vdW  Elec       q    Type
REMARK                         _______ _______ _______ _____ _____    ______ ____
ROOT
ATOM      1  C   LIG    1       23.728 -22.546   7.406  0.00  0.00    +0.069 C 
ENDROOT
BRANCH   1   3
ATOM      2  C   LIG    1       24.637 -21.000   5.545  0.00  0.00    +0.130 A 
ATOM      3  C   LIG    1       24.827 -21.681   6.798  0.00  0.00    +0.040 A 
ATOM      4  C   LIG    1       26.040 -21.525   7.487  0.00  0.00    +0.138 A 
ATOM      5  C   LIG    1       27.010 -20.721   6.929  0.00  0.00    +0.107 A 
ATOM      6  C   LIG    1       28.335 -20.433   7.453  0.00  0.00    +0.344 C 
ATOM      7  O   LIG    1       28.947 -19.605   6.548  0.00  0.00    -0.456 OA
ATOM      8  C   LIG    1       28.092 -19.325   5.431  0.00  0.00    +0.269 C 
ATOM      9  O   LIG    1       28.782 -20.867   8.482  0.00  0.00    -0.245 OA
ATOM     10  C   LIG    1       26.845 -20.070   5.727  0.00  0.00    +0.014 A 
ATOM     11  C   LIG    1       25.668 -20.202   4.986  0.00  0.00    -0.001 A 
ATOM     12  C   LIG    1       25.597 -19.524   3.648  0.00  0.00    +0.048 C 
BRANCH   2  14
ATOM     13  C   LIG    1       22.348 -20.364   5.009  0.00  0.00    +0.277 C 
ATOM     14  O   LIG    1       23.427 -21.277   4.963  0.00  0.00    -0.494 OA
ENDBRANCH   2  14
BRANCH   4  15
ATOM     15  O   LIG    1       26.250 -22.164   8.677  0.00  0.00    -0.505 OA
ATOM     16  H   LIG    1       26.584 -21.514   9.335  0.00  0.00    +0.292 HD
ENDBRANCH   4  15
ENDBRANCH   1   3
BRANCH   1  17
ATOM     17  C   LIG    1       23.517 -23.850   6.682  0.00  0.00    -0.023 C 
ATOM     18  C   LIG    1       24.400 -24.843   6.457  0.00  0.00    -0.076 C 
ATOM     19  C   LIG    1       25.807 -24.858   6.983  0.00  0.00    +0.038 C 
BRANCH  18  20
ATOM     20  C   LIG    1       23.977 -26.048   5.641  0.00  0.00    +0.041 C 
BRANCH  20  21
ATOM     21  C   LIG    1       25.147 -26.927   5.191  0.00  0.00    +0.125 C 
BRANCH  21  22
ATOM     22  C   LIG    1       25.057 -28.335   5.742  0.00  0.00    +0.307 C 
ATOM     23  O   LIG    1       25.285 -29.344   5.089  0.00  0.00    -0.251 OA
BRANCH  22  24
ATOM     24  O   LIG    1       24.587 -28.326   7.014  0.00  0.00    -0.463 OA
BRANCH  24  25
ATOM     25  C   LIG    1       25.437 -28.823   8.058  0.00  0.00    +0.247 C 
BRANCH  25  26
ATOM     26  C   LIG    1       24.817 -29.978   8.879  0.00  0.00    +0.125 C 
BRANCH  26  27
ATOM     27  N   LIG    1       25.757 -31.021   9.341  0.00  0.00    -0.295 NA
ATOM     28  C   LIG    1       27.123 -30.548   9.649  0.00  0.00    +0.112 C 
ATOM     29  C   LIG    1       27.270 -29.808  10.989  0.00  0.00    +0.175 C 
ATOM     30  O   LIG    1       26.785 -30.602  12.078  0.00  0.00    -0.377 OA
ATOM     31  C   LIG    1       25.410 -30.943  11.859  0.00  0.00    +0.175 C 
ATOM     32  C   LIG    1       25.242 -31.726  10.544  0.00  0.00    +0.112 C 
ENDBRANCH  26  27
ENDBRANCH  25  26
ENDBRANCH  24  25
ENDBRANCH  22  24
ENDBRANCH  21  22
ENDBRANCH  20  21
ENDBRANCH  18  20
ENDBRANCH   1  17
TORSDOF 11
ENDMDL
MODEL 6
REMARK VINA RESULT:      -7.9      1.277      1.819
REMARK  Name = *****
REMARK                            x       y       z     vdW  Elec       q    Type
REMARK                         _______ _______ _______ _____ _____    ______ ____
ROOT
ATOM      1  C   LIG    1       25.812 -22.624   7.682  0.00  0.00    +0.069 C 
ENDROOT
BRANCH   1   3
ATOM      2  C   LIG    1       25.988 -20.804   5.856  0.00  0.00    +0.130 A 
ATOM      3  C   LIG    1       26.574 -21.518   6.958  0.00  0.00    +0.040 A 
ATOM      4  C   LIG    1       27.863 -21.171   7.393  0.00  0.00    +0.138 A 
ATOM      5  C   LIG    1       28.522 -20.154   6.738  0.00  0.00    +0.107 A 
ATOM      6  C   LIG    1       29.857 -19.645   7.004  0.00  0.00    +0.344 C 
ATOM      7  O   LIG    1       30.092 -18.652   6.089  0.00  0.00    -0.456 OA
ATOM      8  C   LIG    1       28.971 -18.472   5.212  0.00  0.00    +0.269 C 
ATOM      9  O   LIG    1       30.594 -20.051   7.864  0.00  0.00    -0.245 OA
ATOM     10  C   LIG    1       27.977 -19.469   5.676  0.00  0.00    +0.014 A 
ATOM     11  C   LIG    1       26.707 -19.781   5.186  0.00  0.00    -0.001 A 
ATOM     12  C   LIG    1       26.216 -19.041   3.975  0.00  0.00    +0.048 C 
BRANCH   2  14
ATOM     13  C   LIG    1       23.567 -20.551   5.790  0.00  0.00    +0.277 C 
ATOM     14  O   LIG    1       24.748 -21.276   5.510  0.00  0.00    -0.494 OA
ENDBRANCH   2  14
BRANCH   4  15
ATOM     15  O   LIG    1       28.446 -21.836   8.436  0.00  0.00    -0.505 OA
ATOM     16  H   LIG    1       28.397 -22.803   8.266  0.00  0.00    +0.292 HD
ENDBRANCH   4  15
ENDBRANCH   1   3
BRANCH   1  17
ATOM     17  C   LIG    1       25.716 -23.905   6.894  0.00  0.00    -0.023 C 
ATOM     18  C   LIG    1       24.613 -24.573   6.503  0.00  0.00    -0.076 C 
ATOM     19  C   LIG    1       23.208 -24.094   6.730  0.00  0.00    +0.038 C 
BRANCH  18  20
ATOM     20  C   LIG    1       24.762 -25.889   5.765  0.00  0.00    +0.041 C 
BRANCH  20  21
ATOM     21  C   LIG    1       25.301 -27.026   6.640  0.00  0.00    +0.125 C 
BRANCH  21  22
ATOM     22  C   LIG    1       24.893 -28.392   6.127  0.00  0.00    +0.307 C 
ATOM     23  O   LIG    1       24.236 -28.577   5.113  0.00  0.00    -0.251 OA
BRANCH  22  24
ATOM     24  O   LIG    1       25.259 -29.363   7.000  0.00  0.00    -0.463 OA
BRANCH  24  25
ATOM     25  C   LIG    1       25.393 -29.017   8.387  0.00  0.00    +0.247 C 
BRANCH  25  26
ATOM     26  C   LIG    1       24.832 -30.081   9.358  0.00  0.00    +0.125 C 
BRANCH  26  27
ATOM     27  N   LIG    1       25.803 -30.665  10.309  0.00  0.00    -0.295 NA
ATOM     28  C   LIG    1       25.336 -31.871  11.025  0.00  0.00    +0.112 C 
ATOM     29  C   LIG    1       25.353 -33.167  10.197  0.00  0.00    +0.175 C 
ATOM     30  O   LIG    1       26.650 -33.414   9.643  0.00  0.00    -0.377 OA
ATOM     31  C   LIG    1       27.049 -32.309   8.823  0.00  0.00    +0.175 C 
ATOM     32  C   LIG    1       27.085 -31.004   9.640  0.00  0.00    +0.112 C 
ENDBRANCH  26  27
ENDBRANCH  25  26
ENDBRANCH  24  25
ENDBRANCH  22  24
ENDBRANCH  21  22
ENDBRANCH  20  21
ENDBRANCH  18  20
ENDBRANCH   1  17
TORSDOF 11
ENDMDL
MODEL 7
REMARK VINA RESULT:      -7.7      3.432      9.809
REMARK  Name = *****
REMARK                            x       y       z     vdW  Elec       q    Type
REMARK                         _______ _______ _______ _____ _____    ______ ____
ROOT
ATOM      1  C   LIG    1       25.143 -29.655   6.834  0.00  0.00    +0.069 C 
ENDROOT
BRANCH   1   3
ATOM      2  C   LIG    1       24.063 -30.722   8.925  0.00  0.00    +0.130 A 
ATOM      3  C   LIG    1       25.047 -29.848   8.344  0.00  0.00    +0.040 A 
ATOM      4  C   LIG    1       25.953 -29.180   9.183  0.00  0.00    +0.138 A 
ATOM      5  C   LIG    1       25.860 -29.388  10.542  0.00  0.00    +0.107 A 
ATOM      6  C   LIG    1       26.674 -28.794  11.589  0.00  0.00    +0.344 C 
ATOM      7  O   LIG    1       26.203 -29.279  12.781  0.00  0.00    -0.456 OA
ATOM      8  C   LIG    1       25.100 -30.175  12.582  0.00  0.00    +0.269 C 
ATOM      9  O   LIG    1       27.574 -28.016  11.408  0.00  0.00    -0.245 OA
ATOM     10  C   LIG    1       24.918 -30.215  11.112  0.00  0.00    +0.014 A 
ATOM     11  C   LIG    1       23.978 -30.891  10.331  0.00  0.00    -0.001 A 
ATOM     12  C   LIG    1       22.935 -31.710  11.034  0.00  0.00    +0.048 C 
BRANCH   2  14
ATOM     13  C   LIG    1       23.377 -32.597   7.531  0.00  0.00    +0.277 C 
ATOM     14  O   LIG    1       23.219 -31.271   7.995  0.00  0.00    -0.494 OA
ENDBRANCH   2  14
BRANCH   4  15
ATOM     15  O   LIG    1       26.895 -28.341   8.658  0.00  0.00    -0.505 OA
ATOM     16  H   LIG    1       27.718 -28.851   8.485  0.00  0.00    +0.292 HD
ENDBRANCH   4  15
ENDBRANCH   1   3
BRANCH   1  17
ATOM     17  C   LIG    1       24.468 -28.400   6.342  0.00  0.00    -0.023 C 
ATOM     18  C   LIG    1       25.014 -27.336   5.722  0.00  0.00    -0.076 C 
ATOM     19  C   LIG    1       26.459 -27.240   5.321  0.00  0.00    +0.038 C 
BRANCH  18  20
ATOM     20  C   LIG    1       24.141 -26.148   5.373  0.00  0.00    +0.041 C 
BRANCH  20  21
ATOM     21  C   LIG    1       24.771 -24.797   5.726  0.00  0.00    +0.125 C 
BRANCH  21  22
ATOM     22  C   LIG    1       23.936 -24.011   6.716  0.00  0.00    +0.307 C 
ATOM     23  O   LIG    1       22.722 -24.107   6.817  0.00  0.00    -0.251 OA
BRANCH  22  24
ATOM     24  O   LIG    1       24.701 -23.116   7.388  0.00  0.00    -0.463 OA
BRANCH  24  25
ATOM     25  C   LIG    1       24.289 -21.742   7.401  0.00  0.00    +0.247 C 
BRANCH  25  26
ATOM     26  C   LIG    1       24.769 -20.928   6.177  0.00  0.00    +0.125 C 
BRANCH  26  27
ATOM     27  N   LIG    1       24.016 -21.140   4.923  0.00  0.00    -0.295 NA
ATOM     28  C   LIG    1       22.594 -20.736   4.966  0.00  0.00    +0.112 C 
ATOM     29  C   LIG    1       22.343 -19.222   4.872  0.00  0.00    +0.175 C 
ATOM     30  O   LIG    1       22.962 -18.663   3.708  0.00  0.00    -0.377 OA
ATOM     31  C   LIG    1       24.372 -18.921   3.732  0.00  0.00    +0.175 C 
ATOM     32  C   LIG    1       24.651 -20.435   3.779  0.00  0.00    +0.112 C 
ENDBRANCH  26  27
ENDBRANCH  25  26
ENDBRANCH  24  25
ENDBRANCH  22  24
ENDBRANCH  21  22
ENDBRANCH  20  21
ENDBRANCH  18  20
ENDBRANCH   1  17
TORSDOF 11
ENDMDL
MODEL 8
REMARK VINA RESULT:      -7.6      2.545      9.686
REMARK  Name = *****
REMARK                            x       y       z     vdW  Elec       q    Type
REMARK                         _______ _______ _______ _____ _____    ______ ____
ROOT
ATOM      1  C   LIG    1       25.070 -28.601   6.390  0.00  0.00    +0.069 C 
ENDROOT
BRANCH   1   3
ATOM      2  C   LIG    1       24.351 -30.600   7.861  0.00  0.00    +0.130 A 
ATOM      3  C   LIG    1       25.166 -29.432   7.666  0.00  0.00    +0.040 A 
ATOM      4  C   LIG    1       26.088 -29.064   8.659  0.00  0.00    +0.138 A 
ATOM      5  C   LIG    1       26.173 -29.842   9.792  0.00  0.00    +0.107 A 
ATOM      6  C   LIG    1       27.035 -29.642  10.945  0.00  0.00    +0.344 C 
ATOM      7  O   LIG    1       26.756 -30.652  11.829  0.00  0.00    -0.456 OA
ATOM      8  C   LIG    1       25.736 -31.524  11.322  0.00  0.00    +0.269 C 
ATOM      9  O   LIG    1       27.824 -28.742  11.072  0.00  0.00    -0.245 OA
ATOM     10  C   LIG    1       25.393 -30.958   9.996  0.00  0.00    +0.014 A 
ATOM     11  C   LIG    1       24.445 -31.363   9.054  0.00  0.00    -0.001 A 
ATOM     12  C   LIG    1       23.579 -32.543   9.386  0.00  0.00    +0.048 C 
BRANCH   2  14
ATOM     13  C   LIG    1       23.618 -31.891   5.931  0.00  0.00    +0.277 C 
ATOM     14  O   LIG    1       23.467 -30.814   6.835  0.00  0.00    -0.494 OA
ENDBRANCH   2  14
BRANCH   4  15
ATOM     15  O   LIG    1       26.873 -27.956   8.501  0.00  0.00    -0.505 OA
ATOM     16  H   LIG    1       26.318 -27.215   8.170  0.00  0.00    +0.292 HD
ENDBRANCH   4  15
ENDBRANCH   1   3
BRANCH   1  17
ATOM     17  C   LIG    1       24.414 -27.259   6.593  0.00  0.00    -0.023 C 
ATOM     18  C   LIG    1       24.628 -26.107   5.928  0.00  0.00    -0.076 C 
ATOM     19  C   LIG    1       25.554 -25.967   4.754  0.00  0.00    +0.038 C 
BRANCH  18  20
ATOM     20  C   LIG    1       23.889 -24.853   6.353  0.00  0.00    +0.041 C 
BRANCH  20  21
ATOM     21  C   LIG    1       24.808 -23.752   6.891  0.00  0.00    +0.125 C 
BRANCH  21  22
ATOM     22  C   LIG    1       24.688 -22.463   6.103  0.00  0.00    +0.307 C 
ATOM     23  O   LIG    1       24.703 -22.402   4.882  0.00  0.00    -0.251 OA
BRANCH  22  24
ATOM     24  O   LIG    1       24.674 -21.391   6.932  0.00  0.00    -0.463 OA
BRANCH  24  25
ATOM     25  C   LIG    1       25.625 -21.348   8.006  0.00  0.00    +0.247 C 
BRANCH  25  26
ATOM     26  C   LIG    1       26.835 -20.423   7.742  0.00  0.00    +0.125 C 
BRANCH  26  27
ATOM     27  N   LIG    1       27.857 -20.944   6.808  0.00  0.00    -0.295 NA
ATOM     28  C   LIG    1       28.272 -20.008   5.742  0.00  0.00    +0.112 C 
ATOM     29  C   LIG    1       29.234 -18.895   6.190  0.00  0.00    +0.175 C 
ATOM     30  O   LIG    1       30.396 -19.437   6.827  0.00  0.00    -0.377 OA
ATOM     31  C   LIG    1       30.010 -20.229   7.957  0.00  0.00    +0.175 C 
ATOM     32  C   LIG    1       29.081 -21.380   7.528  0.00  0.00    +0.112 C 
ENDBRANCH  26  27
ENDBRANCH  25  26
ENDBRANCH  24  25
ENDBRANCH  22  24
ENDBRANCH  21  22
ENDBRANCH  20  21
ENDBRANCH  18  20
ENDBRANCH   1  17
TORSDOF 11
ENDMDL
MODEL 9
REMARK VINA RESULT:      -7.5      3.099      9.331
REMARK  Name = *****
REMARK                            x       y       z     vdW  Elec       q    Type
REMARK                         _______ _______ _______ _____ _____    ______ ____
ROOT
ATOM      1  C   LIG    1       24.531 -30.732   8.268  0.00  0.00    +0.069 C 
ENDROOT
BRANCH   1   3
ATOM      2  C   LIG    1       23.806 -29.943  10.619  0.00  0.00    +0.130 A 
ATOM      3  C   LIG    1       24.847 -30.191   9.658  0.00  0.00    +0.040 A 
ATOM      4  C   LIG    1       26.183 -29.955  10.017  0.00  0.00    +0.138 A 
ATOM      5  C   LIG    1       26.446 -29.487  11.286  0.00  0.00    +0.107 A 
ATOM      6  C   LIG    1       27.740 -29.159  11.862  0.00  0.00    +0.344 C 
ATOM      7  O   LIG    1       27.505 -28.715  13.137  0.00  0.00    -0.456 OA
ATOM      8  C   LIG    1       26.104 -28.724  13.445  0.00  0.00    +0.269 C 
ATOM      9  O   LIG    1       28.796 -29.258  11.294  0.00  0.00    -0.245 OA
ATOM     10  C   LIG    1       25.459 -29.237  12.213  0.00  0.00    +0.014 A 
ATOM     11  C   LIG    1       24.110 -29.434  11.908  0.00  0.00    -0.001 A 
ATOM     12  C   LIG    1       23.091 -29.063  12.945  0.00  0.00    +0.048 C 
BRANCH   2  14
ATOM     13  C   LIG    1       21.826 -31.347  10.430  0.00  0.00    +0.277 C 
ATOM     14  O   LIG    1       22.550 -30.174  10.120  0.00  0.00    -0.494 OA
ENDBRANCH   2  14
BRANCH   4  15
ATOM     15  O   LIG    1       27.192 -30.178   9.123  0.00  0.00    -0.505 OA
ATOM     16  H   LIG    1       27.752 -30.918   9.449  0.00  0.00    +0.292 HD
ENDBRANCH   4  15
ENDBRANCH   1   3
BRANCH   1  17
ATOM     17  C   LIG    1       24.405 -29.659   7.217  0.00  0.00    -0.023 C 
ATOM     18  C   LIG    1       24.863 -29.661   5.950  0.00  0.00    -0.076 C 
ATOM     19  C   LIG    1       25.553 -30.827   5.302  0.00  0.00    +0.038 C 
BRANCH  18  20
ATOM     20  C   LIG    1       24.672 -28.430   5.086  0.00  0.00    +0.041 C 
BRANCH  20  21
ATOM     21  C   LIG    1       24.688 -27.117   5.875  0.00  0.00    +0.125 C 
BRANCH  21  22
ATOM     22  C   LIG    1       25.844 -26.220   5.480  0.00  0.00    +0.307 C 
ATOM     23  O   LIG    1       27.001 -26.598   5.375  0.00  0.00    -0.251 OA
BRANCH  22  24
ATOM     24  O   LIG    1       25.437 -24.932   5.368  0.00  0.00    -0.463 OA
BRANCH  24  25
ATOM     25  C   LIG    1       25.581 -24.071   6.507  0.00  0.00    +0.247 C 
BRANCH  25  26
ATOM     26  C   LIG    1       24.339 -23.196   6.797  0.00  0.00    +0.125 C 
BRANCH  26  27
ATOM     27  N   LIG    1       24.606 -21.776   7.112  0.00  0.00    -0.295 NA
ATOM     28  C   LIG    1       25.587 -21.109   6.230  0.00  0.00    +0.112 C 
ATOM     29  C   LIG    1       25.053 -20.711   4.844  0.00  0.00    +0.175 C 
ATOM     30  O   LIG    1       23.879 -19.897   4.953  0.00  0.00    -0.377 OA
ATOM     31  C   LIG    1       22.864 -20.599   5.682  0.00  0.00    +0.175 C 
ATOM     32  C   LIG    1       23.359 -20.969   7.093  0.00  0.00    +0.112 C 
ENDBRANCH  26  27
ENDBRANCH  25  26
ENDBRANCH  24  25
ENDBRANCH  22  24
ENDBRANCH  21  22
ENDBRANCH  20  21
ENDBRANCH  18  20
ENDBRANCH   1  17
TORSDOF 11
ENDMDL
