MODEL 1
REMARK VINA RESULT:      -5.7      0.000      0.000
REMARK  Name = *****
REMARK                            x       y       z     vdW  Elec       q    Type
REMARK                         _______ _______ _______ _____ _____    ______ ____
ROOT
ATOM      1  C   LIG    1       26.852 -17.647   3.436  0.00  0.00    +0.158 C 
ENDROOT
BRANCH   1   2
ATOM      2  C   LIG    1       26.475 -16.185   3.649  0.00  0.00    -0.017 A 
ATOM      3  C   LIG    1       27.464 -15.207   3.852  0.00  0.00    +0.023 A 
ATOM      4  C   LIG    1       27.141 -13.867   4.131  0.00  0.00    +0.078 A 
ATOM      5  C   LIG    1       25.792 -13.491   4.177  0.00  0.00    +0.129 A 
ATOM      6  C   LIG    1       24.793 -14.441   3.955  0.00  0.00    +0.046 A 
ATOM      7  C   LIG    1       25.132 -15.775   3.694  0.00  0.00    +0.010 A 
BRANCH   4   8
ATOM      8  C   LIG    1       28.280 -12.937   4.375  0.00  0.00    +0.245 C 
ATOM      9  O   LIG    1       29.213 -12.840   3.574  0.00  0.00    -0.270 OA
ATOM     10  N   LIG    1       28.264 -12.189   5.508  0.00  0.00    -0.325 N 
ATOM     11  H   LIG    1       29.023 -11.551   5.695  0.00  0.00    +0.145 HD
ATOM     12  H   LIG    1       27.480 -12.248   6.151  0.00  0.00    +0.145 HD
ENDBRANCH   4   8
BRANCH   5  13
ATOM     13  O   LIG    1       25.430 -12.194   4.434  0.00  0.00    -0.506 OA
ATOM     14  H   LIG    1       25.367 -11.708   3.594  0.00  0.00    +0.292 HD
ENDBRANCH   5  13
ENDBRANCH   1   2
BRANCH   1  15
ATOM     15  O   LIG    1       25.660 -18.419   3.247  0.00  0.00    -0.386 OA
ATOM     16  H   LIG    1       25.307 -18.214   2.365  0.00  0.00    +0.210 HD
ENDBRANCH   1  15
BRANCH   1  17
ATOM     17  C   LIG    1       27.669 -18.242   4.616  0.00  0.00    +0.117 C 
BRANCH  17  18
ATOM     18  N   LIG    1       27.367 -19.667   4.874  0.00  0.00    -0.311 NA
ATOM     19  H   LIG    1       26.387 -19.833   4.624  0.00  0.00    +0.122 HD
BRANCH  18  21
ATOM     20  C   LIG    1       29.082 -19.996   6.661  0.00  0.00    +0.024 C 
ATOM     21  C   LIG    1       27.600 -20.071   6.272  0.00  0.00    +0.051 C 
BRANCH  21  22
ATOM     22  C   LIG    1       27.033 -21.487   6.546  0.00  0.00    +0.023 C 
BRANCH  22  23
ATOM     23  C   LIG    1       25.585 -21.524   7.060  0.00  0.00    +0.036 C 
BRANCH  23  24
ATOM     24  C   LIG    1       24.577 -21.077   6.019  0.00  0.00    -0.047 A 
ATOM     25  C   LIG    1       23.585 -20.143   6.348  0.00  0.00    +0.003 A 
ATOM     26  C   LIG    1       22.646 -19.734   5.398  0.00  0.00    +0.000 A 
ATOM     27  C   LIG    1       22.690 -20.251   4.105  0.00  0.00    +0.000 A 
ATOM     28  C   LIG    1       23.684 -21.164   3.758  0.00  0.00    +0.000 A 
ATOM     29  C   LIG    1       24.626 -21.569   4.706  0.00  0.00    +0.003 A 
ENDBRANCH  23  24
ENDBRANCH  22  23
ENDBRANCH  21  22
ENDBRANCH  18  21
ENDBRANCH  17  18
ENDBRANCH   1  17
TORSDOF 10
ENDMDL
MODEL 2
REMARK VINA RESULT:      -5.6      2.135      3.930
REMARK  Name = *****
REMARK                            x       y       z     vdW  Elec       q    Type
REMARK                         _______ _______ _______ _____ _____    ______ ____
ROOT
ATOM      1  C   LIG    1       22.709 -15.864   4.427  0.00  0.00    +0.158 C 
ENDROOT
BRANCH   1   2
ATOM      2  C   LIG    1       23.776 -14.921   3.882  0.00  0.00    -0.017 A 
ATOM      3  C   LIG    1       25.143 -15.214   4.034  0.00  0.00    +0.023 A 
ATOM      4  C   LIG    1       26.147 -14.323   3.612  0.00  0.00    +0.078 A 
ATOM      5  C   LIG    1       25.771 -13.122   2.995  0.00  0.00    +0.129 A 
ATOM      6  C   LIG    1       24.420 -12.822   2.813  0.00  0.00    +0.046 A 
ATOM      7  C   LIG    1       23.432 -13.713   3.253  0.00  0.00    +0.010 A 
BRANCH   4   8
ATOM      8  C   LIG    1       27.558 -14.727   3.874  0.00  0.00    +0.245 C 
ATOM      9  O   LIG    1       28.462 -13.891   3.943  0.00  0.00    -0.270 OA
ATOM     10  N   LIG    1       27.825 -16.048   4.038  0.00  0.00    -0.325 N 
ATOM     11  H   LIG    1       28.772 -16.346   4.217  0.00  0.00    +0.145 HD
ATOM     12  H   LIG    1       27.074 -16.731   4.011  0.00  0.00    +0.145 HD
ENDBRANCH   4   8
BRANCH   5  13
ATOM     13  O   LIG    1       26.715 -12.229   2.559  0.00  0.00    -0.506 OA
ATOM     14  H   LIG    1       27.600 -12.569   2.776  0.00  0.00    +0.292 HD
ENDBRANCH   5  13
ENDBRANCH   1   2
BRANCH   1  15
ATOM     15  O   LIG    1       22.351 -15.457   5.754  0.00  0.00    -0.386 OA
ATOM     16  H   LIG    1       23.000 -14.798   6.050  0.00  0.00    +0.210 HD
ENDBRANCH   1  15
BRANCH   1  17
ATOM     17  C   LIG    1       23.165 -17.350   4.450  0.00  0.00    +0.117 C 
BRANCH  17  18
ATOM     18  N   LIG    1       22.037 -18.306   4.421  0.00  0.00    -0.311 NA
ATOM     19  H   LIG    1       21.367 -18.028   5.144  0.00  0.00    +0.122 HD
BRANCH  18  21
ATOM     20  C   LIG    1       21.289 -20.689   4.444  0.00  0.00    +0.024 C 
ATOM     21  C   LIG    1       22.449 -19.705   4.636  0.00  0.00    +0.051 C 
BRANCH  21  22
ATOM     22  C   LIG    1       23.096 -19.887   6.033  0.00  0.00    +0.023 C 
BRANCH  22  23
ATOM     23  C   LIG    1       23.948 -21.157   6.198  0.00  0.00    +0.036 C 
BRANCH  23  24
ATOM     24  C   LIG    1       25.437 -20.878   6.161  0.00  0.00    -0.047 A 
ATOM     25  C   LIG    1       26.300 -21.517   7.062  0.00  0.00    +0.003 A 
ATOM     26  C   LIG    1       27.673 -21.258   7.041  0.00  0.00    +0.000 A 
ATOM     27  C   LIG    1       28.200 -20.358   6.117  0.00  0.00    +0.000 A 
ATOM     28  C   LIG    1       27.357 -19.732   5.201  0.00  0.00    +0.000 A 
ATOM     29  C   LIG    1       25.985 -19.995   5.218  0.00  0.00    +0.003 A 
ENDBRANCH  23  24
ENDBRANCH  22  23
ENDBRANCH  21  22
ENDBRANCH  18  21
ENDBRANCH  17  18
ENDBRANCH   1  17
TORSDOF 10
ENDMDL
MODEL 3
REMARK VINA RESULT:      -5.4      1.681      2.508
REMARK  Name = *****
REMARK                            x       y       z     vdW  Elec       q    Type
REMARK                         _______ _______ _______ _____ _____    ______ ____
ROOT
ATOM      1  C   LIG    1       27.593 -17.010   3.652  0.00  0.00    +0.158 C 
ENDROOT
BRANCH   1   2
ATOM      2  C   LIG    1       27.005 -15.673   4.090  0.00  0.00    -0.017 A 
ATOM      3  C   LIG    1       25.730 -15.270   3.657  0.00  0.00    +0.023 A 
ATOM      4  C   LIG    1       25.198 -14.009   3.980  0.00  0.00    +0.078 A 
ATOM      5  C   LIG    1       25.950 -13.141   4.783  0.00  0.00    +0.129 A 
ATOM      6  C   LIG    1       27.210 -13.531   5.244  0.00  0.00    +0.046 A 
ATOM      7  C   LIG    1       27.732 -14.785   4.900  0.00  0.00    +0.010 A 
BRANCH   4   8
ATOM      8  C   LIG    1       23.856 -13.680   3.420  0.00  0.00    +0.245 C 
ATOM      9  O   LIG    1       22.891 -14.432   3.581  0.00  0.00    -0.270 OA
ATOM     10  N   LIG    1       23.718 -12.522   2.725  0.00  0.00    -0.325 N 
ATOM     11  H   LIG    1       22.820 -12.277   2.336  0.00  0.00    +0.145 HD
ATOM     12  H   LIG    1       24.507 -11.890   2.619  0.00  0.00    +0.145 HD
ENDBRANCH   4   8
BRANCH   5  13
ATOM     13  O   LIG    1       25.468 -11.907   5.133  0.00  0.00    -0.506 OA
ATOM     14  H   LIG    1       24.512 -11.876   4.953  0.00  0.00    +0.292 HD
ENDBRANCH   5  13
ENDBRANCH   1   2
BRANCH   1  15
ATOM     15  O   LIG    1       26.541 -17.853   3.167  0.00  0.00    -0.386 OA
ATOM     16  H   LIG    1       26.509 -17.765   2.200  0.00  0.00    +0.210 HD
ENDBRANCH   1  15
BRANCH   1  17
ATOM     17  C   LIG    1       28.355 -17.741   4.792  0.00  0.00    +0.117 C 
BRANCH  17  18
ATOM     18  N   LIG    1       27.970 -19.163   4.933  0.00  0.00    -0.311 NA
ATOM     19  H   LIG    1       27.009 -19.265   4.592  0.00  0.00    +0.122 HD
BRANCH  18  21
ATOM     20  C   LIG    1       29.310 -20.526   6.540  0.00  0.00    +0.024 C 
ATOM     21  C   LIG    1       28.064 -19.661   6.316  0.00  0.00    +0.051 C 
BRANCH  21  22
ATOM     22  C   LIG    1       26.782 -20.435   6.718  0.00  0.00    +0.023 C 
BRANCH  22  23
ATOM     23  C   LIG    1       26.043 -21.122   5.558  0.00  0.00    +0.036 C 
BRANCH  23  24
ATOM     24  C   LIG    1       24.726 -20.455   5.219  0.00  0.00    -0.047 A 
ATOM     25  C   LIG    1       24.551 -19.820   3.981  0.00  0.00    +0.003 A 
ATOM     26  C   LIG    1       23.343 -19.194   3.664  0.00  0.00    +0.000 A 
ATOM     27  C   LIG    1       22.293 -19.197   4.580  0.00  0.00    +0.000 A 
ATOM     28  C   LIG    1       22.445 -19.843   5.805  0.00  0.00    +0.000 A 
ATOM     29  C   LIG    1       23.651 -20.473   6.120  0.00  0.00    +0.003 A 
ENDBRANCH  23  24
ENDBRANCH  22  23
ENDBRANCH  21  22
ENDBRANCH  18  21
ENDBRANCH  17  18
ENDBRANCH   1  17
TORSDOF 10
ENDMDL
MODEL 4
REMARK VINA RESULT:      -5.0      2.857      6.913
REMARK  Name = *****
REMARK                            x       y       z     vdW  Elec       q    Type
REMARK                         _______ _______ _______ _____ _____    ______ ____
ROOT
ATOM      1  C   LIG    1       23.116 -20.174   4.790  0.00  0.00    +0.158 C 
ENDROOT
BRANCH   1   2
ATOM      2  C   LIG    1       24.486 -20.372   5.430  0.00  0.00    -0.017 A 
ATOM      3  C   LIG    1       25.591 -19.605   5.021  0.00  0.00    +0.023 A 
ATOM      4  C   LIG    1       26.881 -19.823   5.537  0.00  0.00    +0.078 A 
ATOM      5  C   LIG    1       27.062 -20.814   6.511  0.00  0.00    +0.129 A 
ATOM      6  C   LIG    1       25.974 -21.572   6.950  0.00  0.00    +0.046 A 
ATOM      7  C   LIG    1       24.698 -21.352   6.413  0.00  0.00    +0.010 A 
BRANCH   4   8
ATOM      8  C   LIG    1       27.978 -18.977   4.987  0.00  0.00    +0.245 C 
ATOM      9  O   LIG    1       29.162 -19.225   5.227  0.00  0.00    -0.270 OA
ATOM     10  N   LIG    1       27.640 -17.920   4.205  0.00  0.00    -0.325 N 
ATOM     11  H   LIG    1       28.365 -17.333   3.820  0.00  0.00    +0.145 HD
ATOM     12  H   LIG    1       26.666 -17.736   3.983  0.00  0.00    +0.145 HD
ENDBRANCH   4   8
BRANCH   5  13
ATOM     13  O   LIG    1       28.299 -21.055   7.051  0.00  0.00    -0.506 OA
ATOM     14  H   LIG    1       28.263 -21.871   7.579  0.00  0.00    +0.292 HD
ENDBRANCH   5  13
ENDBRANCH   1   2
BRANCH   1  15
ATOM     15  O   LIG    1       22.845 -21.268   3.905  0.00  0.00    -0.386 OA
ATOM     16  H   LIG    1       23.495 -21.966   4.085  0.00  0.00    +0.210 HD
ENDBRANCH   1  15
BRANCH   1  17
ATOM     17  C   LIG    1       22.999 -18.836   4.007  0.00  0.00    +0.117 C 
BRANCH  17  18
ATOM     18  N   LIG    1       22.069 -17.872   4.635  0.00  0.00    -0.311 NA
ATOM     19  H   LIG    1       21.353 -17.627   3.943  0.00  0.00    +0.122 HD
BRANCH  18  21
ATOM     20  C   LIG    1       21.767 -15.722   5.868  0.00  0.00    +0.024 C 
ATOM     21  C   LIG    1       22.732 -16.649   5.119  0.00  0.00    +0.051 C 
BRANCH  21  22
ATOM     22  C   LIG    1       23.426 -15.893   3.958  0.00  0.00    +0.023 C 
BRANCH  22  23
ATOM     23  C   LIG    1       23.794 -14.430   4.258  0.00  0.00    +0.036 C 
BRANCH  23  24
ATOM     24  C   LIG    1       25.270 -14.142   4.069  0.00  0.00    -0.047 A 
ATOM     25  C   LIG    1       25.869 -14.306   2.812  0.00  0.00    +0.003 A 
ATOM     26  C   LIG    1       27.231 -14.052   2.632  0.00  0.00    +0.000 A 
ATOM     27  C   LIG    1       28.011 -13.628   3.706  0.00  0.00    +0.000 A 
ATOM     28  C   LIG    1       27.425 -13.440   4.956  0.00  0.00    +0.000 A 
ATOM     29  C   LIG    1       26.062 -13.689   5.135  0.00  0.00    +0.003 A 
ENDBRANCH  23  24
ENDBRANCH  22  23
ENDBRANCH  21  22
ENDBRANCH  18  21
ENDBRANCH  17  18
ENDBRANCH   1  17
TORSDOF 10
ENDMDL
MODEL 5
REMARK VINA RESULT:      -4.2      1.938      2.919
REMARK  Name = *****
REMARK                            x       y       z     vdW  Elec       q    Type
REMARK                         _______ _______ _______ _____ _____    ______ ____
ROOT
ATOM      1  C   LIG    1       27.301 -15.396   4.313  0.00  0.00    +0.158 C 
ENDROOT
BRANCH   1   2
ATOM      2  C   LIG    1       26.324 -14.338   3.812  0.00  0.00    -0.017 A 
ATOM      3  C   LIG    1       25.638 -13.505   4.713  0.00  0.00    +0.023 A 
ATOM      4  C   LIG    1       24.673 -12.577   4.282  0.00  0.00    +0.078 A 
ATOM      5  C   LIG    1       24.410 -12.460   2.910  0.00  0.00    +0.129 A 
ATOM      6  C   LIG    1       25.097 -13.260   1.996  0.00  0.00    +0.046 A 
ATOM      7  C   LIG    1       26.045 -14.191   2.443  0.00  0.00    +0.010 A 
BRANCH   4   8
ATOM      8  C   LIG    1       23.980 -11.787   5.339  0.00  0.00    +0.245 C 
ATOM      9  O   LIG    1       22.800 -11.449   5.219  0.00  0.00    -0.270 OA
ATOM     10  N   LIG    1       24.684 -11.448   6.450  0.00  0.00    -0.325 N 
ATOM     11  H   LIG    1       24.237 -10.914   7.180  0.00  0.00    +0.145 HD
ATOM     12  H   LIG    1       25.647 -11.754   6.561  0.00  0.00    +0.145 HD
ENDBRANCH   4   8
BRANCH   5  13
ATOM     13  O   LIG    1       23.486 -11.561   2.444  0.00  0.00    -0.506 OA
ATOM     14  H   LIG    1       23.839 -10.660   2.542  0.00  0.00    +0.292 HD
ENDBRANCH   5  13
ENDBRANCH   1   2
BRANCH   1  15
ATOM     15  O   LIG    1       28.628 -15.048   3.899  0.00  0.00    -0.386 OA
ATOM     16  H   LIG    1       29.253 -15.526   4.468  0.00  0.00    +0.210 HD
ENDBRANCH   1  15
BRANCH   1  17
ATOM     17  C   LIG    1       26.962 -16.825   3.806  0.00  0.00    +0.117 C 
BRANCH  17  18
ATOM     18  N   LIG    1       28.061 -17.794   4.013  0.00  0.00    -0.311 NA
ATOM     19  H   LIG    1       27.969 -18.532   3.307  0.00  0.00    +0.122 HD
BRANCH  18  21
ATOM     20  C   LIG    1       29.464 -18.360   6.000  0.00  0.00    +0.024 C 
ATOM     21  C   LIG    1       28.070 -18.391   5.360  0.00  0.00    +0.051 C 
BRANCH  21  22
ATOM     22  C   LIG    1       27.513 -19.837   5.333  0.00  0.00    +0.023 C 
BRANCH  22  23
ATOM     23  C   LIG    1       26.510 -20.129   4.204  0.00  0.00    +0.036 C 
BRANCH  23  24
ATOM     24  C   LIG    1       25.070 -19.904   4.620  0.00  0.00    -0.047 A 
ATOM     25  C   LIG    1       24.199 -19.178   3.796  0.00  0.00    +0.003 A 
ATOM     26  C   LIG    1       22.873 -18.957   4.177  0.00  0.00    +0.000 A 
ATOM     27  C   LIG    1       22.400 -19.463   5.386  0.00  0.00    +0.000 A 
ATOM     28  C   LIG    1       23.249 -20.206   6.205  0.00  0.00    +0.000 A 
ATOM     29  C   LIG    1       24.573 -20.431   5.822  0.00  0.00    +0.003 A 
ENDBRANCH  23  24
ENDBRANCH  22  23
ENDBRANCH  21  22
ENDBRANCH  18  21
ENDBRANCH  17  18
ENDBRANCH   1  17
TORSDOF 10
ENDMDL
MODEL 6
REMARK VINA RESULT:      -3.7      2.224      4.100
REMARK  Name = *****
REMARK                            x       y       z     vdW  Elec       q    Type
REMARK                         _______ _______ _______ _____ _____    ______ ____
ROOT
ATOM      1  C   LIG    1       23.554 -14.667   4.074  0.00  0.00    +0.158 C 
ENDROOT
BRANCH   1   2
ATOM      2  C   LIG    1       25.017 -14.355   3.781  0.00  0.00    -0.017 A 
ATOM      3  C   LIG    1       25.879 -13.916   4.801  0.00  0.00    +0.023 A 
ATOM      4  C   LIG    1       27.211 -13.544   4.542  0.00  0.00    +0.078 A 
ATOM      5  C   LIG    1       27.700 -13.646   3.233  0.00  0.00    +0.129 A 
ATOM      6  C   LIG    1       26.868 -14.103   2.209  0.00  0.00    +0.046 A 
ATOM      7  C   LIG    1       25.539 -14.454   2.481  0.00  0.00    +0.010 A 
BRANCH   4   8
ATOM      8  C   LIG    1       28.008 -13.048   5.700  0.00  0.00    +0.245 C 
ATOM      9  O   LIG    1       27.910 -13.564   6.816  0.00  0.00    -0.270 OA
ATOM     10  N   LIG    1       28.856 -12.008   5.494  0.00  0.00    -0.325 N 
ATOM     11  H   LIG    1       29.408 -11.655   6.261  0.00  0.00    +0.145 HD
ATOM     12  H   LIG    1       28.959 -11.605   4.567  0.00  0.00    +0.145 HD
ENDBRANCH   4   8
BRANCH   5  13
ATOM     13  O   LIG    1       28.994 -13.306   2.936  0.00  0.00    -0.506 OA
ATOM     14  H   LIG    1       29.503 -13.233   3.762  0.00  0.00    +0.292 HD
ENDBRANCH   5  13
ENDBRANCH   1   2
BRANCH   1  15
ATOM     15  O   LIG    1       22.973 -13.574   4.797  0.00  0.00    -0.386 OA
ATOM     16  H   LIG    1       22.135 -13.881   5.180  0.00  0.00    +0.210 HD
ENDBRANCH   1  15
BRANCH   1  17
ATOM     17  C   LIG    1       23.362 -15.980   4.884  0.00  0.00    +0.117 C 
BRANCH  17  18
ATOM     18  N   LIG    1       22.045 -16.615   4.662  0.00  0.00    -0.311 NA
ATOM     19  H   LIG    1       21.550 -16.638   5.559  0.00  0.00    +0.122 HD
BRANCH  18  21
ATOM     20  C   LIG    1       21.001 -18.286   3.127  0.00  0.00    +0.024 C 
ATOM     21  C   LIG    1       22.137 -17.978   4.110  0.00  0.00    +0.051 C 
BRANCH  21  22
ATOM     22  C   LIG    1       22.182 -19.037   5.242  0.00  0.00    +0.023 C 
BRANCH  22  23
ATOM     23  C   LIG    1       22.898 -20.349   4.880  0.00  0.00    +0.036 C 
BRANCH  23  24
ATOM     24  C   LIG    1       24.329 -20.398   5.378  0.00  0.00    -0.047 A 
ATOM     25  C   LIG    1       25.365 -19.846   4.611  0.00  0.00    +0.003 A 
ATOM     26  C   LIG    1       26.688 -19.896   5.058  0.00  0.00    +0.000 A 
ATOM     27  C   LIG    1       26.991 -20.495   6.279  0.00  0.00    +0.000 A 
ATOM     28  C   LIG    1       25.968 -21.028   7.062  0.00  0.00    +0.000 A 
ATOM     29  C   LIG    1       24.645 -20.973   6.617  0.00  0.00    +0.003 A 
ENDBRANCH  23  24
ENDBRANCH  22  23
ENDBRANCH  21  22
ENDBRANCH  18  21
ENDBRANCH  17  18
ENDBRANCH   1  17
TORSDOF 10
ENDMDL
MODEL 7
REMARK VINA RESULT:      -3.3      2.687      7.073
REMARK  Name = *****
REMARK                            x       y       z     vdW  Elec       q    Type
REMARK                         _______ _______ _______ _____ _____    ______ ____
ROOT
ATOM      1  C   LIG    1       26.791 -17.953   3.501  0.00  0.00    +0.158 C 
ENDROOT
BRANCH   1   2
ATOM      2  C   LIG    1       25.574 -18.814   3.820  0.00  0.00    -0.017 A 
ATOM      3  C   LIG    1       24.281 -18.261   3.826  0.00  0.00    +0.023 A 
ATOM      4  C   LIG    1       23.151 -19.013   4.195  0.00  0.00    +0.078 A 
ATOM      5  C   LIG    1       23.317 -20.362   4.536  0.00  0.00    +0.129 A 
ATOM      6  C   LIG    1       24.589 -20.938   4.514  0.00  0.00    +0.046 A 
ATOM      7  C   LIG    1       25.706 -20.170   4.160  0.00  0.00    +0.010 A 
BRANCH   4   8
ATOM      8  C   LIG    1       21.843 -18.298   4.209  0.00  0.00    +0.245 C 
ATOM      9  O   LIG    1       20.832 -18.800   3.710  0.00  0.00    -0.270 OA
ATOM     10  N   LIG    1       21.788 -17.073   4.791  0.00  0.00    -0.325 N 
ATOM     11  H   LIG    1       20.914 -16.570   4.814  0.00  0.00    +0.145 HD
ATOM     12  H   LIG    1       22.615 -16.675   5.228  0.00  0.00    +0.145 HD
ENDBRANCH   4   8
BRANCH   5  13
ATOM     13  O   LIG    1       22.243 -21.136   4.892  0.00  0.00    -0.506 OA
ATOM     14  H   LIG    1       21.531 -20.561   5.222  0.00  0.00    +0.292 HD
ENDBRANCH   5  13
ENDBRANCH   1   2
BRANCH   1  15
ATOM     15  O   LIG    1       27.812 -18.199   4.476  0.00  0.00    -0.386 OA
ATOM     16  H   LIG    1       28.439 -18.837   4.099  0.00  0.00    +0.210 HD
ENDBRANCH   1  15
BRANCH   1  17
ATOM     17  C   LIG    1       26.469 -16.433   3.465  0.00  0.00    +0.117 C 
BRANCH  17  18
ATOM     18  N   LIG    1       27.573 -15.590   3.973  0.00  0.00    -0.311 NA
ATOM     19  H   LIG    1       27.336 -15.300   4.928  0.00  0.00    +0.122 HD
BRANCH  18  21
ATOM     20  C   LIG    1       28.004 -13.130   3.983  0.00  0.00    +0.024 C 
ATOM     21  C   LIG    1       27.833 -14.402   3.142  0.00  0.00    +0.051 C 
BRANCH  21  22
ATOM     22  C   LIG    1       26.721 -14.209   2.080  0.00  0.00    +0.023 C 
BRANCH  22  23
ATOM     23  C   LIG    1       25.935 -12.892   2.188  0.00  0.00    +0.036 C 
BRANCH  23  24
ATOM     24  C   LIG    1       24.942 -12.890   3.333  0.00  0.00    -0.047 A 
ATOM     25  C   LIG    1       24.548 -11.682   3.927  0.00  0.00    +0.003 A 
ATOM     26  C   LIG    1       23.641 -11.672   4.990  0.00  0.00    +0.000 A 
ATOM     27  C   LIG    1       23.114 -12.869   5.470  0.00  0.00    +0.000 A 
ATOM     28  C   LIG    1       23.480 -14.075   4.876  0.00  0.00    +0.000 A 
ATOM     29  C   LIG    1       24.382 -14.085   3.810  0.00  0.00    +0.003 A 
ENDBRANCH  23  24
ENDBRANCH  22  23
ENDBRANCH  21  22
ENDBRANCH  18  21
ENDBRANCH  17  18
ENDBRANCH   1  17
TORSDOF 10
ENDMDL
MODEL 8
REMARK VINA RESULT:      -3.3      3.401      7.991
REMARK  Name = *****
REMARK                            x       y       z     vdW  Elec       q    Type
REMARK                         _______ _______ _______ _____ _____    ______ ____
ROOT
ATOM      1  C   LIG    1       23.259 -15.605   4.752  0.00  0.00    +0.158 C 
ENDROOT
BRANCH   1   2
ATOM      2  C   LIG    1       23.590 -17.029   4.319  0.00  0.00    -0.017 A 
ATOM      3  C   LIG    1       22.729 -18.096   4.630  0.00  0.00    +0.023 A 
ATOM      4  C   LIG    1       23.050 -19.428   4.312  0.00  0.00    +0.078 A 
ATOM      5  C   LIG    1       24.249 -19.694   3.638  0.00  0.00    +0.129 A 
ATOM      6  C   LIG    1       25.108 -18.647   3.298  0.00  0.00    +0.046 A 
ATOM      7  C   LIG    1       24.781 -17.327   3.636  0.00  0.00    +0.010 A 
BRANCH   4   8
ATOM      8  C   LIG    1       22.078 -20.475   4.739  0.00  0.00    +0.245 C 
ATOM      9  O   LIG    1       20.903 -20.451   4.364  0.00  0.00    -0.270 OA
ATOM     10  N   LIG    1       22.521 -21.465   5.556  0.00  0.00    -0.325 N 
ATOM     11  H   LIG    1       21.882 -22.185   5.858  0.00  0.00    +0.145 HD
ATOM     12  H   LIG    1       23.496 -21.499   5.839  0.00  0.00    +0.145 HD
ENDBRANCH   4   8
BRANCH   5  13
ATOM     13  O   LIG    1       24.598 -20.976   3.299  0.00  0.00    -0.506 OA
ATOM     14  H   LIG    1       25.544 -21.000   3.074  0.00  0.00    +0.292 HD
ENDBRANCH   5  13
ENDBRANCH   1   2
BRANCH   1  15
ATOM     15  O   LIG    1       21.965 -15.587   5.367  0.00  0.00    -0.386 OA
ATOM     16  H   LIG    1       21.736 -14.662   5.556  0.00  0.00    +0.210 HD
ENDBRANCH   1  15
BRANCH   1  17
ATOM     17  C   LIG    1       23.284 -14.590   3.576  0.00  0.00    +0.117 C 
BRANCH  17  18
ATOM     18  N   LIG    1       23.750 -13.244   3.976  0.00  0.00    -0.311 NA
ATOM     19  H   LIG    1       22.925 -12.655   4.123  0.00  0.00    +0.122 HD
BRANCH  18  21
ATOM     20  C   LIG    1       23.966 -11.448   2.255  0.00  0.00    +0.024 C 
ATOM     21  C   LIG    1       24.642 -12.614   2.987  0.00  0.00    +0.051 C 
BRANCH  21  22
ATOM     22  C   LIG    1       25.178 -13.658   1.974  0.00  0.00    +0.023 C 
BRANCH  22  23
ATOM     23  C   LIG    1       26.396 -14.466   2.452  0.00  0.00    +0.036 C 
BRANCH  23  24
ATOM     24  C   LIG    1       27.170 -13.770   3.554  0.00  0.00    -0.047 A 
ATOM     25  C   LIG    1       26.807 -13.948   4.897  0.00  0.00    +0.003 A 
ATOM     26  C   LIG    1       27.510 -13.303   5.918  0.00  0.00    +0.000 A 
ATOM     27  C   LIG    1       28.587 -12.474   5.609  0.00  0.00    +0.000 A 
ATOM     28  C   LIG    1       28.972 -12.306   4.281  0.00  0.00    +0.000 A 
ATOM     29  C   LIG    1       28.273 -12.955   3.261  0.00  0.00    +0.003 A 
ENDBRANCH  23  24
ENDBRANCH  22  23
ENDBRANCH  21  22
ENDBRANCH  18  21
ENDBRANCH  17  18
ENDBRANCH   1  17
TORSDOF 10
ENDMDL
MODEL 9
REMARK VINA RESULT:      -3.1      2.389      6.992
REMARK  Name = *****
REMARK                            x       y       z     vdW  Elec       q    Type
REMARK                         _______ _______ _______ _____ _____    ______ ____
ROOT
ATOM      1  C   LIG    1       27.893 -18.202   4.055  0.00  0.00    +0.158 C 
ENDROOT
BRANCH   1   2
ATOM      2  C   LIG    1       26.965 -19.141   4.818  0.00  0.00    -0.017 A 
ATOM      3  C   LIG    1       25.624 -19.301   4.430  0.00  0.00    +0.023 A 
ATOM      4  C   LIG    1       24.727 -20.098   5.164  0.00  0.00    +0.078 A 
ATOM      5  C   LIG    1       25.194 -20.776   6.298  0.00  0.00    +0.129 A 
ATOM      6  C   LIG    1       26.529 -20.649   6.688  0.00  0.00    +0.046 A 
ATOM      7  C   LIG    1       27.406 -19.838   5.954  0.00  0.00    +0.010 A 
BRANCH   4   8
ATOM      8  C   LIG    1       23.318 -20.149   4.678  0.00  0.00    +0.245 C 
ATOM      9  O   LIG    1       22.785 -19.168   4.152  0.00  0.00    -0.270 OA
ATOM     10  N   LIG    1       22.632 -21.311   4.825  0.00  0.00    -0.325 N 
ATOM     11  H   LIG    1       21.678 -21.371   4.503  0.00  0.00    +0.145 HD
ATOM     12  H   LIG    1       23.084 -22.126   5.230  0.00  0.00    +0.145 HD
ENDBRANCH   4   8
BRANCH   5  13
ATOM     13  O   LIG    1       24.359 -21.572   7.038  0.00  0.00    -0.506 OA
ATOM     14  H   LIG    1       24.847 -22.360   7.331  0.00  0.00    +0.292 HD
ENDBRANCH   5  13
ENDBRANCH   1   2
BRANCH   1  15
ATOM     15  O   LIG    1       29.077 -17.974   4.829  0.00  0.00    -0.386 OA
ATOM     16  H   LIG    1       29.815 -18.424   4.387  0.00  0.00    +0.210 HD
ENDBRANCH   1  15
BRANCH   1  17
ATOM     17  C   LIG    1       27.231 -16.838   3.713  0.00  0.00    +0.117 C 
BRANCH  17  18
ATOM     18  N   LIG    1       27.795 -15.707   4.482  0.00  0.00    -0.311 NA
ATOM     19  H   LIG    1       27.144 -15.485   5.242  0.00  0.00    +0.122 HD
BRANCH  18  21
ATOM     20  C   LIG    1       27.955 -13.214   4.491  0.00  0.00    +0.024 C 
ATOM     21  C   LIG    1       28.034 -14.504   3.665  0.00  0.00    +0.051 C 
BRANCH  21  22
ATOM     22  C   LIG    1       27.060 -14.444   2.461  0.00  0.00    +0.023 C 
BRANCH  22  23
ATOM     23  C   LIG    1       26.011 -13.321   2.526  0.00  0.00    +0.036 C 
BRANCH  23  24
ATOM     24  C   LIG    1       24.928 -13.582   3.553  0.00  0.00    -0.047 A 
ATOM     25  C   LIG    1       24.361 -14.859   3.676  0.00  0.00    +0.003 A 
ATOM     26  C   LIG    1       23.355 -15.106   4.614  0.00  0.00    +0.000 A 
ATOM     27  C   LIG    1       22.905 -14.080   5.442  0.00  0.00    +0.000 A 
ATOM     28  C   LIG    1       23.475 -12.812   5.346  0.00  0.00    +0.000 A 
ATOM     29  C   LIG    1       24.484 -12.566   4.412  0.00  0.00    +0.003 A 
ENDBRANCH  23  24
ENDBRANCH  22  23
ENDBRANCH  21  22
ENDBRANCH  18  21
ENDBRANCH  17  18
ENDBRANCH   1  17
TORSDOF 10
ENDMDL
