MODEL 1
REMARK VINA RESULT:      -8.5      0.000      0.000
REMARK  Name = *****
REMARK                            x       y       z     vdW  Elec       q    Type
REMARK                         _______ _______ _______ _____ _____    ______ ____
ROOT
ATOM      1  C   LIG    1       26.736 -20.553   6.174  0.00  0.00    +0.229 C 
ENDROOT
BRANCH   1   2
ATOM      2  O   LIG    1       26.139 -21.130   7.354  0.00  0.00    -0.492 OA
BRANCH   2   6
ATOM      3  C   LIG    1       25.816 -26.031   6.555  0.00  0.00    +0.044 C 
ATOM      4  C   LIG    1       25.163 -24.693   6.735  0.00  0.00    -0.047 A 
ATOM      5  C   LIG    1       25.943 -23.565   7.051  0.00  0.00    +0.049 A 
ATOM      6  C   LIG    1       25.383 -22.280   7.163  0.00  0.00    +0.124 A 
ATOM      7  C   LIG    1       23.979 -22.162   7.050  0.00  0.00    -0.009 A 
ATOM      8  C   LIG    1       23.235 -20.860   7.169  0.00  0.00    +0.048 C 
ATOM      9  C   LIG    1       23.202 -23.303   6.752  0.00  0.00    +0.007 A 
ATOM     10  C   LIG    1       23.786 -24.554   6.588  0.00  0.00    +0.004 A 
ENDBRANCH   2   6
ENDBRANCH   1   2
BRANCH   1  11
ATOM     11  C   LIG    1       28.139 -19.939   6.404  0.00  0.00    +0.042 C 
BRANCH  11  12
ATOM     12  C   LIG    1       28.676 -19.952   7.856  0.00  0.00    +0.021 C 
BRANCH  12  13
ATOM     13  C   LIG    1       30.156 -19.457   8.047  0.00  0.00    +0.062 C 
ATOM     14  C   LIG    1       30.209 -18.123   8.818  0.00  0.00    +0.022 C 
ATOM     15  C   LIG    1       30.852 -19.268   6.686  0.00  0.00    +0.022 C 
BRANCH  13  16
ATOM     16  C   LIG    1       30.971 -20.525   8.807  0.00  0.00    +0.310 C 
ATOM     17  O   LIG    1       32.103 -20.403   9.219  0.00  0.00    -0.250 OA
BRANCH  16  18
ATOM     18  O   LIG    1       30.289 -21.666   9.064  0.00  0.00    -0.480 OA
ATOM     19  H   LIG    1       30.874 -22.390   8.757  0.00  0.00    +0.295 HD
ENDBRANCH  16  18
ENDBRANCH  13  16
ENDBRANCH  12  13
ENDBRANCH  11  12
ENDBRANCH   1  11
TORSDOF 7
ENDMDL
MODEL 2
REMARK VINA RESULT:      -8.1      1.135      2.622
REMARK  Name = *****
REMARK                            x       y       z     vdW  Elec       q    Type
REMARK                         _______ _______ _______ _____ _____    ______ ____
ROOT
ATOM      1  C   LIG    1       27.568 -20.055   5.757  0.00  0.00    +0.229 C 
ENDROOT
BRANCH   1   2
ATOM      2  O   LIG    1       26.995 -21.186   6.443  0.00  0.00    -0.492 OA
BRANCH   2   6
ATOM      3  C   LIG    1       22.496 -19.484   5.170  0.00  0.00    +0.044 C 
ATOM      4  C   LIG    1       23.374 -20.575   5.707  0.00  0.00    -0.047 A 
ATOM      5  C   LIG    1       24.770 -20.405   5.735  0.00  0.00    +0.049 A 
ATOM      6  C   LIG    1       25.627 -21.373   6.290  0.00  0.00    +0.124 A 
ATOM      7  C   LIG    1       25.051 -22.585   6.733  0.00  0.00    -0.009 A 
ATOM      8  C   LIG    1       25.838 -23.720   7.327  0.00  0.00    +0.048 C 
ATOM      9  C   LIG    1       23.650 -22.754   6.683  0.00  0.00    +0.007 A 
ATOM     10  C   LIG    1       22.818 -21.758   6.183  0.00  0.00    +0.004 A 
ENDBRANCH   2   6
ENDBRANCH   1   2
BRANCH   1  11
ATOM     11  C   LIG    1       28.939 -19.597   6.314  0.00  0.00    +0.042 C 
BRANCH  11  12
ATOM     12  C   LIG    1       29.096 -19.585   7.855  0.00  0.00    +0.021 C 
BRANCH  12  13
ATOM     13  C   LIG    1       30.564 -19.429   8.396  0.00  0.00    +0.062 C 
ATOM     14  C   LIG    1       30.642 -18.374   9.517  0.00  0.00    +0.022 C 
ATOM     15  C   LIG    1       31.526 -19.018   7.265  0.00  0.00    +0.022 C 
BRANCH  13  16
ATOM     16  C   LIG    1       31.072 -20.786   8.926  0.00  0.00    +0.310 C 
ATOM     17  O   LIG    1       32.204 -21.040   9.276  0.00  0.00    -0.250 OA
BRANCH  16  18
ATOM     18  O   LIG    1       30.110 -21.731   9.049  0.00  0.00    -0.480 OA
ATOM     19  H   LIG    1       29.574 -21.453   9.820  0.00  0.00    +0.295 HD
ENDBRANCH  16  18
ENDBRANCH  13  16
ENDBRANCH  12  13
ENDBRANCH  11  12
ENDBRANCH   1  11
TORSDOF 7
ENDMDL
MODEL 3
REMARK VINA RESULT:      -7.8      2.058      3.445
REMARK  Name = *****
REMARK                            x       y       z     vdW  Elec       q    Type
REMARK                         _______ _______ _______ _____ _____    ______ ____
ROOT
ATOM      1  C   LIG    1       26.432 -21.800   7.730  0.00  0.00    +0.229 C 
ENDROOT
BRANCH   1   2
ATOM      2  O   LIG    1       25.836 -22.403   6.563  0.00  0.00    -0.492 OA
BRANCH   2   6
ATOM      3  C   LIG    1       24.831 -18.604   3.511  0.00  0.00    +0.044 C 
ATOM      4  C   LIG    1       24.370 -19.734   4.382  0.00  0.00    -0.047 A 
ATOM      5  C   LIG    1       25.312 -20.589   4.984  0.00  0.00    +0.049 A 
ATOM      6  C   LIG    1       24.929 -21.620   5.860  0.00  0.00    +0.124 A 
ATOM      7  C   LIG    1       23.547 -21.847   6.045  0.00  0.00    -0.009 A 
ATOM      8  C   LIG    1       22.984 -22.925   6.931  0.00  0.00    +0.048 C 
ATOM      9  C   LIG    1       22.608 -20.996   5.421  0.00  0.00    +0.007 A 
ATOM     10  C   LIG    1       23.013 -19.946   4.605  0.00  0.00    +0.004 A 
ENDBRANCH   2   6
ENDBRANCH   1   2
BRANCH   1  11
ATOM     11  C   LIG    1       27.941 -21.478   7.582  0.00  0.00    +0.042 C 
BRANCH  11  12
ATOM     12  C   LIG    1       28.336 -19.981   7.583  0.00  0.00    +0.021 C 
BRANCH  12  13
ATOM     13  C   LIG    1       29.828 -19.664   7.966  0.00  0.00    +0.062 C 
ATOM     14  C   LIG    1       30.527 -20.895   8.574  0.00  0.00    +0.022 C 
ATOM     15  C   LIG    1       29.900 -18.506   8.979  0.00  0.00    +0.022 C 
BRANCH  13  16
ATOM     16  C   LIG    1       30.600 -19.195   6.715  0.00  0.00    +0.310 C 
ATOM     17  O   LIG    1       30.181 -18.460   5.848  0.00  0.00    -0.250 OA
BRANCH  16  18
ATOM     18  O   LIG    1       31.882 -19.627   6.659  0.00  0.00    -0.480 OA
ATOM     19  H   LIG    1       32.220 -19.550   7.575  0.00  0.00    +0.295 HD
ENDBRANCH  16  18
ENDBRANCH  13  16
ENDBRANCH  12  13
ENDBRANCH  11  12
ENDBRANCH   1  11
TORSDOF 7
ENDMDL
MODEL 4
REMARK VINA RESULT:      -7.8      1.237      1.626
REMARK  Name = *****
REMARK                            x       y       z     vdW  Elec       q    Type
REMARK                         _______ _______ _______ _____ _____    ______ ____
ROOT
ATOM      1  C   LIG    1       26.986 -21.235   8.007  0.00  0.00    +0.229 C 
ENDROOT
BRANCH   1   2
ATOM      2  O   LIG    1       25.975 -21.342   6.984  0.00  0.00    -0.492 OA
BRANCH   2   6
ATOM      3  C   LIG    1       26.093 -26.273   6.331  0.00  0.00    +0.044 C 
ATOM      4  C   LIG    1       25.323 -25.002   6.529  0.00  0.00    -0.047 A 
ATOM      5  C   LIG    1       26.006 -23.792   6.756  0.00  0.00    +0.049 A 
ATOM      6  C   LIG    1       25.328 -22.567   6.881  0.00  0.00    +0.124 A 
ATOM      7  C   LIG    1       23.915 -22.592   6.877  0.00  0.00    -0.009 A 
ATOM      8  C   LIG    1       23.053 -21.369   7.024  0.00  0.00    +0.048 C 
ATOM      9  C   LIG    1       23.238 -23.814   6.669  0.00  0.00    +0.007 A 
ATOM     10  C   LIG    1       23.932 -25.005   6.489  0.00  0.00    +0.004 A 
ENDBRANCH   2   6
ENDBRANCH   1   2
BRANCH   1  11
ATOM     11  C   LIG    1       28.388 -20.836   7.480  0.00  0.00    +0.042 C 
BRANCH  11  12
ATOM     12  C   LIG    1       29.012 -19.548   8.069  0.00  0.00    +0.021 C 
BRANCH  12  13
ATOM     13  C   LIG    1       30.573 -19.566   8.262  0.00  0.00    +0.062 C 
ATOM     14  C   LIG    1       31.307 -19.270   6.939  0.00  0.00    +0.022 C 
ATOM     15  C   LIG    1       31.045 -20.932   8.793  0.00  0.00    +0.022 C 
BRANCH  13  16
ATOM     16  C   LIG    1       30.980 -18.523   9.324  0.00  0.00    +0.310 C 
ATOM     17  O   LIG    1       32.002 -18.525   9.975  0.00  0.00    -0.250 OA
BRANCH  16  18
ATOM     18  O   LIG    1       30.106 -17.498   9.461  0.00  0.00    -0.480 OA
ATOM     19  H   LIG    1       30.661 -16.708   9.627  0.00  0.00    +0.295 HD
ENDBRANCH  16  18
ENDBRANCH  13  16
ENDBRANCH  12  13
ENDBRANCH  11  12
ENDBRANCH   1  11
TORSDOF 7
ENDMDL
MODEL 5
REMARK VINA RESULT:      -7.6      1.714      2.621
REMARK  Name = *****
REMARK                            x       y       z     vdW  Elec       q    Type
REMARK                         _______ _______ _______ _____ _____    ______ ____
ROOT
ATOM      1  C   LIG    1       27.296 -20.832   6.445  0.00  0.00    +0.229 C 
ENDROOT
BRANCH   1   2
ATOM      2  O   LIG    1       26.502 -20.223   5.406  0.00  0.00    -0.492 OA
BRANCH   2   6
ATOM      3  C   LIG    1       22.666 -22.994   6.944  0.00  0.00    +0.044 C 
ATOM      4  C   LIG    1       23.213 -21.868   6.118  0.00  0.00    -0.047 A 
ATOM      5  C   LIG    1       24.572 -21.516   6.220  0.00  0.00    +0.049 A 
ATOM      6  C   LIG    1       25.143 -20.513   5.417  0.00  0.00    +0.124 A 
ATOM      7  C   LIG    1       24.285 -19.784   4.563  0.00  0.00    -0.009 A 
ATOM      8  C   LIG    1       24.743 -18.669   3.664  0.00  0.00    +0.048 C 
ATOM      9  C   LIG    1       22.918 -20.132   4.482  0.00  0.00    +0.007 A 
ATOM     10  C   LIG    1       22.388 -21.168   5.244  0.00  0.00    +0.004 A 
ENDBRANCH   2   6
ENDBRANCH   1   2
BRANCH   1  11
ATOM     11  C   LIG    1       28.709 -20.219   6.610  0.00  0.00    +0.042 C 
BRANCH  11  12
ATOM     12  C   LIG    1       28.997 -19.481   7.940  0.00  0.00    +0.021 C 
BRANCH  12  13
ATOM     13  C   LIG    1       30.507 -19.406   8.373  0.00  0.00    +0.062 C 
ATOM     14  C   LIG    1       30.746 -18.274   9.391  0.00  0.00    +0.022 C 
ATOM     15  C   LIG    1       31.417 -19.173   7.153  0.00  0.00    +0.022 C 
BRANCH  13  16
ATOM     16  C   LIG    1       30.941 -20.754   8.987  0.00  0.00    +0.310 C 
ATOM     17  O   LIG    1       30.247 -21.738   9.119  0.00  0.00    -0.250 OA
BRANCH  16  18
ATOM     18  O   LIG    1       32.247 -20.808   9.342  0.00  0.00    -0.480 OA
ATOM     19  H   LIG    1       32.259 -20.623  10.304  0.00  0.00    +0.295 HD
ENDBRANCH  16  18
ENDBRANCH  13  16
ENDBRANCH  12  13
ENDBRANCH  11  12
ENDBRANCH   1  11
TORSDOF 7
ENDMDL
MODEL 6
REMARK VINA RESULT:      -7.6      3.795      7.245
REMARK  Name = *****
REMARK                            x       y       z     vdW  Elec       q    Type
REMARK                         _______ _______ _______ _____ _____    ______ ____
ROOT
ATOM      1  C   LIG    1       23.248 -23.285   6.875  0.00  0.00    +0.229 C 
ENDROOT
BRANCH   1   2
ATOM      2  O   LIG    1       23.728 -21.994   7.301  0.00  0.00    -0.492 OA
BRANCH   2   6
ATOM      3  C   LIG    1       21.793 -18.780   4.031  0.00  0.00    +0.044 C 
ATOM      4  C   LIG    1       22.981 -19.455   4.650  0.00  0.00    -0.047 A 
ATOM      5  C   LIG    1       22.806 -20.329   5.739  0.00  0.00    +0.049 A 
ATOM      6  C   LIG    1       23.882 -21.034   6.308  0.00  0.00    +0.124 A 
ATOM      7  C   LIG    1       25.180 -20.762   5.819  0.00  0.00    -0.009 A 
ATOM      8  C   LIG    1       26.428 -21.418   6.342  0.00  0.00    +0.048 C 
ATOM      9  C   LIG    1       25.347 -19.868   4.739  0.00  0.00    +0.007 A 
ATOM     10  C   LIG    1       24.260 -19.227   4.154  0.00  0.00    +0.004 A 
ENDBRANCH   2   6
ENDBRANCH   1   2
BRANCH   1  11
ATOM     11  C   LIG    1       24.367 -24.304   6.540  0.00  0.00    +0.042 C 
BRANCH  11  12
ATOM     12  C   LIG    1       23.913 -25.704   6.058  0.00  0.00    +0.021 C 
BRANCH  12  13
ATOM     13  C   LIG    1       25.029 -26.810   6.009  0.00  0.00    +0.062 C 
ATOM     14  C   LIG    1       26.073 -26.606   7.125  0.00  0.00    +0.022 C 
ATOM     15  C   LIG    1       25.753 -26.800   4.649  0.00  0.00    +0.022 C 
BRANCH  13  16
ATOM     16  C   LIG    1       24.387 -28.206   6.150  0.00  0.00    +0.310 C 
ATOM     17  O   LIG    1       24.401 -28.904   7.140  0.00  0.00    -0.250 OA
BRANCH  16  18
ATOM     18  O   LIG    1       23.708 -28.619   5.054  0.00  0.00    -0.480 OA
ATOM     19  H   LIG    1       22.786 -28.749   5.358  0.00  0.00    +0.295 HD
ENDBRANCH  16  18
ENDBRANCH  13  16
ENDBRANCH  12  13
ENDBRANCH  11  12
ENDBRANCH   1  11
TORSDOF 7
ENDMDL
MODEL 7
REMARK VINA RESULT:      -7.5      3.176      6.239
REMARK  Name = *****
REMARK                            x       y       z     vdW  Elec       q    Type
REMARK                         _______ _______ _______ _____ _____    ______ ____
ROOT
ATOM      1  C   LIG    1       23.070 -22.044   7.508  0.00  0.00    +0.229 C 
ENDROOT
BRANCH   1   2
ATOM      2  O   LIG    1       23.427 -20.720   7.061  0.00  0.00    -0.492 OA
BRANCH   2   6
ATOM      3  C   LIG    1       28.348 -20.501   7.770  0.00  0.00    +0.044 C 
ATOM      4  C   LIG    1       27.155 -20.410   6.865  0.00  0.00    -0.047 A 
ATOM      5  C   LIG    1       25.870 -20.698   7.362  0.00  0.00    +0.049 A 
ATOM      6  C   LIG    1       24.717 -20.561   6.570  0.00  0.00    +0.124 A 
ATOM      7  C   LIG    1       24.890 -20.221   5.209  0.00  0.00    -0.009 A 
ATOM      8  C   LIG    1       23.757 -20.062   4.233  0.00  0.00    +0.048 C 
ATOM      9  C   LIG    1       26.185 -19.953   4.714  0.00  0.00    +0.007 A 
ATOM     10  C   LIG    1       27.306 -20.038   5.533  0.00  0.00    +0.004 A 
ENDBRANCH   2   6
ENDBRANCH   1   2
BRANCH   1  11
ATOM     11  C   LIG    1       22.949 -23.091   6.372  0.00  0.00    +0.042 C 
BRANCH  11  12
ATOM     12  C   LIG    1       23.374 -24.540   6.712  0.00  0.00    +0.021 C 
BRANCH  12  13
ATOM     13  C   LIG    1       24.793 -24.980   6.196  0.00  0.00    +0.062 C 
ATOM     14  C   LIG    1       25.920 -24.281   6.983  0.00  0.00    +0.022 C 
ATOM     15  C   LIG    1       24.960 -24.652   4.700  0.00  0.00    +0.022 C 
BRANCH  13  16
ATOM     16  C   LIG    1       24.945 -26.510   6.325  0.00  0.00    +0.310 C 
ATOM     17  O   LIG    1       25.873 -27.097   6.836  0.00  0.00    -0.250 OA
BRANCH  16  18
ATOM     18  O   LIG    1       23.886 -27.215   5.861  0.00  0.00    -0.480 OA
ATOM     19  H   LIG    1       23.994 -28.115   6.233  0.00  0.00    +0.295 HD
ENDBRANCH  16  18
ENDBRANCH  13  16
ENDBRANCH  12  13
ENDBRANCH  11  12
ENDBRANCH   1  11
TORSDOF 7
ENDMDL
MODEL 8
REMARK VINA RESULT:      -7.5      2.090      6.641
REMARK  Name = *****
REMARK                            x       y       z     vdW  Elec       q    Type
REMARK                         _______ _______ _______ _____ _____    ______ ____
ROOT
ATOM      1  C   LIG    1       26.267 -20.480   7.593  0.00  0.00    +0.229 C 
ENDROOT
BRANCH   1   2
ATOM      2  O   LIG    1       27.244 -20.529   6.533  0.00  0.00    -0.492 OA
BRANCH   2   6
ATOM      3  C   LIG    1       31.090 -21.953   9.351  0.00  0.00    +0.044 C 
ATOM      4  C   LIG    1       30.502 -21.054   8.303  0.00  0.00    -0.047 A 
ATOM      5  C   LIG    1       29.189 -21.271   7.846  0.00  0.00    +0.049 A 
ATOM      6  C   LIG    1       28.574 -20.416   6.914  0.00  0.00    +0.124 A 
ATOM      7  C   LIG    1       29.355 -19.375   6.362  0.00  0.00    -0.009 A 
ATOM      8  C   LIG    1       28.845 -18.396   5.340  0.00  0.00    +0.048 C 
ATOM      9  C   LIG    1       30.678 -19.177   6.813  0.00  0.00    +0.007 A 
ATOM     10  C   LIG    1       31.245 -20.001   7.779  0.00  0.00    +0.004 A 
ENDBRANCH   2   6
ENDBRANCH   1   2
BRANCH   1  11
ATOM     11  C   LIG    1       25.748 -21.867   8.049  0.00  0.00    +0.042 C 
BRANCH  11  12
ATOM     12  C   LIG    1       25.904 -23.034   7.043  0.00  0.00    +0.021 C 
BRANCH  12  13
ATOM     13  C   LIG    1       24.671 -23.304   6.106  0.00  0.00    +0.062 C 
ATOM     14  C   LIG    1       24.655 -22.339   4.904  0.00  0.00    +0.022 C 
ATOM     15  C   LIG    1       23.348 -23.150   6.880  0.00  0.00    +0.022 C 
BRANCH  13  16
ATOM     16  C   LIG    1       24.710 -24.761   5.598  0.00  0.00    +0.310 C 
ATOM     17  O   LIG    1       25.630 -25.291   5.014  0.00  0.00    -0.250 OA
BRANCH  16  18
ATOM     18  O   LIG    1       23.613 -25.489   5.912  0.00  0.00    -0.480 OA
ATOM     19  H   LIG    1       23.617 -26.242   5.286  0.00  0.00    +0.295 HD
ENDBRANCH  16  18
ENDBRANCH  13  16
ENDBRANCH  12  13
ENDBRANCH  11  12
ENDBRANCH   1  11
TORSDOF 7
ENDMDL
MODEL 9
REMARK VINA RESULT:      -7.5      2.644      6.702
REMARK  Name = *****
REMARK                            x       y       z     vdW  Elec       q    Type
REMARK                         _______ _______ _______ _____ _____    ______ ____
ROOT
ATOM      1  C   LIG    1       26.247 -20.414   7.473  0.00  0.00    +0.229 C 
ENDROOT
BRANCH   1   2
ATOM      2  O   LIG    1       27.262 -20.587   6.463  0.00  0.00    -0.492 OA
BRANCH   2   6
ATOM      3  C   LIG    1       31.040 -21.973   9.391  0.00  0.00    +0.044 C 
ATOM      4  C   LIG    1       30.472 -21.078   8.329  0.00  0.00    -0.047 A 
ATOM      5  C   LIG    1       29.177 -21.310   7.831  0.00  0.00    +0.049 A 
ATOM      6  C   LIG    1       28.579 -20.458   6.885  0.00  0.00    +0.124 A 
ATOM      7  C   LIG    1       29.362 -19.405   6.361  0.00  0.00    -0.009 A 
ATOM      8  C   LIG    1       28.871 -18.428   5.328  0.00  0.00    +0.048 C 
ATOM      9  C   LIG    1       30.669 -19.192   6.853  0.00  0.00    +0.007 A 
ATOM     10  C   LIG    1       31.217 -20.013   7.832  0.00  0.00    +0.004 A 
ENDBRANCH   2   6
ENDBRANCH   1   2
BRANCH   1  11
ATOM     11  C   LIG    1       24.974 -21.270   7.251  0.00  0.00    +0.042 C 
BRANCH  11  12
ATOM     12  C   LIG    1       23.662 -20.504   6.953  0.00  0.00    +0.021 C 
BRANCH  12  13
ATOM     13  C   LIG    1       23.145 -20.576   5.470  0.00  0.00    +0.062 C 
ATOM     14  C   LIG    1       22.506 -19.244   5.031  0.00  0.00    +0.022 C 
ATOM     15  C   LIG    1       22.105 -21.701   5.305  0.00  0.00    +0.022 C 
BRANCH  13  16
ATOM     16  C   LIG    1       24.315 -20.924   4.525  0.00  0.00    +0.310 C 
ATOM     17  O   LIG    1       25.107 -20.142   4.048  0.00  0.00    -0.250 OA
BRANCH  16  18
ATOM     18  O   LIG    1       24.461 -22.249   4.286  0.00  0.00    -0.480 OA
ATOM     19  H   LIG    1       24.104 -22.388   3.384  0.00  0.00    +0.295 HD
ENDBRANCH  16  18
ENDBRANCH  13  16
ENDBRANCH  12  13
ENDBRANCH  11  12
ENDBRANCH   1  11
TORSDOF 7
ENDMDL
