MODEL 1
REMARK VINA RESULT:      -8.8      0.000      0.000
REMARK  Name = *****
REMARK                            x       y       z     vdW  Elec       q    Type
REMARK                         _______ _______ _______ _____ _____    ______ ____
ROOT
ATOM      1  C   LIG    1       29.145 -19.568   6.709  0.00  0.00    +0.211 C 
ATOM      2  O   LIG    1       29.471 -18.748   5.850  0.00  0.00    -0.285 OA
ENDROOT
BRANCH   1   3
ATOM      3  C   LIG    1       30.164 -20.052   7.690  0.00  0.00    +0.110 C 
ATOM      4  C   LIG    1       31.073 -19.419   8.475  0.00  0.00    +0.044 C 
ATOM      5  C   LIG    1       31.442 -17.998   8.671  0.00  0.00    +0.065 C 
ATOM      6  N   LIG    1       31.730 -20.371   9.223  0.00  0.00    -0.310 N 
ATOM      7  H   LIG    1       32.462 -20.212   9.900  0.00  0.00    +0.170 HD
ATOM      8  C   LIG    1       31.249 -21.650   8.917  0.00  0.00    +0.325 C 
ATOM      9  O   LIG    1       31.616 -22.704   9.379  0.00  0.00    -0.247 OA
ATOM     10  N   LIG    1       30.266 -21.405   7.949  0.00  0.00    -0.303 N 
ATOM     11  H   LIG    1       29.719 -22.141   7.516  0.00  0.00    +0.171 HD
ENDBRANCH   1   3
BRANCH   1  15
ATOM     12  C   LIG    1       25.007 -20.790   6.726  0.00  0.00    +0.008 A 
ATOM     13  C   LIG    1       25.731 -20.761   7.918  0.00  0.00    +0.015 A 
ATOM     14  C   LIG    1       27.063 -20.328   7.931  0.00  0.00    +0.013 A 
ATOM     15  C   LIG    1       27.733 -20.043   6.739  0.00  0.00    +0.024 A 
ATOM     16  C   LIG    1       27.015 -20.114   5.535  0.00  0.00    +0.013 A 
ATOM     17  C   LIG    1       25.659 -20.475   5.531  0.00  0.00    +0.015 A 
BRANCH  12  19
ATOM     18  C   LIG    1       22.699 -20.051   5.419  0.00  0.00    +0.090 C 
ATOM     19  S   LIG    1       23.268 -21.182   6.725  0.00  0.00    -0.129 S 
ENDBRANCH  12  19
ENDBRANCH   1  15
TORSDOF 3
ENDMDL
MODEL 2
REMARK VINA RESULT:      -7.9      1.529      2.013
REMARK  Name = *****
REMARK                            x       y       z     vdW  Elec       q    Type
REMARK                         _______ _______ _______ _____ _____    ______ ____
ROOT
ATOM      1  C   LIG    1       29.360 -19.342   6.655  0.00  0.00    +0.211 C 
ATOM      2  O   LIG    1       29.688 -18.869   5.566  0.00  0.00    -0.285 OA
ENDROOT
BRANCH   1   3
ATOM      3  C   LIG    1       30.333 -19.324   7.790  0.00  0.00    +0.110 C 
ATOM      4  C   LIG    1       30.870 -20.297   8.569  0.00  0.00    +0.044 C 
ATOM      5  C   LIG    1       30.702 -21.768   8.630  0.00  0.00    +0.065 C 
ATOM      6  N   LIG    1       31.755 -19.706   9.443  0.00  0.00    -0.310 N 
ATOM      7  H   LIG    1       32.311 -20.167  10.148  0.00  0.00    +0.170 HD
ATOM      8  C   LIG    1       31.793 -18.321   9.238  0.00  0.00    +0.325 C 
ATOM      9  O   LIG    1       32.450 -17.506   9.840  0.00  0.00    -0.247 OA
ATOM     10  N   LIG    1       30.884 -18.123   8.190  0.00  0.00    -0.303 N 
ATOM     11  H   LIG    1       30.681 -17.209   7.799  0.00  0.00    +0.171 HD
ENDBRANCH   1   3
BRANCH   1  15
ATOM     12  C   LIG    1       25.331 -20.849   6.995  0.00  0.00    +0.008 A 
ATOM     13  C   LIG    1       26.125 -20.714   8.135  0.00  0.00    +0.015 A 
ATOM     14  C   LIG    1       27.419 -20.188   8.042  0.00  0.00    +0.013 A 
ATOM     15  C   LIG    1       27.991 -19.913   6.797  0.00  0.00    +0.024 A 
ATOM     16  C   LIG    1       27.206 -20.089   5.648  0.00  0.00    +0.013 A 
ATOM     17  C   LIG    1       25.883 -20.545   5.748  0.00  0.00    +0.015 A 
BRANCH  12  19
ATOM     18  C   LIG    1       22.890 -20.302   5.844  0.00  0.00    +0.090 C 
ATOM     19  S   LIG    1       23.629 -21.362   7.126  0.00  0.00    -0.129 S 
ENDBRANCH  12  19
ENDBRANCH   1  15
TORSDOF 3
ENDMDL
MODEL 3
REMARK VINA RESULT:      -7.8      3.776      5.377
REMARK  Name = *****
REMARK                            x       y       z     vdW  Elec       q    Type
REMARK                         _______ _______ _______ _____ _____    ______ ____
ROOT
ATOM      1  C   LIG    1       25.248 -21.409   7.147  0.00  0.00    +0.211 C 
ATOM      2  O   LIG    1       24.595 -20.806   8.000  0.00  0.00    -0.285 OA
ENDROOT
BRANCH   1   3
ATOM      3  C   LIG    1       26.277 -20.673   6.350  0.00  0.00    +0.110 C 
ATOM      4  C   LIG    1       26.267 -20.109   5.115  0.00  0.00    +0.044 C 
ATOM      5  C   LIG    1       25.246 -20.006   4.046  0.00  0.00    +0.065 C 
ATOM      6  N   LIG    1       27.493 -19.519   4.904  0.00  0.00    -0.310 N 
ATOM      7  H   LIG    1       27.792 -19.019   4.079  0.00  0.00    +0.170 HD
ATOM      8  C   LIG    1       28.323 -19.705   6.016  0.00  0.00    +0.325 C 
ATOM      9  O   LIG    1       29.462 -19.330   6.156  0.00  0.00    -0.247 OA
ATOM     10  N   LIG    1       27.520 -20.435   6.902  0.00  0.00    -0.303 N 
ATOM     11  H   LIG    1       27.836 -20.735   7.818  0.00  0.00    +0.171 HD
ENDBRANCH   1   3
BRANCH   1  15
ATOM     12  C   LIG    1       24.591 -25.613   6.429  0.00  0.00    +0.008 A 
ATOM     13  C   LIG    1       23.507 -24.736   6.485  0.00  0.00    +0.015 A 
ATOM     14  C   LIG    1       23.711 -23.364   6.677  0.00  0.00    +0.013 A 
ATOM     15  C   LIG    1       24.987 -22.863   6.949  0.00  0.00    +0.024 A 
ATOM     16  C   LIG    1       26.071 -23.752   6.935  0.00  0.00    +0.013 A 
ATOM     17  C   LIG    1       25.875 -25.115   6.667  0.00  0.00    +0.015 A 
BRANCH  12  19
ATOM     18  C   LIG    1       25.874 -27.635   5.071  0.00  0.00    +0.090 C 
ATOM     19  S   LIG    1       24.353 -27.332   6.022  0.00  0.00    -0.129 S 
ENDBRANCH  12  19
ENDBRANCH   1  15
TORSDOF 3
ENDMDL
MODEL 4
REMARK VINA RESULT:      -7.8      4.218      6.559
REMARK  Name = *****
REMARK                            x       y       z     vdW  Elec       q    Type
REMARK                         _______ _______ _______ _____ _____    ______ ____
ROOT
ATOM      1  C   LIG    1       25.369 -21.852   7.272  0.00  0.00    +0.211 C 
ATOM      2  O   LIG    1       24.558 -21.246   7.974  0.00  0.00    -0.285 OA
ENDROOT
BRANCH   1   3
ATOM      3  C   LIG    1       24.978 -23.155   6.651  0.00  0.00    +0.110 C 
ATOM      4  C   LIG    1       23.784 -23.771   6.457  0.00  0.00    +0.044 C 
ATOM      5  C   LIG    1       22.384 -23.418   6.793  0.00  0.00    +0.065 C 
ATOM      6  N   LIG    1       24.015 -24.951   5.786  0.00  0.00    -0.310 N 
ATOM      7  H   LIG    1       23.326 -25.630   5.498  0.00  0.00    +0.170 HD
ATOM      8  C   LIG    1       25.384 -25.115   5.544  0.00  0.00    +0.325 C 
ATOM      9  O   LIG    1       25.928 -26.042   4.993  0.00  0.00    -0.247 OA
ATOM     10  N   LIG    1       25.954 -23.964   6.104  0.00  0.00    -0.303 N 
ATOM     11  H   LIG    1       26.951 -23.778   6.092  0.00  0.00    +0.171 HD
ENDBRANCH   1   3
BRANCH   1  15
ATOM     12  C   LIG    1       29.259 -20.038   6.830  0.00  0.00    +0.008 A 
ATOM     13  C   LIG    1       28.250 -19.761   5.906  0.00  0.00    +0.015 A 
ATOM     14  C   LIG    1       26.972 -20.312   6.062  0.00  0.00    +0.013 A 
ATOM     15  C   LIG    1       26.716 -21.251   7.065  0.00  0.00    +0.024 A 
ATOM     16  C   LIG    1       27.744 -21.561   7.968  0.00  0.00    +0.013 A 
ATOM     17  C   LIG    1       29.002 -20.951   7.856  0.00  0.00    +0.015 A 
BRANCH  12  19
ATOM     18  C   LIG    1       31.285 -19.198   8.494  0.00  0.00    +0.090 C 
ATOM     19  S   LIG    1       30.836 -19.213   6.731  0.00  0.00    -0.129 S 
ENDBRANCH  12  19
ENDBRANCH   1  15
TORSDOF 3
ENDMDL
MODEL 5
REMARK VINA RESULT:      -7.7      6.610      7.916
REMARK  Name = *****
REMARK                            x       y       z     vdW  Elec       q    Type
REMARK                         _______ _______ _______ _____ _____    ______ ____
ROOT
ATOM      1  C   LIG    1       25.963 -26.551   6.113  0.00  0.00    +0.211 C 
ATOM      2  O   LIG    1       26.971 -26.544   5.406  0.00  0.00    -0.285 OA
ENDROOT
BRANCH   1   3
ATOM      3  C   LIG    1       25.400 -27.856   6.580  0.00  0.00    +0.110 C 
ATOM      4  C   LIG    1       25.539 -28.571   7.726  0.00  0.00    +0.044 C 
ATOM      5  C   LIG    1       26.315 -28.368   8.971  0.00  0.00    +0.065 C 
ATOM      6  N   LIG    1       24.746 -29.693   7.629  0.00  0.00    -0.310 N 
ATOM      7  H   LIG    1       24.636 -30.420   8.321  0.00  0.00    +0.170 HD
ATOM      8  C   LIG    1       24.082 -29.716   6.396  0.00  0.00    +0.325 C 
ATOM      9  O   LIG    1       23.324 -30.562   5.985  0.00  0.00    -0.247 OA
ATOM     10  N   LIG    1       24.520 -28.544   5.768  0.00  0.00    -0.303 N 
ATOM     11  H   LIG    1       24.216 -28.264   4.842  0.00  0.00    +0.171 HD
ENDBRANCH   1   3
BRANCH   1  15
ATOM     12  C   LIG    1       24.107 -22.762   7.016  0.00  0.00    +0.008 A 
ATOM     13  C   LIG    1       25.486 -22.917   7.163  0.00  0.00    +0.015 A 
ATOM     14  C   LIG    1       26.104 -24.130   6.835  0.00  0.00    +0.013 A 
ATOM     15  C   LIG    1       25.344 -25.247   6.481  0.00  0.00    +0.024 A 
ATOM     16  C   LIG    1       23.953 -25.102   6.375  0.00  0.00    +0.013 A 
ATOM     17  C   LIG    1       23.341 -23.865   6.631  0.00  0.00    +0.015 A 
BRANCH  12  19
ATOM     18  C   LIG    1       22.890 -20.769   5.558  0.00  0.00    +0.090 C 
ATOM     19  S   LIG    1       23.336 -21.176   7.274  0.00  0.00    -0.129 S 
ENDBRANCH  12  19
ENDBRANCH   1  15
TORSDOF 3
ENDMDL
MODEL 6
REMARK VINA RESULT:      -7.6      4.602      6.189
REMARK  Name = *****
REMARK                            x       y       z     vdW  Elec       q    Type
REMARK                         _______ _______ _______ _____ _____    ______ ____
ROOT
ATOM      1  C   LIG    1       25.058 -22.125   7.176  0.00  0.00    +0.211 C 
ATOM      2  O   LIG    1       24.677 -21.727   8.278  0.00  0.00    -0.285 OA
ENDROOT
BRANCH   1   3
ATOM      3  C   LIG    1       25.629 -21.150   6.197  0.00  0.00    +0.110 C 
ATOM      4  C   LIG    1       26.849 -20.570   6.066  0.00  0.00    +0.044 C 
ATOM      5  C   LIG    1       28.107 -20.649   6.845  0.00  0.00    +0.065 C 
ATOM      6  N   LIG    1       26.828 -19.776   4.942  0.00  0.00    -0.310 N 
ATOM      7  H   LIG    1       27.586 -19.216   4.580  0.00  0.00    +0.170 HD
ATOM      8  C   LIG    1       25.570 -19.830   4.329  0.00  0.00    +0.325 C 
ATOM      9  O   LIG    1       25.209 -19.245   3.336  0.00  0.00    -0.247 OA
ATOM     10  N   LIG    1       24.846 -20.705   5.150  0.00  0.00    -0.303 N 
ATOM     11  H   LIG    1       23.880 -20.958   4.973  0.00  0.00    +0.171 HD
ENDBRANCH   1   3
BRANCH   1  15
ATOM     12  C   LIG    1       24.809 -26.306   6.136  0.00  0.00    +0.008 A 
ATOM     13  C   LIG    1       23.645 -25.544   6.253  0.00  0.00    +0.015 A 
ATOM     14  C   LIG    1       23.716 -24.178   6.550  0.00  0.00    +0.013 A 
ATOM     15  C   LIG    1       24.938 -23.578   6.866  0.00  0.00    +0.024 A 
ATOM     16  C   LIG    1       26.103 -24.354   6.790  0.00  0.00    +0.013 A 
ATOM     17  C   LIG    1       26.039 -25.706   6.418  0.00  0.00    +0.015 A 
BRANCH  12  19
ATOM     18  C   LIG    1       24.878 -28.841   7.206  0.00  0.00    +0.090 C 
ATOM     19  S   LIG    1       24.737 -28.003   5.597  0.00  0.00    -0.129 S 
ENDBRANCH  12  19
ENDBRANCH   1  15
TORSDOF 3
ENDMDL
MODEL 7
REMARK VINA RESULT:      -7.5      5.515      7.225
REMARK  Name = *****
REMARK                            x       y       z     vdW  Elec       q    Type
REMARK                         _______ _______ _______ _____ _____    ______ ____
ROOT
ATOM      1  C   LIG    1       23.659 -21.515   7.040  0.00  0.00    +0.211 C 
ATOM      2  O   LIG    1       23.302 -21.161   8.165  0.00  0.00    -0.285 OA
ENDROOT
BRANCH   1   3
ATOM      3  C   LIG    1       23.578 -20.548   5.902  0.00  0.00    +0.110 C 
ATOM      4  C   LIG    1       24.484 -20.103   4.994  0.00  0.00    +0.044 C 
ATOM      5  C   LIG    1       25.923 -20.375   4.767  0.00  0.00    +0.065 C 
ATOM      6  N   LIG    1       23.841 -19.239   4.136  0.00  0.00    -0.310 N 
ATOM      7  H   LIG    1       24.248 -18.746   3.354  0.00  0.00    +0.170 HD
ATOM      8  C   LIG    1       22.493 -19.110   4.492  0.00  0.00    +0.325 C 
ATOM      9  O   LIG    1       21.654 -18.423   3.960  0.00  0.00    -0.247 OA
ATOM     10  N   LIG    1       22.370 -19.949   5.607  0.00  0.00    -0.303 N 
ATOM     11  H   LIG    1       21.498 -20.079   6.109  0.00  0.00    +0.171 HD
ENDBRANCH   1   3
BRANCH   1  15
ATOM     12  C   LIG    1       25.232 -25.481   6.392  0.00  0.00    +0.008 A 
ATOM     13  C   LIG    1       23.860 -25.247   6.286  0.00  0.00    +0.015 A 
ATOM     14  C   LIG    1       23.343 -23.957   6.455  0.00  0.00    +0.013 A 
ATOM     15  C   LIG    1       24.167 -22.904   6.861  0.00  0.00    +0.024 A 
ATOM     16  C   LIG    1       25.540 -23.149   7.009  0.00  0.00    +0.013 A 
ATOM     17  C   LIG    1       26.069 -24.426   6.767  0.00  0.00    +0.015 A 
BRANCH  12  19
ATOM     18  C   LIG    1       24.472 -28.127   6.397  0.00  0.00    +0.090 C 
ATOM     19  S   LIG    1       25.915 -27.084   6.019  0.00  0.00    -0.129 S 
ENDBRANCH  12  19
ENDBRANCH   1  15
TORSDOF 3
ENDMDL
MODEL 8
REMARK VINA RESULT:      -7.5      6.190      7.630
REMARK  Name = *****
REMARK                            x       y       z     vdW  Elec       q    Type
REMARK                         _______ _______ _______ _____ _____    ______ ____
ROOT
ATOM      1  C   LIG    1       25.968 -26.549   6.232  0.00  0.00    +0.211 C 
ATOM      2  O   LIG    1       26.727 -26.639   5.266  0.00  0.00    -0.285 OA
ENDROOT
BRANCH   1   3
ATOM      3  C   LIG    1       25.696 -27.758   7.070  0.00  0.00    +0.110 C 
ATOM      4  C   LIG    1       24.901 -28.845   6.902  0.00  0.00    +0.044 C 
ATOM      5  C   LIG    1       23.966 -29.274   5.835  0.00  0.00    +0.065 C 
ATOM      6  N   LIG    1       25.077 -29.676   7.986  0.00  0.00    -0.310 N 
ATOM      7  H   LIG    1       24.623 -30.563   8.151  0.00  0.00    +0.170 HD
ATOM      8  C   LIG    1       25.996 -29.120   8.883  0.00  0.00    +0.325 C 
ATOM      9  O   LIG    1       26.366 -29.579   9.937  0.00  0.00    -0.247 OA
ATOM     10  N   LIG    1       26.361 -27.915   8.270  0.00  0.00    -0.303 N 
ATOM     11  H   LIG    1       27.027 -27.266   8.676  0.00  0.00    +0.171 HD
ENDBRANCH   1   3
BRANCH   1  15
ATOM     12  C   LIG    1       24.126 -22.711   6.933  0.00  0.00    +0.008 A 
ATOM     13  C   LIG    1       25.500 -22.871   7.118  0.00  0.00    +0.015 A 
ATOM     14  C   LIG    1       26.115 -24.101   6.855  0.00  0.00    +0.013 A 
ATOM     15  C   LIG    1       25.352 -25.226   6.531  0.00  0.00    +0.024 A 
ATOM     16  C   LIG    1       23.965 -25.075   6.387  0.00  0.00    +0.013 A 
ATOM     17  C   LIG    1       23.359 -23.824   6.577  0.00  0.00    +0.015 A 
BRANCH  12  19
ATOM     18  C   LIG    1       22.613 -20.947   5.457  0.00  0.00    +0.090 C 
ATOM     19  S   LIG    1       23.362 -21.110   7.107  0.00  0.00    -0.129 S 
ENDBRANCH  12  19
ENDBRANCH   1  15
TORSDOF 3
ENDMDL
MODEL 9
REMARK VINA RESULT:      -7.4      3.974      6.462
REMARK  Name = *****
REMARK                            x       y       z     vdW  Elec       q    Type
REMARK                         _______ _______ _______ _____ _____    ______ ____
ROOT
ATOM      1  C   LIG    1       25.789 -20.564   5.269  0.00  0.00    +0.211 C 
ATOM      2  O   LIG    1       25.776 -19.960   4.195  0.00  0.00    -0.285 OA
ENDROOT
BRANCH   1   3
ATOM      3  C   LIG    1       24.592 -21.359   5.682  0.00  0.00    +0.110 C 
ATOM      4  C   LIG    1       23.266 -21.074   5.753  0.00  0.00    +0.044 C 
ATOM      5  C   LIG    1       22.464 -19.862   5.468  0.00  0.00    +0.065 C 
ATOM      6  N   LIG    1       22.606 -22.210   6.165  0.00  0.00    -0.310 N 
ATOM      7  H   LIG    1       21.612 -22.315   6.311  0.00  0.00    +0.170 HD
ATOM      8  C   LIG    1       23.515 -23.255   6.375  0.00  0.00    +0.325 C 
ATOM      9  O   LIG    1       23.272 -24.376   6.751  0.00  0.00    -0.247 OA
ATOM     10  N   LIG    1       24.752 -22.677   6.061  0.00  0.00    -0.303 N 
ATOM     11  H   LIG    1       25.629 -23.184   6.113  0.00  0.00    +0.171 HD
ENDBRANCH   1   3
BRANCH   1  15
ATOM     12  C   LIG    1       29.423 -20.387   7.589  0.00  0.00    +0.008 A 
ATOM     13  C   LIG    1       28.333 -21.126   8.052  0.00  0.00    +0.015 A 
ATOM     14  C   LIG    1       27.164 -21.223   7.289  0.00  0.00    +0.013 A 
ATOM     15  C   LIG    1       27.012 -20.480   6.116  0.00  0.00    +0.024 A 
ATOM     16  C   LIG    1       28.093 -19.703   5.672  0.00  0.00    +0.013 A 
ATOM     17  C   LIG    1       29.292 -19.666   6.399  0.00  0.00    +0.015 A 
BRANCH  12  19
ATOM     18  C   LIG    1       31.532 -18.698   8.118  0.00  0.00    +0.090 C 
ATOM     19  S   LIG    1       30.970 -20.392   8.474  0.00  0.00    -0.129 S 
ENDBRANCH  12  19
ENDBRANCH   1  15
TORSDOF 3
ENDMDL
