MODEL 1
REMARK VINA RESULT:      -9.3      0.000      0.000
REMARK  Name = *****
REMARK                            x       y       z     vdW  Elec       q    Type
REMARK                         _______ _______ _______ _____ _____    ______ ____
ROOT
ATOM      1  C   LIG    1       25.696 -24.043   6.897  0.00  0.00    +0.105 C 
ATOM      2  N   LIG    1       25.734 -22.580   6.983  0.00  0.00    -0.297 NA
ENDROOT
BRANCH   2   3
ATOM      3  C   LIG    1       27.009 -22.183   7.620  0.00  0.00    +0.120 C 
BRANCH   3   4
ATOM      4  C   LIG    1       27.739 -21.019   6.967  0.00  0.00    -0.026 A 
ATOM      5  C   LIG    1       29.043 -20.607   7.363  0.00  0.00    -0.013 A 
ATOM      6  C   LIG    1       29.654 -19.530   6.671  0.00  0.00    -0.018 A 
ATOM      7  C   LIG    1       30.951 -19.116   7.022  0.00  0.00    +0.008 A 
ATOM      8  C   LIG    1       31.654 -19.745   8.047  0.00  0.00    +0.001 A 
ATOM      9  C   LIG    1       31.068 -20.795   8.740  0.00  0.00    +0.001 A 
ATOM     10  C   LIG    1       28.970 -18.882   5.634  0.00  0.00    +0.008 A 
ATOM     11  C   LIG    1       27.688 -19.279   5.265  0.00  0.00    +0.001 A 
ATOM     12  C   LIG    1       29.781 -21.216   8.404  0.00  0.00    +0.009 A 
ATOM     13  C   LIG    1       27.077 -20.336   5.927  0.00  0.00    +0.005 A 
ENDBRANCH   3   4
ENDBRANCH   2   3
BRANCH   2  14
ATOM     14  C   LIG    1       24.563 -22.029   7.694  0.00  0.00    +0.111 C 
BRANCH  14  15
ATOM     15  C   LIG    1       23.251 -22.484   7.105  0.00  0.00    -0.011 C 
ATOM     16  C   LIG    1       22.602 -21.999   6.033  0.00  0.00    +0.005 C 
BRANCH  16  17
ATOM     17  C   LIG    1       23.055 -20.907   5.171  0.00  0.00    -0.025 A 
ATOM     18  C   LIG    1       24.050 -21.127   4.214  0.00  0.00    +0.008 A 
ATOM     19  C   LIG    1       24.472 -20.084   3.386  0.00  0.00    +0.001 A 
ATOM     20  C   LIG    1       23.901 -18.818   3.509  0.00  0.00    +0.000 A 
ATOM     21  C   LIG    1       22.901 -18.596   4.455  0.00  0.00    +0.001 A 
ATOM     22  C   LIG    1       22.478 -19.638   5.283  0.00  0.00    +0.008 A 
ENDBRANCH  16  17
ENDBRANCH  14  15
ENDBRANCH   2  14
TORSDOF 5
ENDMDL
MODEL 2
REMARK VINA RESULT:      -9.0      2.071      7.266
REMARK  Name = *****
REMARK                            x       y       z     vdW  Elec       q    Type
REMARK                         _______ _______ _______ _____ _____    ______ ____
ROOT
ATOM      1  C   LIG    1       27.429 -20.330   6.030  0.00  0.00    +0.105 C 
ATOM      2  N   LIG    1       28.028 -21.213   7.036  0.00  0.00    -0.297 NA
ENDROOT
BRANCH   2   3
ATOM      3  C   LIG    1       27.032 -21.445   8.106  0.00  0.00    +0.120 C 
BRANCH   3   4
ATOM      4  C   LIG    1       25.617 -21.745   7.636  0.00  0.00    -0.026 A 
ATOM      5  C   LIG    1       25.214 -23.031   7.176  0.00  0.00    -0.013 A 
ATOM      6  C   LIG    1       23.863 -23.222   6.790  0.00  0.00    -0.018 A 
ATOM      7  C   LIG    1       23.429 -24.486   6.354  0.00  0.00    +0.008 A 
ATOM      8  C   LIG    1       24.309 -25.565   6.289  0.00  0.00    +0.001 A 
ATOM      9  C   LIG    1       25.636 -25.395   6.654  0.00  0.00    +0.001 A 
ATOM     10  C   LIG    1       22.958 -22.154   6.849  0.00  0.00    +0.008 A 
ATOM     11  C   LIG    1       23.363 -20.895   7.283  0.00  0.00    +0.001 A 
ATOM     12  C   LIG    1       26.081 -24.145   7.088  0.00  0.00    +0.009 A 
ATOM     13  C   LIG    1       24.681 -20.693   7.672  0.00  0.00    +0.005 A 
ENDBRANCH   3   4
ENDBRANCH   2   3
BRANCH   2  14
ATOM     14  C   LIG    1       29.298 -20.680   7.565  0.00  0.00    +0.111 C 
BRANCH  14  15
ATOM     15  C   LIG    1       29.906 -19.621   6.679  0.00  0.00    -0.011 C 
ATOM     16  C   LIG    1       30.558 -18.503   7.038  0.00  0.00    +0.005 C 
BRANCH  16  17
ATOM     17  C   LIG    1       30.840 -18.070   8.407  0.00  0.00    -0.025 A 
ATOM     18  C   LIG    1       32.146 -17.761   8.797  0.00  0.00    +0.008 A 
ATOM     19  C   LIG    1       32.410 -17.338  10.101  0.00  0.00    +0.001 A 
ATOM     20  C   LIG    1       31.369 -17.220  11.022  0.00  0.00    +0.000 A 
ATOM     21  C   LIG    1       30.064 -17.517  10.636  0.00  0.00    +0.001 A 
ATOM     22  C   LIG    1       29.798 -17.939   9.331  0.00  0.00    +0.008 A 
ENDBRANCH  16  17
ENDBRANCH  14  15
ENDBRANCH   2  14
TORSDOF 5
ENDMDL
MODEL 3
REMARK VINA RESULT:      -8.9      2.173      7.563
REMARK  Name = *****
REMARK                            x       y       z     vdW  Elec       q    Type
REMARK                         _______ _______ _______ _____ _____    ______ ____
ROOT
ATOM      1  C   LIG    1       29.274 -21.366   8.002  0.00  0.00    +0.105 C 
ATOM      2  N   LIG    1       28.428 -20.292   7.473  0.00  0.00    -0.297 NA
ENDROOT
BRANCH   2   3
ATOM      3  C   LIG    1       27.635 -20.835   6.347  0.00  0.00    +0.120 C 
BRANCH   3   4
ATOM      4  C   LIG    1       26.129 -20.869   6.557  0.00  0.00    -0.026 A 
ATOM      5  C   LIG    1       25.208 -20.301   5.630  0.00  0.00    -0.013 A 
ATOM      6  C   LIG    1       23.820 -20.413   5.898  0.00  0.00    -0.018 A 
ATOM      7  C   LIG    1       22.886 -19.884   4.990  0.00  0.00    +0.008 A 
ATOM      8  C   LIG    1       23.299 -19.244   3.823  0.00  0.00    +0.001 A 
ATOM      9  C   LIG    1       24.654 -19.119   3.550  0.00  0.00    +0.001 A 
ATOM     10  C   LIG    1       23.378 -21.055   7.062  0.00  0.00    +0.008 A 
ATOM     11  C   LIG    1       24.284 -21.591   7.972  0.00  0.00    +0.001 A 
ATOM     12  C   LIG    1       25.593 -19.638   4.443  0.00  0.00    +0.009 A 
ATOM     13  C   LIG    1       25.647 -21.498   7.722  0.00  0.00    +0.005 A 
ENDBRANCH   3   4
ENDBRANCH   2   3
BRANCH   2  14
ATOM     14  C   LIG    1       29.210 -19.104   7.079  0.00  0.00    +0.111 C 
BRANCH  14  15
ATOM     15  C   LIG    1       30.690 -19.380   6.980  0.00  0.00    -0.011 C 
ATOM     16  C   LIG    1       31.680 -18.927   7.767  0.00  0.00    +0.005 C 
BRANCH  16  17
ATOM     17  C   LIG    1       31.525 -18.058   8.934  0.00  0.00    -0.025 A 
ATOM     18  C   LIG    1       30.590 -18.366   9.927  0.00  0.00    +0.008 A 
ATOM     19  C   LIG    1       30.452 -17.539  11.045  0.00  0.00    +0.001 A 
ATOM     20  C   LIG    1       31.251 -16.403  11.177  0.00  0.00    +0.000 A 
ATOM     21  C   LIG    1       32.192 -16.098  10.196  0.00  0.00    +0.001 A 
ATOM     22  C   LIG    1       32.330 -16.924   9.077  0.00  0.00    +0.008 A 
ENDBRANCH  16  17
ENDBRANCH  14  15
ENDBRANCH   2  14
TORSDOF 5
ENDMDL
MODEL 4
REMARK VINA RESULT:      -8.3      4.117      7.602
REMARK  Name = *****
REMARK                            x       y       z     vdW  Elec       q    Type
REMARK                         _______ _______ _______ _____ _____    ______ ____
ROOT
ATOM      1  C   LIG    1       26.180 -27.033   4.687  0.00  0.00    +0.105 C 
ATOM      2  N   LIG    1       25.135 -26.434   5.523  0.00  0.00    -0.297 NA
ENDROOT
BRANCH   2   3
ATOM      3  C   LIG    1       25.758 -25.405   6.384  0.00  0.00    +0.120 C 
BRANCH   3   4
ATOM      4  C   LIG    1       24.884 -24.206   6.718  0.00  0.00    -0.026 A 
ATOM      5  C   LIG    1       25.415 -22.973   7.196  0.00  0.00    -0.013 A 
ATOM      6  C   LIG    1       24.520 -21.902   7.448  0.00  0.00    -0.018 A 
ATOM      7  C   LIG    1       25.017 -20.665   7.897  0.00  0.00    +0.008 A 
ATOM      8  C   LIG    1       26.381 -20.469   8.103  0.00  0.00    +0.001 A 
ATOM      9  C   LIG    1       27.269 -21.509   7.869  0.00  0.00    +0.001 A 
ATOM     10  C   LIG    1       23.145 -22.071   7.246  0.00  0.00    +0.008 A 
ATOM     11  C   LIG    1       22.632 -23.284   6.797  0.00  0.00    +0.001 A 
ATOM     12  C   LIG    1       26.791 -22.743   7.424  0.00  0.00    +0.009 A 
ATOM     13  C   LIG    1       23.493 -24.342   6.537  0.00  0.00    +0.005 A 
ENDBRANCH   3   4
ENDBRANCH   2   3
BRANCH   2  14
ATOM     14  C   LIG    1       24.398 -27.443   6.309  0.00  0.00    +0.111 C 
BRANCH  14  15
ATOM     15  C   LIG    1       24.868 -28.852   6.044  0.00  0.00    -0.011 C 
ATOM     16  C   LIG    1       25.136 -29.825   6.930  0.00  0.00    +0.005 C 
BRANCH  16  17
ATOM     17  C   LIG    1       25.007 -29.728   8.385  0.00  0.00    -0.025 A 
ATOM     18  C   LIG    1       23.854 -30.190   9.026  0.00  0.00    +0.008 A 
ATOM     19  C   LIG    1       23.739 -30.105  10.415  0.00  0.00    +0.001 A 
ATOM     20  C   LIG    1       24.776 -29.559  11.170  0.00  0.00    +0.000 A 
ATOM     21  C   LIG    1       25.932 -29.106  10.538  0.00  0.00    +0.001 A 
ATOM     22  C   LIG    1       26.049 -29.191   9.148  0.00  0.00    +0.008 A 
ENDBRANCH  16  17
ENDBRANCH  14  15
ENDBRANCH   2  14
TORSDOF 5
ENDMDL
MODEL 5
REMARK VINA RESULT:      -8.2      4.789      8.152
REMARK  Name = *****
REMARK                            x       y       z     vdW  Elec       q    Type
REMARK                         _______ _______ _______ _____ _____    ______ ____
ROOT
ATOM      1  C   LIG    1       25.925 -26.841   4.493  0.00  0.00    +0.105 C 
ATOM      2  N   LIG    1       25.326 -26.628   5.814  0.00  0.00    -0.297 NA
ENDROOT
BRANCH   2   3
ATOM      3  C   LIG    1       25.942 -25.426   6.417  0.00  0.00    +0.120 C 
BRANCH   3   4
ATOM      4  C   LIG    1       24.992 -24.276   6.717  0.00  0.00    -0.026 A 
ATOM      5  C   LIG    1       25.440 -23.003   7.171  0.00  0.00    -0.013 A 
ATOM      6  C   LIG    1       24.479 -21.984   7.391  0.00  0.00    -0.018 A 
ATOM      7  C   LIG    1       24.893 -20.709   7.816  0.00  0.00    +0.008 A 
ATOM      8  C   LIG    1       26.240 -20.425   8.030  0.00  0.00    +0.001 A 
ATOM      9  C   LIG    1       27.193 -21.412   7.827  0.00  0.00    +0.001 A 
ATOM     10  C   LIG    1       23.118 -22.243   7.180  0.00  0.00    +0.008 A 
ATOM     11  C   LIG    1       22.686 -23.496   6.755  0.00  0.00    +0.001 A 
ATOM     12  C   LIG    1       26.797 -22.683   7.407  0.00  0.00    +0.009 A 
ATOM     13  C   LIG    1       23.614 -24.503   6.526  0.00  0.00    +0.005 A 
ENDBRANCH   3   4
ENDBRANCH   2   3
BRANCH   2  14
ATOM     14  C   LIG    1       25.451 -27.813   6.685  0.00  0.00    +0.111 C 
BRANCH  14  15
ATOM     15  C   LIG    1       24.223 -28.688   6.669  0.00  0.00    -0.011 C 
ATOM     16  C   LIG    1       24.149 -30.028   6.718  0.00  0.00    +0.005 C 
BRANCH  16  17
ATOM     17  C   LIG    1       25.280 -30.951   6.820  0.00  0.00    -0.025 A 
ATOM     18  C   LIG    1       25.861 -31.225   8.061  0.00  0.00    +0.008 A 
ATOM     19  C   LIG    1       26.934 -32.115   8.156  0.00  0.00    +0.001 A 
ATOM     20  C   LIG    1       27.429 -32.736   7.009  0.00  0.00    +0.000 A 
ATOM     21  C   LIG    1       26.848 -32.475   5.771  0.00  0.00    +0.001 A 
ATOM     22  C   LIG    1       25.774 -31.585   5.675  0.00  0.00    +0.008 A 
ENDBRANCH  16  17
ENDBRANCH  14  15
ENDBRANCH   2  14
TORSDOF 5
ENDMDL
MODEL 6
REMARK VINA RESULT:      -8.1      2.450      5.361
REMARK  Name = *****
REMARK                            x       y       z     vdW  Elec       q    Type
REMARK                         _______ _______ _______ _____ _____    ______ ____
ROOT
ATOM      1  C   LIG    1       22.895 -23.624   6.555  0.00  0.00    +0.105 C 
ATOM      2  N   LIG    1       24.099 -23.291   7.323  0.00  0.00    -0.297 NA
ENDROOT
BRANCH   2   3
ATOM      3  C   LIG    1       24.148 -21.823   7.501  0.00  0.00    +0.120 C 
BRANCH   3   4
ATOM      4  C   LIG    1       24.858 -21.048   6.401  0.00  0.00    -0.026 A 
ATOM      5  C   LIG    1       26.202 -20.594   6.522  0.00  0.00    -0.013 A 
ATOM      6  C   LIG    1       26.788 -19.908   5.428  0.00  0.00    -0.018 A 
ATOM      7  C   LIG    1       28.121 -19.469   5.507  0.00  0.00    +0.008 A 
ATOM      8  C   LIG    1       28.885 -19.693   6.651  0.00  0.00    +0.001 A 
ATOM      9  C   LIG    1       28.326 -20.355   7.734  0.00  0.00    +0.001 A 
ATOM     10  C   LIG    1       26.042 -19.673   4.265  0.00  0.00    +0.008 A 
ATOM     11  C   LIG    1       24.723 -20.103   4.162  0.00  0.00    +0.001 A 
ATOM     12  C   LIG    1       27.002 -20.796   7.670  0.00  0.00    +0.009 A 
ATOM     13  C   LIG    1       24.136 -20.784   5.221  0.00  0.00    +0.005 A 
ENDBRANCH   3   4
ENDBRANCH   2   3
BRANCH   2  14
ATOM     14  C   LIG    1       25.328 -23.816   6.695  0.00  0.00    +0.111 C 
BRANCH  14  15
ATOM     15  C   LIG    1       25.079 -24.435   5.343  0.00  0.00    -0.011 C 
ATOM     16  C   LIG    1       24.984 -25.736   5.023  0.00  0.00    +0.005 C 
BRANCH  16  17
ATOM     17  C   LIG    1       25.088 -26.863   5.952  0.00  0.00    -0.025 A 
ATOM     18  C   LIG    1       26.014 -26.835   6.998  0.00  0.00    +0.008 A 
ATOM     19  C   LIG    1       26.103 -27.907   7.889  0.00  0.00    +0.001 A 
ATOM     20  C   LIG    1       25.265 -29.012   7.738  0.00  0.00    +0.000 A 
ATOM     21  C   LIG    1       24.333 -29.041   6.703  0.00  0.00    +0.001 A 
ATOM     22  C   LIG    1       24.242 -27.968   5.812  0.00  0.00    +0.008 A 
ENDBRANCH  16  17
ENDBRANCH  14  15
ENDBRANCH   2  14
TORSDOF 5
ENDMDL
MODEL 7
REMARK VINA RESULT:      -7.9      3.684      6.889
REMARK  Name = *****
REMARK                            x       y       z     vdW  Elec       q    Type
REMARK                         _______ _______ _______ _____ _____    ______ ____
ROOT
ATOM      1  C   LIG    1       23.560 -24.707   6.642  0.00  0.00    +0.105 C 
ATOM      2  N   LIG    1       24.892 -24.725   6.030  0.00  0.00    -0.297 NA
ENDROOT
BRANCH   2   3
ATOM      3  C   LIG    1       25.727 -25.706   6.758  0.00  0.00    +0.120 C 
BRANCH   3   4
ATOM      4  C   LIG    1       25.305 -27.161   6.621  0.00  0.00    -0.026 A 
ATOM      5  C   LIG    1       25.648 -28.157   7.580  0.00  0.00    -0.013 A 
ATOM      6  C   LIG    1       25.179 -29.481   7.381  0.00  0.00    -0.018 A 
ATOM      7  C   LIG    1       25.480 -30.480   8.323  0.00  0.00    +0.008 A 
ATOM      8  C   LIG    1       26.239 -30.195   9.457  0.00  0.00    +0.001 A 
ATOM      9  C   LIG    1       26.711 -28.908   9.663  0.00  0.00    +0.001 A 
ATOM     10  C   LIG    1       24.412 -29.792   6.251  0.00  0.00    +0.008 A 
ATOM     11  C   LIG    1       24.097 -28.818   5.309  0.00  0.00    +0.001 A 
ATOM     12  C   LIG    1       26.422 -27.905   8.736  0.00  0.00    +0.009 A 
ATOM     13  C   LIG    1       24.541 -27.515   5.491  0.00  0.00    +0.005 A 
ENDBRANCH   3   4
ENDBRANCH   2   3
BRANCH   2  14
ATOM     14  C   LIG    1       25.512 -23.385   5.996  0.00  0.00    +0.111 C 
BRANCH  14  15
ATOM     15  C   LIG    1       25.126 -22.529   7.176  0.00  0.00    -0.011 C 
ATOM     16  C   LIG    1       24.559 -21.311   7.176  0.00  0.00    +0.005 C 
BRANCH  16  17
ATOM     17  C   LIG    1       24.166 -20.542   5.995  0.00  0.00    -0.025 A 
ATOM     18  C   LIG    1       22.862 -20.055   5.868  0.00  0.00    +0.008 A 
ATOM     19  C   LIG    1       22.493 -19.312   4.744  0.00  0.00    +0.001 A 
ATOM     20  C   LIG    1       23.428 -19.051   3.742  0.00  0.00    +0.000 A 
ATOM     21  C   LIG    1       24.732 -19.525   3.867  0.00  0.00    +0.001 A 
ATOM     22  C   LIG    1       25.102 -20.268   4.992  0.00  0.00    +0.008 A 
ENDBRANCH  16  17
ENDBRANCH  14  15
ENDBRANCH   2  14
TORSDOF 5
ENDMDL
MODEL 8
REMARK VINA RESULT:      -7.9      1.022      2.707
REMARK  Name = *****
REMARK                            x       y       z     vdW  Elec       q    Type
REMARK                         _______ _______ _______ _____ _____    ______ ____
ROOT
ATOM      1  C   LIG    1       26.284 -20.405   8.701  0.00  0.00    +0.105 C 
ATOM      2  N   LIG    1       26.148 -21.838   8.419  0.00  0.00    -0.297 NA
ENDROOT
BRANCH   2   3
ATOM      3  C   LIG    1       27.218 -22.231   7.476  0.00  0.00    +0.120 C 
BRANCH   3   4
ATOM      4  C   LIG    1       28.481 -21.385   7.520  0.00  0.00    -0.026 A 
ATOM      5  C   LIG    1       28.688 -20.264   6.666  0.00  0.00    -0.013 A 
ATOM      6  C   LIG    1       29.885 -19.516   6.805  0.00  0.00    -0.018 A 
ATOM      7  C   LIG    1       30.108 -18.390   5.994  0.00  0.00    +0.008 A 
ATOM      8  C   LIG    1       29.169 -17.991   5.044  0.00  0.00    +0.001 A 
ATOM      9  C   LIG    1       27.996 -18.716   4.888  0.00  0.00    +0.001 A 
ATOM     10  C   LIG    1       30.843 -19.894   7.755  0.00  0.00    +0.008 A 
ATOM     11  C   LIG    1       30.642 -21.002   8.573  0.00  0.00    +0.001 A 
ATOM     12  C   LIG    1       27.762 -19.837   5.686  0.00  0.00    +0.009 A 
ATOM     13  C   LIG    1       29.472 -21.741   8.456  0.00  0.00    +0.005 A 
ENDBRANCH   3   4
ENDBRANCH   2   3
BRANCH   2  14
ATOM     14  C   LIG    1       24.806 -22.185   7.913  0.00  0.00    +0.111 C 
BRANCH  14  15
ATOM     15  C   LIG    1       24.848 -23.017   6.656  0.00  0.00    -0.011 C 
ATOM     16  C   LIG    1       24.508 -22.661   5.405  0.00  0.00    +0.005 C 
BRANCH  16  17
ATOM     17  C   LIG    1       24.028 -21.345   4.983  0.00  0.00    -0.025 A 
ATOM     18  C   LIG    1       22.834 -20.829   5.495  0.00  0.00    +0.008 A 
ATOM     19  C   LIG    1       22.384 -19.568   5.098  0.00  0.00    +0.001 A 
ATOM     20  C   LIG    1       23.127 -18.816   4.187  0.00  0.00    +0.000 A 
ATOM     21  C   LIG    1       24.323 -19.320   3.681  0.00  0.00    +0.001 A 
ATOM     22  C   LIG    1       24.774 -20.582   4.079  0.00  0.00    +0.008 A 
ENDBRANCH  16  17
ENDBRANCH  14  15
ENDBRANCH   2  14
TORSDOF 5
ENDMDL
MODEL 9
REMARK VINA RESULT:      -7.8      2.215      7.741
REMARK  Name = *****
REMARK                            x       y       z     vdW  Elec       q    Type
REMARK                         _______ _______ _______ _____ _____    ______ ____
ROOT
ATOM      1  C   LIG    1       27.865 -20.156   5.816  0.00  0.00    +0.105 C 
ATOM      2  N   LIG    1       28.013 -20.423   7.250  0.00  0.00    -0.297 NA
ENDROOT
BRANCH   2   3
ATOM      3  C   LIG    1       26.664 -20.478   7.856  0.00  0.00    +0.120 C 
BRANCH   3   4
ATOM      4  C   LIG    1       25.776 -21.620   7.384  0.00  0.00    -0.026 A 
ATOM      5  C   LIG    1       24.548 -21.407   6.695  0.00  0.00    -0.013 A 
ATOM      6  C   LIG    1       23.805 -22.537   6.266  0.00  0.00    -0.018 A 
ATOM      7  C   LIG    1       22.601 -22.360   5.562  0.00  0.00    +0.008 A 
ATOM      8  C   LIG    1       22.117 -21.085   5.276  0.00  0.00    +0.001 A 
ATOM      9  C   LIG    1       22.826 -19.969   5.695  0.00  0.00    +0.001 A 
ATOM     10  C   LIG    1       24.273 -23.830   6.538  0.00  0.00    +0.008 A 
ATOM     11  C   LIG    1       25.464 -24.029   7.229  0.00  0.00    +0.001 A 
ATOM     12  C   LIG    1       24.022 -20.129   6.396  0.00  0.00    +0.009 A 
ATOM     13  C   LIG    1       26.208 -22.934   7.649  0.00  0.00    +0.005 A 
ENDBRANCH   3   4
ENDBRANCH   2   3
BRANCH   2  14
ATOM     14  C   LIG    1       28.881 -19.433   7.918  0.00  0.00    +0.111 C 
BRANCH  14  15
ATOM     15  C   LIG    1       30.249 -19.334   7.292  0.00  0.00    -0.011 C 
ATOM     16  C   LIG    1       31.327 -18.668   7.738  0.00  0.00    +0.005 C 
BRANCH  16  17
ATOM     17  C   LIG    1       31.409 -17.888   8.974  0.00  0.00    -0.025 A 
ATOM     18  C   LIG    1       32.333 -16.845   9.092  0.00  0.00    +0.008 A 
ATOM     19  C   LIG    1       32.401 -16.096  10.269  0.00  0.00    +0.001 A 
ATOM     20  C   LIG    1       31.546 -16.385  11.333  0.00  0.00    +0.000 A 
ATOM     21  C   LIG    1       30.617 -17.416  11.216  0.00  0.00    +0.001 A 
ATOM     22  C   LIG    1       30.547 -18.166  10.039  0.00  0.00    +0.008 A 
ENDBRANCH  16  17
ENDBRANCH  14  15
ENDBRANCH   2  14
TORSDOF 5
ENDMDL
