MODEL 1
REMARK VINA RESULT:      -8.6      0.000      0.000
REMARK  Name = *****
REMARK                            x       y       z     vdW  Elec       q    Type
REMARK                         _______ _______ _______ _____ _____    ______ ____
ROOT
ATOM      1  C   LIG    1       25.122 -24.015   5.588  0.00  0.00    +0.003 C 
ENDROOT
BRANCH   1   2
ATOM      2  C   LIG    1       24.108 -23.845   6.713  0.00  0.00    +0.003 C 
BRANCH   2   3
ATOM      3  C   LIG    1       24.331 -22.560   7.505  0.00  0.00    +0.041 C 
BRANCH   3   4
ATOM      4  C   LIG    1       23.295 -21.520   7.091  0.00  0.00    +0.243 C 
BRANCH   4   5
ATOM      5  N   LIG    1       23.957 -20.517   6.268  0.00  0.00    -0.110 NA
ATOM      6  C   LIG    1       23.719 -20.505   4.997  0.00  0.00    +0.425 C 
BRANCH   6   7
ATOM      7  N   LIG    1       22.926 -21.366   4.302  0.00  0.00    -0.286 N 
ATOM      8  H   LIG    1       22.782 -21.070   3.351  0.00  0.00    +0.255 HD
ATOM      9  H   LIG    1       23.132 -22.354   4.405  0.00  0.00    +0.255 HD
ENDBRANCH   6   7
BRANCH   6  10
ATOM     10  N   LIG    1       24.291 -19.533   4.254  0.00  0.00    -0.003 NA
ATOM     11  C   LIG    1       25.578 -19.405   4.104  0.00  0.00    +0.394 C 
BRANCH  11  12
ATOM     12  N   LIG    1       25.960 -18.402   3.274  0.00  0.00    -0.288 N 
ATOM     13  H   LIG    1       25.883 -18.564   2.283  0.00  0.00    +0.255 HD
ATOM     14  H   LIG    1       26.846 -17.999   3.555  0.00  0.00    +0.255 HD
ENDBRANCH  11  12
BRANCH  11  15
ATOM     15  N   LIG    1       26.593 -20.204   4.585  0.00  0.00    -0.243 N 
ATOM     16  H   LIG    1       26.320 -21.189   4.609  0.00  0.00    +0.265 HD
BRANCH  15  17
ATOM     17  C   LIG    1       27.539 -19.897   5.592  0.00  0.00    +0.100 A 
ATOM     18  C   LIG    1       27.419 -20.485   6.863  0.00  0.00    +0.043 A 
ATOM     19  C   LIG    1       28.367 -20.231   7.867  0.00  0.00    +0.023 A 
ATOM     20  C   LIG    1       29.444 -19.389   7.608  0.00  0.00    +0.041 A 
ATOM     21 CL   LIG    1       30.615 -19.077   8.829  0.00  0.00    -0.084 Cl
ATOM     22  C   LIG    1       29.571 -18.782   6.364  0.00  0.00    +0.023 A 
ATOM     23  C   LIG    1       28.609 -19.015   5.378  0.00  0.00    +0.043 A 
ENDBRANCH  15  17
ENDBRANCH  11  15
ENDBRANCH   6  10
ENDBRANCH   4   5
ENDBRANCH   3   4
ENDBRANCH   2   3
ENDBRANCH   1   2
BRANCH   1  24
ATOM     24  C   LIG    1       25.051 -25.435   5.029  0.00  0.00    +0.041 C 
BRANCH  24  25
ATOM     25  C   LIG    1       24.348 -26.386   5.987  0.00  0.00    +0.243 C 
BRANCH  25  27
ATOM     26  C   LIG    1       24.737 -28.705   5.705  0.00  0.00    +0.425 C 
ATOM     27  N   LIG    1       25.185 -27.574   6.124  0.00  0.00    -0.110 NA
BRANCH  26  28
ATOM     28  N   LIG    1       23.566 -28.937   5.064  0.00  0.00    -0.286 N 
ATOM     29  H   LIG    1       22.978 -29.543   5.627  0.00  0.00    +0.255 HD
ATOM     30  H   LIG    1       23.671 -29.283   4.122  0.00  0.00    +0.255 HD
ENDBRANCH  26  28
BRANCH  26  31
ATOM     31  N   LIG    1       25.463 -29.833   5.919  0.00  0.00    -0.003 NA
ATOM     32  C   LIG    1       25.426 -30.505   7.026  0.00  0.00    +0.394 C 
BRANCH  32  33
ATOM     33  N   LIG    1       26.184 -31.635   7.032  0.00  0.00    -0.288 N 
ATOM     34  H   LIG    1       26.369 -31.956   7.976  0.00  0.00    +0.255 HD
ATOM     35  H   LIG    1       25.741 -32.353   6.471  0.00  0.00    +0.255 HD
ENDBRANCH  32  33
BRANCH  32  36
ATOM     36  N   LIG    1       24.712 -30.290   8.177  0.00  0.00    -0.243 N 
ATOM     37  H   LIG    1       23.729 -30.082   7.994  0.00  0.00    +0.265 HD
BRANCH  36  38
ATOM     38  C   LIG    1       25.206 -29.665   9.347  0.00  0.00    +0.100 A 
ATOM     39  C   LIG    1       26.352 -28.858   9.323  0.00  0.00    +0.043 A 
ATOM     40  C   LIG    1       26.842 -28.254  10.484  0.00  0.00    +0.023 A 
ATOM     41  C   LIG    1       26.179 -28.445  11.689  0.00  0.00    +0.041 A 
ATOM     42 CL   LIG    1       26.782 -27.700  13.119  0.00  0.00    -0.084 Cl
ATOM     43  C   LIG    1       25.031 -29.233  11.741  0.00  0.00    +0.023 A 
ATOM     44  C   LIG    1       24.541 -29.833  10.571  0.00  0.00    +0.043 A 
ENDBRANCH  36  38
ENDBRANCH  32  36
ENDBRANCH  26  31
ENDBRANCH  25  27
ENDBRANCH  24  25
ENDBRANCH   1  24
TORSDOF 17
ENDMDL
MODEL 2
REMARK VINA RESULT:      -8.4      0.376      9.662
REMARK  Name = *****
REMARK                            x       y       z     vdW  Elec       q    Type
REMARK                         _______ _______ _______ _____ _____    ______ ____
ROOT
ATOM      1  C   LIG    1       24.175 -24.184   6.584  0.00  0.00    +0.003 C 
ENDROOT
BRANCH   1   2
ATOM      2  C   LIG    1       25.086 -24.439   5.389  0.00  0.00    +0.003 C 
BRANCH   2   3
ATOM      3  C   LIG    1       25.464 -25.911   5.253  0.00  0.00    +0.041 C 
BRANCH   3   4
ATOM      4  C   LIG    1       24.491 -26.764   6.060  0.00  0.00    +0.243 C 
BRANCH   4   5
ATOM      5  N   LIG    1       25.164 -28.002   6.429  0.00  0.00    -0.110 NA
ATOM      6  C   LIG    1       24.676 -29.122   6.006  0.00  0.00    +0.425 C 
BRANCH   6   7
ATOM      7  N   LIG    1       23.550 -29.297   5.260  0.00  0.00    -0.286 N 
ATOM      8  H   LIG    1       23.722 -29.843   4.433  0.00  0.00    +0.255 HD
ATOM      9  H   LIG    1       22.709 -29.556   5.764  0.00  0.00    +0.255 HD
ENDBRANCH   6   7
BRANCH   6  10
ATOM     10  N   LIG    1       25.342 -30.258   6.306  0.00  0.00    -0.003 NA
ATOM     11  C   LIG    1       25.357 -30.792   7.493  0.00  0.00    +0.394 C 
BRANCH  11  12
ATOM     12  N   LIG    1       26.035 -31.964   7.583  0.00  0.00    -0.288 N 
ATOM     13  H   LIG    1       26.910 -32.035   7.089  0.00  0.00    +0.255 HD
ATOM     14  H   LIG    1       25.424 -32.762   7.450  0.00  0.00    +0.255 HD
ENDBRANCH  11  12
BRANCH  11  15
ATOM     15  N   LIG    1       24.698 -30.390   8.635  0.00  0.00    -0.243 N 
ATOM     16  H   LIG    1       23.730 -30.125   8.440  0.00  0.00    +0.265 HD
BRANCH  15  17
ATOM     17  C   LIG    1       25.226 -29.679   9.739  0.00  0.00    +0.100 A 
ATOM     18  C   LIG    1       26.411 -28.937   9.586  0.00  0.00    +0.043 A 
ATOM     19  C   LIG    1       26.935 -28.189  10.652  0.00  0.00    +0.023 A 
ATOM     20  C   LIG    1       26.276 -28.171  11.878  0.00  0.00    +0.041 A 
ATOM     21 CL   LIG    1       26.904 -27.251  13.189  0.00  0.00    -0.084 Cl
ATOM     22  C   LIG    1       25.114 -28.913  12.056  0.00  0.00    +0.023 A 
ATOM     23  C   LIG    1       24.613 -29.680  11.000  0.00  0.00    +0.043 A 
ENDBRANCH  15  17
ENDBRANCH  11  15
ENDBRANCH   6  10
ENDBRANCH   4   5
ENDBRANCH   3   4
ENDBRANCH   2   3
ENDBRANCH   1   2
BRANCH   1  24
ATOM     24  C   LIG    1       24.557 -22.870   7.262  0.00  0.00    +0.041 C 
BRANCH  24  25
ATOM     25  C   LIG    1       23.443 -21.837   7.166  0.00  0.00    +0.243 C 
BRANCH  25  27
ATOM     26  C   LIG    1       23.716 -20.636   5.144  0.00  0.00    +0.425 C 
ATOM     27  N   LIG    1       23.956 -20.702   6.406  0.00  0.00    -0.110 NA
BRANCH  26  28
ATOM     28  N   LIG    1       22.959 -21.485   4.407  0.00  0.00    -0.286 N 
ATOM     29  H   LIG    1       22.690 -21.041   3.535  0.00  0.00    +0.255 HD
ATOM     30  H   LIG    1       22.165 -21.864   4.899  0.00  0.00    +0.255 HD
ENDBRANCH  26  28
BRANCH  26  31
ATOM     31  N   LIG    1       24.273 -19.640   4.407  0.00  0.00    -0.003 NA
ATOM     32  C   LIG    1       25.548 -19.530   4.205  0.00  0.00    +0.394 C 
BRANCH  32  33
ATOM     33  N   LIG    1       25.910 -18.496   3.400  0.00  0.00    -0.288 N 
ATOM     34  H   LIG    1       25.182 -18.269   2.731  0.00  0.00    +0.255 HD
ATOM     35  H   LIG    1       26.168 -17.693   3.960  0.00  0.00    +0.255 HD
ENDBRANCH  32  33
BRANCH  32  36
ATOM     36  N   LIG    1       26.590 -20.313   4.632  0.00  0.00    -0.243 N 
ATOM     37  H   LIG    1       26.367 -21.309   4.603  0.00  0.00    +0.265 HD
BRANCH  36  38
ATOM     38  C   LIG    1       27.507 -19.976   5.655  0.00  0.00    +0.100 A 
ATOM     39  C   LIG    1       27.342 -20.431   6.971  0.00  0.00    +0.043 A 
ATOM     40  C   LIG    1       28.244 -20.084   7.981  0.00  0.00    +0.023 A 
ATOM     41  C   LIG    1       29.335 -19.280   7.679  0.00  0.00    +0.041 A 
ATOM     42 CL   LIG    1       30.447 -18.853   8.922  0.00  0.00    -0.084 Cl
ATOM     43  C   LIG    1       29.530 -18.821   6.378  0.00  0.00    +0.023 A 
ATOM     44  C   LIG    1       28.624 -19.177   5.367  0.00  0.00    +0.043 A 
ENDBRANCH  36  38
ENDBRANCH  32  36
ENDBRANCH  26  31
ENDBRANCH  25  27
ENDBRANCH  24  25
ENDBRANCH   1  24
TORSDOF 17
ENDMDL
MODEL 3
REMARK VINA RESULT:      -8.4      2.665     10.090
REMARK  Name = *****
REMARK                            x       y       z     vdW  Elec       q    Type
REMARK                         _______ _______ _______ _____ _____    ______ ____
ROOT
ATOM      1  C   LIG    1       23.489 -21.299   7.222  0.00  0.00    +0.003 C 
ENDROOT
BRANCH   1   2
ATOM      2  C   LIG    1       23.480 -22.415   6.185  0.00  0.00    +0.003 C 
BRANCH   2   3
ATOM      3  C   LIG    1       23.319 -23.794   6.819  0.00  0.00    +0.041 C 
BRANCH   3   4
ATOM      4  C   LIG    1       24.481 -24.687   6.399  0.00  0.00    +0.243 C 
BRANCH   4   5
ATOM      5  N   LIG    1       23.978 -26.044   6.231  0.00  0.00    -0.110 NA
ATOM      6  C   LIG    1       24.614 -26.846   5.441  0.00  0.00    +0.425 C 
BRANCH   6   7
ATOM      7  N   LIG    1       25.714 -26.559   4.692  0.00  0.00    -0.286 N 
ATOM      8  H   LIG    1       25.971 -27.319   4.085  0.00  0.00    +0.255 HD
ATOM      9  H   LIG    1       25.734 -25.646   4.249  0.00  0.00    +0.255 HD
ENDBRANCH   6   7
BRANCH   6  10
ATOM     10  N   LIG    1       24.173 -28.118   5.340  0.00  0.00    -0.003 NA
ATOM     11  C   LIG    1       24.680 -29.111   6.011  0.00  0.00    +0.394 C 
BRANCH  11  12
ATOM     12  N   LIG    1       24.065 -30.305   5.817  0.00  0.00    -0.288 N 
ATOM     13  H   LIG    1       23.938 -30.899   6.620  0.00  0.00    +0.255 HD
ATOM     14  H   LIG    1       24.433 -30.789   5.005  0.00  0.00    +0.255 HD
ENDBRANCH  11  12
BRANCH  11  15
ATOM     15  N   LIG    1       25.677 -29.098   6.962  0.00  0.00    -0.243 N 
ATOM     16  H   LIG    1       26.523 -29.566   6.630  0.00  0.00    +0.265 HD
BRANCH  15  17
ATOM     17  C   LIG    1       25.540 -29.196   8.368  0.00  0.00    +0.100 A 
ATOM     18  C   LIG    1       26.457 -28.537   9.204  0.00  0.00    +0.043 A 
ATOM     19  C   LIG    1       26.321 -28.583  10.601  0.00  0.00    +0.023 A 
ATOM     20  C   LIG    1       25.264 -29.284  11.173  0.00  0.00    +0.041 A 
ATOM     21 CL   LIG    1       25.082 -29.340  12.883  0.00  0.00    -0.084 Cl
ATOM     22  C   LIG    1       24.356 -29.959  10.365  0.00  0.00    +0.023 A 
ATOM     23  C   LIG    1       24.515 -29.935   8.976  0.00  0.00    +0.043 A 
ENDBRANCH  15  17
ENDBRANCH  11  15
ENDBRANCH   6  10
ENDBRANCH   4   5
ENDBRANCH   3   4
ENDBRANCH   2   3
ENDBRANCH   1   2
BRANCH   1  24
ATOM     24  C   LIG    1       24.876 -21.179   7.850  0.00  0.00    +0.041 C 
BRANCH  24  25
ATOM     25  C   LIG    1       25.839 -20.411   6.955  0.00  0.00    +0.243 C 
BRANCH  25  27
ATOM     26  C   LIG    1       28.181 -20.548   6.634  0.00  0.00    +0.425 C 
ATOM     27  N   LIG    1       27.190 -20.653   7.449  0.00  0.00    -0.110 NA
BRANCH  26  28
ATOM     28  N   LIG    1       28.138 -20.161   5.336  0.00  0.00    -0.286 N 
ATOM     29  H   LIG    1       27.336 -20.579   4.877  0.00  0.00    +0.255 HD
ATOM     30  H   LIG    1       28.993 -20.328   4.827  0.00  0.00    +0.255 HD
ENDBRANCH  26  28
BRANCH  26  31
ATOM     31  N   LIG    1       29.431 -20.869   7.056  0.00  0.00    -0.003 NA
ATOM     32  C   LIG    1       30.231 -20.023   7.625  0.00  0.00    +0.394 C 
BRANCH  32  33
ATOM     33  N   LIG    1       31.423 -20.545   8.022  0.00  0.00    -0.288 N 
ATOM     34  H   LIG    1       31.456 -20.681   9.027  0.00  0.00    +0.255 HD
ATOM     35  H   LIG    1       31.611 -21.404   7.520  0.00  0.00    +0.255 HD
ENDBRANCH  32  33
BRANCH  32  36
ATOM     36  N   LIG    1       30.056 -18.699   7.936  0.00  0.00    -0.243 N 
ATOM     37  H   LIG    1       29.901 -18.121   7.108  0.00  0.00    +0.265 HD
BRANCH  36  38
ATOM     38  C   LIG    1       30.706 -18.007   8.985  0.00  0.00    +0.100 A 
ATOM     39  C   LIG    1       30.167 -17.958  10.279  0.00  0.00    +0.043 A 
ATOM     40  C   LIG    1       30.807 -17.262  11.308  0.00  0.00    +0.023 A 
ATOM     41  C   LIG    1       32.008 -16.611  11.054  0.00  0.00    +0.041 A 
ATOM     42 CL   LIG    1       32.796 -15.755  12.322  0.00  0.00    -0.084 Cl
ATOM     43  C   LIG    1       32.572 -16.652   9.780  0.00  0.00    +0.023 A 
ATOM     44  C   LIG    1       31.927 -17.356   8.752  0.00  0.00    +0.043 A 
ENDBRANCH  36  38
ENDBRANCH  32  36
ENDBRANCH  26  31
ENDBRANCH  25  27
ENDBRANCH  24  25
ENDBRANCH   1  24
TORSDOF 17
ENDMDL
MODEL 4
REMARK VINA RESULT:      -8.4      3.219      5.143
REMARK  Name = *****
REMARK                            x       y       z     vdW  Elec       q    Type
REMARK                         _______ _______ _______ _____ _____    ______ ____
ROOT
ATOM      1  C   LIG    1       24.236 -28.677   6.495  0.00  0.00    +0.003 C 
ENDROOT
BRANCH   1   2
ATOM      2  C   LIG    1       24.625 -28.329   5.063  0.00  0.00    +0.003 C 
BRANCH   2   3
ATOM      3  C   LIG    1       25.833 -27.399   5.000  0.00  0.00    +0.041 C 
BRANCH   3   4
ATOM      4  C   LIG    1       25.369 -25.982   4.679  0.00  0.00    +0.243 C 
BRANCH   4   5
ATOM      5  N   LIG    1       25.941 -25.078   5.668  0.00  0.00    -0.110 NA
ATOM      6  C   LIG    1       25.143 -24.460   6.477  0.00  0.00    +0.425 C 
BRANCH   6   7
ATOM      7  N   LIG    1       23.783 -24.526   6.497  0.00  0.00    -0.286 N 
ATOM      8  H   LIG    1       23.430 -24.839   7.385  0.00  0.00    +0.255 HD
ATOM      9  H   LIG    1       23.286 -23.733   6.106  0.00  0.00    +0.255 HD
ENDBRANCH   6   7
BRANCH   6  10
ATOM     10  N   LIG    1       25.688 -23.671   7.427  0.00  0.00    -0.003 NA
ATOM     11  C   LIG    1       26.113 -22.461   7.201  0.00  0.00    +0.394 C 
BRANCH  11  12
ATOM     12  N   LIG    1       26.577 -21.806   8.294  0.00  0.00    -0.288 N 
ATOM     13  H   LIG    1       26.307 -20.842   8.409  0.00  0.00    +0.255 HD
ATOM     14  H   LIG    1       27.566 -21.973   8.441  0.00  0.00    +0.255 HD
ENDBRANCH  11  12
BRANCH  11  15
ATOM     15  N   LIG    1       26.061 -21.725   6.037  0.00  0.00    -0.243 N 
ATOM     16  H   LIG    1       26.976 -21.341   5.792  0.00  0.00    +0.265 HD
BRANCH  15  17
ATOM     17  C   LIG    1       25.005 -20.904   5.574  0.00  0.00    +0.100 A 
ATOM     18  C   LIG    1       25.140 -20.217   4.356  0.00  0.00    +0.043 A 
ATOM     19  C   LIG    1       24.093 -19.429   3.852  0.00  0.00    +0.023 A 
ATOM     20  C   LIG    1       22.899 -19.326   4.560  0.00  0.00    +0.041 A 
ATOM     21 CL   LIG    1       21.606 -18.371   3.948  0.00  0.00    -0.084 Cl
ATOM     22  C   LIG    1       22.751 -19.982   5.776  0.00  0.00    +0.023 A 
ATOM     23  C   LIG    1       23.808 -20.741   6.287  0.00  0.00    +0.043 A 
ENDBRANCH  15  17
ENDBRANCH  11  15
ENDBRANCH   6  10
ENDBRANCH   4   5
ENDBRANCH   3   4
ENDBRANCH   2   3
ENDBRANCH   1   2
BRANCH   1  24
ATOM     24  C   LIG    1       24.629 -30.119   6.808  0.00  0.00    +0.041 C 
BRANCH  24  25
ATOM     25  C   LIG    1       24.530 -30.423   8.296  0.00  0.00    +0.243 C 
BRANCH  25  27
ATOM     26  C   LIG    1       26.438 -29.598   9.429  0.00  0.00    +0.425 C 
ATOM     27  N   LIG    1       25.242 -29.370   9.011  0.00  0.00    -0.110 NA
BRANCH  26  28
ATOM     28  N   LIG    1       27.179 -30.714   9.226  0.00  0.00    -0.286 N 
ATOM     29  H   LIG    1       27.292 -31.218  10.099  0.00  0.00    +0.255 HD
ATOM     30  H   LIG    1       28.064 -30.546   8.770  0.00  0.00    +0.255 HD
ENDBRANCH  26  28
BRANCH  26  31
ATOM     31  N   LIG    1       27.073 -28.664  10.182  0.00  0.00    -0.003 NA
ATOM     32  C   LIG    1       26.784 -28.432  11.424  0.00  0.00    +0.394 C 
BRANCH  32  33
ATOM     33  N   LIG    1       27.564 -27.494  12.026  0.00  0.00    -0.288 N 
ATOM     34  H   LIG    1       27.145 -27.152  12.883  0.00  0.00    +0.255 HD
ATOM     35  H   LIG    1       28.493 -27.865  12.185  0.00  0.00    +0.255 HD
ENDBRANCH  32  33
BRANCH  32  36
ATOM     36  N   LIG    1       25.851 -29.010  12.246  0.00  0.00    -0.243 N 
ATOM     37  H   LIG    1       25.882 -30.030  12.216  0.00  0.00    +0.265 HD
BRANCH  36  38
ATOM     38  C   LIG    1       24.557 -28.500  12.509  0.00  0.00    +0.100 A 
ATOM     39  C   LIG    1       24.367 -27.263  13.140  0.00  0.00    +0.043 A 
ATOM     40  C   LIG    1       23.087 -26.770  13.409  0.00  0.00    +0.023 A 
ATOM     41  C   LIG    1       21.974 -27.512  13.036  0.00  0.00    +0.041 A 
ATOM     42 CL   LIG    1       20.397 -26.905  13.365  0.00  0.00    -0.084 Cl
ATOM     43  C   LIG    1       22.132 -28.740  12.396  0.00  0.00    +0.023 A 
ATOM     44  C   LIG    1       23.420 -29.228  12.125  0.00  0.00    +0.043 A 
ENDBRANCH  36  38
ENDBRANCH  32  36
ENDBRANCH  26  31
ENDBRANCH  25  27
ENDBRANCH  24  25
ENDBRANCH   1  24
TORSDOF 17
ENDMDL
MODEL 5
REMARK VINA RESULT:      -8.4      3.262      9.900
REMARK  Name = *****
REMARK                            x       y       z     vdW  Elec       q    Type
REMARK                         _______ _______ _______ _____ _____    ______ ____
ROOT
ATOM      1  C   LIG    1       24.437 -28.239   5.322  0.00  0.00    +0.003 C 
ENDROOT
BRANCH   1   2
ATOM      2  C   LIG    1       24.460 -28.647   6.790  0.00  0.00    +0.003 C 
BRANCH   2   3
ATOM      3  C   LIG    1       24.755 -30.133   6.973  0.00  0.00    +0.041 C 
BRANCH   3   4
ATOM      4  C   LIG    1       24.673 -30.490   8.453  0.00  0.00    +0.243 C 
BRANCH   4   5
ATOM      5  N   LIG    1       25.309 -29.427   9.218  0.00  0.00    -0.110 NA
ATOM      6  C   LIG    1       26.477 -29.645   9.729  0.00  0.00    +0.425 C 
BRANCH   6   7
ATOM      7  N   LIG    1       27.195 -30.800   9.669  0.00  0.00    -0.286 N 
ATOM      8  H   LIG    1       27.725 -30.963  10.509  0.00  0.00    +0.255 HD
ATOM      9  H   LIG    1       26.709 -31.618   9.318  0.00  0.00    +0.255 HD
ENDBRANCH   6   7
BRANCH   6  10
ATOM     10  N   LIG    1       27.082 -28.632  10.385  0.00  0.00    -0.003 NA
ATOM     11  C   LIG    1       26.749 -28.249  11.584  0.00  0.00    +0.394 C 
BRANCH  11  12
ATOM     12  N   LIG    1       27.511 -27.251  12.097  0.00  0.00    -0.288 N 
ATOM     13  H   LIG    1       27.035 -26.489  12.552  0.00  0.00    +0.255 HD
ATOM     14  H   LIG    1       28.229 -26.954  11.446  0.00  0.00    +0.255 HD
ENDBRANCH  11  12
BRANCH  11  15
ATOM     15  N   LIG    1       25.806 -28.783  12.436  0.00  0.00    -0.243 N 
ATOM     16  H   LIG    1       25.877 -29.801  12.488  0.00  0.00    +0.265 HD
BRANCH  15  17
ATOM     17  C   LIG    1       24.482 -28.336  12.657  0.00  0.00    +0.100 A 
ATOM     18  C   LIG    1       24.260 -27.076  13.240  0.00  0.00    +0.043 A 
ATOM     19  C   LIG    1       22.957 -26.590  13.433  0.00  0.00    +0.023 A 
ATOM     20  C   LIG    1       21.865 -27.357  13.040  0.00  0.00    +0.041 A 
ATOM     21 CL   LIG    1       20.264 -26.768  13.264  0.00  0.00    -0.084 Cl
ATOM     22  C   LIG    1       22.061 -28.614  12.479  0.00  0.00    +0.023 A 
ATOM     23  C   LIG    1       23.359 -29.105  12.317  0.00  0.00    +0.043 A 
ENDBRANCH  15  17
ENDBRANCH  11  15
ENDBRANCH   6  10
ENDBRANCH   4   5
ENDBRANCH   3   4
ENDBRANCH   2   3
ENDBRANCH   1   2
BRANCH   1  24
ATOM     24  C   LIG    1       25.701 -27.454   4.977  0.00  0.00    +0.041 C 
BRANCH  24  25
ATOM     25  C   LIG    1       25.396 -25.992   4.679  0.00  0.00    +0.243 C 
BRANCH  25  27
ATOM     26  C   LIG    1       25.170 -24.499   6.502  0.00  0.00    +0.425 C 
ATOM     27  N   LIG    1       25.960 -25.193   5.762  0.00  0.00    -0.110 NA
BRANCH  26  28
ATOM     28  N   LIG    1       23.816 -24.461   6.448  0.00  0.00    -0.286 N 
ATOM     29  H   LIG    1       23.485 -23.537   6.703  0.00  0.00    +0.255 HD
ATOM     30  H   LIG    1       23.361 -25.187   6.981  0.00  0.00    +0.255 HD
ENDBRANCH  26  28
BRANCH  26  31
ATOM     31  N   LIG    1       25.690 -23.673   7.446  0.00  0.00    -0.003 NA
ATOM     32  C   LIG    1       26.094 -22.467   7.196  0.00  0.00    +0.394 C 
BRANCH  32  33
ATOM     33  N   LIG    1       26.536 -21.777   8.281  0.00  0.00    -0.288 N 
ATOM     34  H   LIG    1       27.082 -22.365   8.901  0.00  0.00    +0.255 HD
ATOM     35  H   LIG    1       27.056 -20.960   7.984  0.00  0.00    +0.255 HD
ENDBRANCH  32  33
BRANCH  32  36
ATOM     36  N   LIG    1       26.104 -21.755   6.023  0.00  0.00    -0.243 N 
ATOM     37  H   LIG    1       27.025 -21.372   5.808  0.00  0.00    +0.265 HD
BRANCH  36  38
ATOM     38  C   LIG    1       25.040 -20.960   5.534  0.00  0.00    +0.100 A 
ATOM     39  C   LIG    1       25.114 -20.314   4.292  0.00  0.00    +0.043 A 
ATOM     40  C   LIG    1       24.066 -19.520   3.820  0.00  0.00    +0.023 A 
ATOM     41  C   LIG    1       22.919 -19.369   4.589  0.00  0.00    +0.041 A 
ATOM     42 CL   LIG    1       21.627 -18.392   4.007  0.00  0.00    -0.084 Cl
ATOM     43  C   LIG    1       22.813 -20.008   5.823  0.00  0.00    +0.023 A 
ATOM     44  C   LIG    1       23.867 -20.808   6.289  0.00  0.00    +0.043 A 
ENDBRANCH  36  38
ENDBRANCH  32  36
ENDBRANCH  26  31
ENDBRANCH  25  27
ENDBRANCH  24  25
ENDBRANCH   1  24
TORSDOF 17
ENDMDL
MODEL 6
REMARK VINA RESULT:      -8.2      1.008      1.385
REMARK  Name = *****
REMARK                            x       y       z     vdW  Elec       q    Type
REMARK                         _______ _______ _______ _____ _____    ______ ____
ROOT
ATOM      1  C   LIG    1       25.171 -25.395   5.258  0.00  0.00    +0.003 C 
ENDROOT
BRANCH   1   2
ATOM      2  C   LIG    1       25.895 -24.953   6.524  0.00  0.00    +0.003 C 
BRANCH   2   3
ATOM      3  C   LIG    1       25.456 -23.568   6.989  0.00  0.00    +0.041 C 
BRANCH   3   4
ATOM      4  C   LIG    1       24.149 -23.189   6.301  0.00  0.00    +0.243 C 
BRANCH   4   5
ATOM      5  N   LIG    1       24.430 -22.142   5.328  0.00  0.00    -0.110 NA
ATOM      6  C   LIG    1       24.023 -20.941   5.576  0.00  0.00    +0.425 C 
BRANCH   6   7
ATOM      7  N   LIG    1       23.308 -20.524   6.658  0.00  0.00    -0.286 N 
ATOM      8  H   LIG    1       23.813 -20.648   7.519  0.00  0.00    +0.255 HD
ATOM      9  H   LIG    1       22.842 -19.627   6.573  0.00  0.00    +0.255 HD
ENDBRANCH   6   7
BRANCH   6  10
ATOM     10  N   LIG    1       24.341 -19.968   4.695  0.00  0.00    -0.003 NA
ATOM     11  C   LIG    1       25.563 -19.687   4.344  0.00  0.00    +0.394 C 
BRANCH  11  12
ATOM     12  N   LIG    1       25.677 -18.714   3.405  0.00  0.00    -0.288 N 
ATOM     13  H   LIG    1       25.882 -17.781   3.723  0.00  0.00    +0.255 HD
ATOM     14  H   LIG    1       24.926 -18.759   2.725  0.00  0.00    +0.255 HD
ENDBRANCH  11  12
BRANCH  11  15
ATOM     15  N   LIG    1       26.738 -20.305   4.714  0.00  0.00    -0.243 N 
ATOM     16  H   LIG    1       26.673 -21.321   4.629  0.00  0.00    +0.265 HD
BRANCH  15  17
ATOM     17  C   LIG    1       27.640 -19.918   5.733  0.00  0.00    +0.100 A 
ATOM     18  C   LIG    1       27.442 -20.375   7.048  0.00  0.00    +0.043 A 
ATOM     19  C   LIG    1       28.345 -20.042   8.070  0.00  0.00    +0.023 A 
ATOM     20  C   LIG    1       29.455 -19.253   7.786  0.00  0.00    +0.041 A 
ATOM     21 CL   LIG    1       30.572 -18.845   9.030  0.00  0.00    -0.084 Cl
ATOM     22  C   LIG    1       29.660 -18.775   6.497  0.00  0.00    +0.023 A 
ATOM     23  C   LIG    1       28.742 -19.085   5.490  0.00  0.00    +0.043 A 
ENDBRANCH  15  17
ENDBRANCH  11  15
ENDBRANCH   6  10
ENDBRANCH   4   5
ENDBRANCH   3   4
ENDBRANCH   2   3
ENDBRANCH   1   2
BRANCH   1  24
ATOM     24  C   LIG    1       24.400 -26.687   5.519  0.00  0.00    +0.041 C 
BRANCH  24  25
ATOM     25  C   LIG    1       25.329 -27.839   5.875  0.00  0.00    +0.243 C 
BRANCH  25  27
ATOM     26  C   LIG    1       24.414 -29.977   6.320  0.00  0.00    +0.425 C 
ATOM     27  N   LIG    1       24.582 -28.765   6.719  0.00  0.00    -0.110 NA
BRANCH  26  28
ATOM     28  N   LIG    1       24.918 -30.549   5.199  0.00  0.00    -0.286 N 
ATOM     29  H   LIG    1       24.883 -29.890   4.429  0.00  0.00    +0.255 HD
ATOM     30  H   LIG    1       24.495 -31.433   4.960  0.00  0.00    +0.255 HD
ENDBRANCH  26  28
BRANCH  26  31
ATOM     31  N   LIG    1       23.636 -30.820   7.047  0.00  0.00    -0.003 NA
ATOM     32  C   LIG    1       24.022 -31.370   8.155  0.00  0.00    +0.394 C 
BRANCH  32  33
ATOM     33  N   LIG    1       23.084 -32.144   8.764  0.00  0.00    -0.288 N 
ATOM     34  H   LIG    1       22.462 -31.591   9.345  0.00  0.00    +0.255 HD
ATOM     35  H   LIG    1       22.574 -32.680   8.072  0.00  0.00    +0.255 HD
ENDBRANCH  32  33
BRANCH  32  36
ATOM     36  N   LIG    1       25.206 -31.263   8.839  0.00  0.00    -0.243 N 
ATOM     37  H   LIG    1       25.592 -32.173   9.095  0.00  0.00    +0.265 HD
BRANCH  36  38
ATOM     38  C   LIG    1       25.534 -30.238   9.759  0.00  0.00    +0.100 A 
ATOM     39  C   LIG    1       26.627 -29.385   9.551  0.00  0.00    +0.043 A 
ATOM     40  C   LIG    1       26.954 -28.384  10.469  0.00  0.00    +0.023 A 
ATOM     41  C   LIG    1       26.180 -28.218  11.610  0.00  0.00    +0.041 A 
ATOM     42 CL   LIG    1       26.582 -26.984  12.740  0.00  0.00    -0.084 Cl
ATOM     43  C   LIG    1       25.081 -29.045  11.837  0.00  0.00    +0.023 A 
ATOM     44  C   LIG    1       24.755 -30.046  10.910  0.00  0.00    +0.043 A 
ENDBRANCH  36  38
ENDBRANCH  32  36
ENDBRANCH  26  31
ENDBRANCH  25  27
ENDBRANCH  24  25
ENDBRANCH   1  24
TORSDOF 17
ENDMDL
MODEL 7
REMARK VINA RESULT:      -8.2      2.251      9.990
REMARK  Name = *****
REMARK                            x       y       z     vdW  Elec       q    Type
REMARK                         _______ _______ _______ _____ _____    ______ ____
ROOT
ATOM      1  C   LIG    1       25.857 -23.701   7.173  0.00  0.00    +0.003 C 
ENDROOT
BRANCH   1   2
ATOM      2  C   LIG    1       24.994 -24.025   5.960  0.00  0.00    +0.003 C 
BRANCH   2   3
ATOM      3  C   LIG    1       25.282 -25.415   5.399  0.00  0.00    +0.041 C 
BRANCH   3   4
ATOM      4  C   LIG    1       24.334 -26.426   6.032  0.00  0.00    +0.243 C 
BRANCH   4   5
ATOM      5  N   LIG    1       25.083 -27.643   6.315  0.00  0.00    -0.110 NA
ATOM      6  C   LIG    1       24.663 -28.759   5.815  0.00  0.00    +0.425 C 
BRANCH   6   7
ATOM      7  N   LIG    1       23.547 -28.950   5.058  0.00  0.00    -0.286 N 
ATOM      8  H   LIG    1       22.935 -29.645   5.451  0.00  0.00    +0.255 HD
ATOM      9  H   LIG    1       23.074 -28.115   4.731  0.00  0.00    +0.255 HD
ENDBRANCH   6   7
BRANCH   6  10
ATOM     10  N   LIG    1       25.399 -29.870   6.034  0.00  0.00    -0.003 NA
ATOM     11  C   LIG    1       25.442 -30.489   7.178  0.00  0.00    +0.394 C 
BRANCH  11  12
ATOM     12  N   LIG    1       26.194 -31.619   7.187  0.00  0.00    -0.288 N 
ATOM     13  H   LIG    1       26.287 -32.123   6.320  0.00  0.00    +0.255 HD
ATOM     14  H   LIG    1       25.974 -32.210   7.981  0.00  0.00    +0.255 HD
ENDBRANCH  11  12
BRANCH  11  15
ATOM     15  N   LIG    1       24.755 -30.218   8.341  0.00  0.00    -0.243 N 
ATOM     16  H   LIG    1       23.790 -29.938   8.153  0.00  0.00    +0.265 HD
BRANCH  15  17
ATOM     17  C   LIG    1       25.252 -29.626   9.527  0.00  0.00    +0.100 A 
ATOM     18  C   LIG    1       26.392 -28.806   9.471  0.00  0.00    +0.043 A 
ATOM     19  C   LIG    1       26.882 -28.173  10.625  0.00  0.00    +0.023 A 
ATOM     20  C   LIG    1       26.234 -28.352  11.843  0.00  0.00    +0.041 A 
ATOM     21 CL   LIG    1       26.821 -27.575  13.261  0.00  0.00    -0.084 Cl
ATOM     22  C   LIG    1       25.116 -29.175  11.925  0.00  0.00    +0.023 A 
ATOM     23  C   LIG    1       24.651 -29.826  10.779  0.00  0.00    +0.043 A 
ENDBRANCH  15  17
ENDBRANCH  11  15
ENDBRANCH   6  10
ENDBRANCH   4   5
ENDBRANCH   3   4
ENDBRANCH   2   3
ENDBRANCH   1   2
BRANCH   1  24
ATOM     24  C   LIG    1       25.212 -22.583   7.991  0.00  0.00    +0.041 C 
BRANCH  24  25
ATOM     25  C   LIG    1       26.250 -21.751   8.731  0.00  0.00    +0.243 C 
BRANCH  25  27
ATOM     26  C   LIG    1       27.983 -20.709   7.499  0.00  0.00    +0.425 C 
ATOM     27  N   LIG    1       26.734 -20.728   7.810  0.00  0.00    -0.110 NA
BRANCH  26  28
ATOM     28  N   LIG    1       28.937 -21.593   7.880  0.00  0.00    -0.286 N 
ATOM     29  H   LIG    1       28.506 -22.398   8.322  0.00  0.00    +0.255 HD
ATOM     30  H   LIG    1       29.666 -21.193   8.453  0.00  0.00    +0.255 HD
ENDBRANCH  26  28
BRANCH  26  31
ATOM     31  N   LIG    1       28.465 -19.702   6.726  0.00  0.00    -0.003 NA
ATOM     32  C   LIG    1       28.084 -19.496   5.505  0.00  0.00    +0.394 C 
BRANCH  32  33
ATOM     33  N   LIG    1       28.642 -18.408   4.909  0.00  0.00    -0.288 N 
ATOM     34  H   LIG    1       29.393 -18.019   5.469  0.00  0.00    +0.255 HD
ATOM     35  H   LIG    1       28.955 -18.646   3.975  0.00  0.00    +0.255 HD
ENDBRANCH  32  33
BRANCH  32  36
ATOM     36  N   LIG    1       27.173 -20.167   4.729  0.00  0.00    -0.243 N 
ATOM     37  H   LIG    1       27.594 -20.564   3.887  0.00  0.00    +0.265 HD
BRANCH  36  38
ATOM     38  C   LIG    1       25.815 -19.806   4.556  0.00  0.00    +0.100 A 
ATOM     39  C   LIG    1       25.428 -18.808   3.650  0.00  0.00    +0.043 A 
ATOM     40  C   LIG    1       24.087 -18.447   3.493  0.00  0.00    +0.023 A 
ATOM     41  C   LIG    1       23.110 -19.093   4.240  0.00  0.00    +0.041 A 
ATOM     42 CL   LIG    1       21.459 -18.649   4.045  0.00  0.00    -0.084 Cl
ATOM     43  C   LIG    1       23.465 -20.096   5.140  0.00  0.00    +0.023 A 
ATOM     44  C   LIG    1       24.813 -20.458   5.290  0.00  0.00    +0.043 A 
ENDBRANCH  36  38
ENDBRANCH  32  36
ENDBRANCH  26  31
ENDBRANCH  25  27
ENDBRANCH  24  25
ENDBRANCH   1  24
TORSDOF 17
ENDMDL
MODEL 8
REMARK VINA RESULT:      -8.1      2.426      3.589
REMARK  Name = *****
REMARK                            x       y       z     vdW  Elec       q    Type
REMARK                         _______ _______ _______ _____ _____    ______ ____
ROOT
ATOM      1  C   LIG    1       23.619 -22.667   7.134  0.00  0.00    +0.003 C 
ENDROOT
BRANCH   1   2
ATOM      2  C   LIG    1       23.484 -21.602   6.052  0.00  0.00    +0.003 C 
BRANCH   2   3
ATOM      3  C   LIG    1       24.766 -21.434   5.242  0.00  0.00    +0.041 C 
BRANCH   3   4
ATOM      4  C   LIG    1       25.588 -20.288   5.822  0.00  0.00    +0.243 C 
BRANCH   4   5
ATOM      5  N   LIG    1       26.873 -20.820   6.256  0.00  0.00    -0.110 NA
ATOM      6  C   LIG    1       27.118 -20.890   7.524  0.00  0.00    +0.425 C 
BRANCH   6   7
ATOM      7  N   LIG    1       26.308 -20.482   8.539  0.00  0.00    -0.286 N 
ATOM      8  H   LIG    1       26.766 -20.525   9.434  0.00  0.00    +0.255 HD
ATOM      9  H   LIG    1       25.781 -19.629   8.383  0.00  0.00    +0.255 HD
ENDBRANCH   6   7
BRANCH   6  10
ATOM     10  N   LIG    1       28.287 -21.439   7.915  0.00  0.00    -0.003 NA
ATOM     11  C   LIG    1       29.404 -20.775   7.991  0.00  0.00    +0.394 C 
BRANCH  11  12
ATOM     12  N   LIG    1       30.461 -21.487   8.458  0.00  0.00    -0.288 N 
ATOM     13  H   LIG    1       30.853 -22.190   7.853  0.00  0.00    +0.255 HD
ATOM     14  H   LIG    1       30.308 -21.804   9.409  0.00  0.00    +0.255 HD
ENDBRANCH  11  12
BRANCH  11  15
ATOM     15  N   LIG    1       29.637 -19.436   7.764  0.00  0.00    -0.243 N 
ATOM     16  H   LIG    1       29.756 -19.236   6.768  0.00  0.00    +0.265 HD
BRANCH  15  17
ATOM     17  C   LIG    1       30.364 -18.530   8.573  0.00  0.00    +0.100 A 
ATOM     18  C   LIG    1       29.771 -18.004   9.734  0.00  0.00    +0.043 A 
ATOM     19  C   LIG    1       30.484 -17.136  10.577  0.00  0.00    +0.023 A 
ATOM     20  C   LIG    1       31.796 -16.791  10.269  0.00  0.00    +0.041 A 
ATOM     21 CL   LIG    1       32.681 -15.736  11.299  0.00  0.00    -0.084 Cl
ATOM     22  C   LIG    1       32.395 -17.285   9.116  0.00  0.00    +0.023 A 
ATOM     23  C   LIG    1       31.670 -18.124   8.265  0.00  0.00    +0.043 A 
ENDBRANCH  15  17
ENDBRANCH  11  15
ENDBRANCH   6  10
ENDBRANCH   4   5
ENDBRANCH   3   4
ENDBRANCH   2   3
ENDBRANCH   1   2
BRANCH   1  24
ATOM     24  C   LIG    1       23.314 -24.046   6.552  0.00  0.00    +0.041 C 
BRANCH  24  25
ATOM     25  C   LIG    1       24.554 -24.929   6.509  0.00  0.00    +0.243 C 
BRANCH  25  27
ATOM     26  C   LIG    1       24.653 -27.094   5.555  0.00  0.00    +0.425 C 
ATOM     27  N   LIG    1       24.107 -26.315   6.422  0.00  0.00    -0.110 NA
BRANCH  26  28
ATOM     28  N   LIG    1       25.680 -26.800   4.720  0.00  0.00    -0.286 N 
ATOM     29  H   LIG    1       26.024 -27.649   4.284  0.00  0.00    +0.255 HD
ATOM     30  H   LIG    1       26.422 -26.269   5.149  0.00  0.00    +0.255 HD
ENDBRANCH  26  28
BRANCH  26  31
ATOM     31  N   LIG    1       24.177 -28.355   5.394  0.00  0.00    -0.003 NA
ATOM     32  C   LIG    1       24.650 -29.382   6.028  0.00  0.00    +0.394 C 
BRANCH  32  33
ATOM     33  N   LIG    1       24.009 -30.554   5.772  0.00  0.00    -0.288 N 
ATOM     34  H   LIG    1       23.221 -30.422   5.147  0.00  0.00    +0.255 HD
ATOM     35  H   LIG    1       24.665 -31.237   5.410  0.00  0.00    +0.255 HD
ENDBRANCH  32  33
BRANCH  32  36
ATOM     36  N   LIG    1       25.660 -29.474   6.950  0.00  0.00    -0.243 N 
ATOM     37  H   LIG    1       26.397 -30.118   6.660  0.00  0.00    +0.265 HD
BRANCH  36  38
ATOM     38  C   LIG    1       25.500 -29.408   8.355  0.00  0.00    +0.100 A 
ATOM     39  C   LIG    1       24.430 -30.040   9.005  0.00  0.00    +0.043 A 
ATOM     40  C   LIG    1       24.270 -29.960  10.391  0.00  0.00    +0.023 A 
ATOM     41  C   LIG    1       25.192 -29.249  11.149  0.00  0.00    +0.041 A 
ATOM     42 CL   LIG    1       24.996 -29.152  12.856  0.00  0.00    -0.084 Cl
ATOM     43  C   LIG    1       26.271 -28.620  10.531  0.00  0.00    +0.023 A 
ATOM     44  C   LIG    1       26.429 -28.707   9.139  0.00  0.00    +0.043 A 
ENDBRANCH  36  38
ENDBRANCH  32  36
ENDBRANCH  26  31
ENDBRANCH  25  27
ENDBRANCH  24  25
ENDBRANCH   1  24
TORSDOF 17
ENDMDL
MODEL 9
REMARK VINA RESULT:      -8.1      2.942      9.866
REMARK  Name = *****
REMARK                            x       y       z     vdW  Elec       q    Type
REMARK                         _______ _______ _______ _____ _____    ______ ____
ROOT
ATOM      1  C   LIG    1       24.571 -20.703   7.258  0.00  0.00    +0.003 C 
ENDROOT
BRANCH   1   2
ATOM      2  C   LIG    1       23.229 -21.269   6.809  0.00  0.00    +0.003 C 
BRANCH   2   3
ATOM      3  C   LIG    1       22.869 -22.558   7.541  0.00  0.00    +0.041 C 
BRANCH   3   4
ATOM      4  C   LIG    1       22.710 -23.690   6.532  0.00  0.00    +0.243 C 
BRANCH   4   5
ATOM      5  N   LIG    1       23.906 -24.521   6.583  0.00  0.00    -0.110 NA
ATOM      6  C   LIG    1       24.823 -24.341   5.690  0.00  0.00    +0.425 C 
BRANCH   6   7
ATOM      7  N   LIG    1       24.794 -23.463   4.649  0.00  0.00    -0.286 N 
ATOM      8  H   LIG    1       23.884 -23.407   4.223  0.00  0.00    +0.255 HD
ATOM      9  H   LIG    1       25.237 -22.564   4.803  0.00  0.00    +0.255 HD
ENDBRANCH   6   7
BRANCH   6  10
ATOM     10  N   LIG    1       25.952 -25.075   5.782  0.00  0.00    -0.003 NA
ATOM     11  C   LIG    1       25.962 -26.375   5.845  0.00  0.00    +0.394 C 
BRANCH  11  12
ATOM     12  N   LIG    1       27.197 -26.936   5.877  0.00  0.00    -0.288 N 
ATOM     13  H   LIG    1       27.447 -27.465   6.697  0.00  0.00    +0.255 HD
ATOM     14  H   LIG    1       27.913 -26.285   5.576  0.00  0.00    +0.255 HD
ENDBRANCH  11  12
BRANCH  11  15
ATOM     15  N   LIG    1       24.905 -27.257   5.778  0.00  0.00    -0.243 N 
ATOM     16  H   LIG    1       24.013 -26.793   5.968  0.00  0.00    +0.265 HD
BRANCH  15  17
ATOM     17  C   LIG    1       24.882 -28.618   6.164  0.00  0.00    +0.100 A 
ATOM     18  C   LIG    1       24.551 -28.961   7.486  0.00  0.00    +0.043 A 
ATOM     19  C   LIG    1       24.480 -30.305   7.886  0.00  0.00    +0.023 A 
ATOM     20  C   LIG    1       24.735 -31.318   6.966  0.00  0.00    +0.041 A 
ATOM     21 CL   LIG    1       24.642 -32.968   7.443  0.00  0.00    -0.084 Cl
ATOM     22  C   LIG    1       25.082 -31.000   5.658  0.00  0.00    +0.023 A 
ATOM     23  C   LIG    1       25.181 -29.660   5.274  0.00  0.00    +0.043 A 
ENDBRANCH  15  17
ENDBRANCH  11  15
ENDBRANCH   6  10
ENDBRANCH   4   5
ENDBRANCH   3   4
ENDBRANCH   2   3
ENDBRANCH   1   2
BRANCH   1  24
ATOM     24  C   LIG    1       25.176 -21.591   8.343  0.00  0.00    +0.041 C 
BRANCH  24  25
ATOM     25  C   LIG    1       26.684 -21.409   8.448  0.00  0.00    +0.243 C 
BRANCH  25  27
ATOM     26  C   LIG    1       28.100 -20.544   6.760  0.00  0.00    +0.425 C 
ATOM     27  N   LIG    1       27.070 -20.362   7.508  0.00  0.00    -0.110 NA
BRANCH  26  28
ATOM     28  N   LIG    1       28.870 -21.657   6.680  0.00  0.00    -0.286 N 
ATOM     29  H   LIG    1       29.085 -21.997   7.611  0.00  0.00    +0.255 HD
ATOM     30  H   LIG    1       29.701 -21.545   6.118  0.00  0.00    +0.255 HD
ENDBRANCH  26  28
BRANCH  26  31
ATOM     31  N   LIG    1       28.529 -19.538   5.955  0.00  0.00    -0.003 NA
ATOM     32  C   LIG    1       29.678 -18.955   6.092  0.00  0.00    +0.394 C 
BRANCH  32  33
ATOM     33  N   LIG    1       29.951 -18.005   5.158  0.00  0.00    -0.288 N 
ATOM     34  H   LIG    1       30.508 -17.250   5.543  0.00  0.00    +0.255 HD
ATOM     35  H   LIG    1       30.396 -18.427   4.352  0.00  0.00    +0.255 HD
ENDBRANCH  32  33
BRANCH  32  36
ATOM     36  N   LIG    1       30.687 -19.172   6.996  0.00  0.00    -0.243 N 
ATOM     37  H   LIG    1       30.937 -20.159   7.073  0.00  0.00    +0.265 HD
BRANCH  36  38
ATOM     38  C   LIG    1       30.882 -18.452   8.199  0.00  0.00    +0.100 A 
ATOM     39  C   LIG    1       29.854 -18.299   9.140  0.00  0.00    +0.043 A 
ATOM     40  C   LIG    1       30.049 -17.576  10.320  0.00  0.00    +0.023 A 
ATOM     41  C   LIG    1       31.287 -17.003  10.578  0.00  0.00    +0.041 A 
ATOM     42 CL   LIG    1       31.527 -16.114  12.032  0.00  0.00    -0.084 Cl
ATOM     43  C   LIG    1       32.330 -17.148   9.665  0.00  0.00    +0.023 A 
ATOM     44  C   LIG    1       32.130 -17.879   8.484  0.00  0.00    +0.043 A 
ENDBRANCH  36  38
ENDBRANCH  32  36
ENDBRANCH  26  31
ENDBRANCH  25  27
ENDBRANCH  24  25
ENDBRANCH   1  24
TORSDOF 17
ENDMDL
