MODEL 1
REMARK VINA RESULT:      -8.3      0.000      0.000
REMARK  Name = *****
REMARK                            x       y       z     vdW  Elec       q    Type
REMARK                         _______ _______ _______ _____ _____    ______ ____
ROOT
ATOM      1  N   LIG    1       26.678 -21.465   7.450  0.00  0.00    -0.341 N 
ATOM      2  H   LIG    1       27.388 -22.172   7.602  0.00  0.00    +0.146 HD
ENDROOT
BRANCH   1   3
ATOM      3  C   LIG    1       25.385 -21.997   7.212  0.00  0.00    +0.038 A 
ATOM      4  C   LIG    1       25.186 -23.376   6.879  0.00  0.00    +0.021 A 
ATOM      5  C   LIG    1       23.859 -23.837   6.698  0.00  0.00    +0.074 A 
ATOM      6  C   LIG    1       23.614 -25.156   6.341  0.00  0.00    +0.048 A 
ATOM      7  C   LIG    1       24.667 -26.057   6.166  0.00  0.00    +0.043 A 
ATOM      8  C   LIG    1       25.969 -25.647   6.360  0.00  0.00    +0.021 A 
ATOM      9 CL   LIG    1       24.342 -27.684   5.710  0.00  0.00    -0.084 Cl
ATOM     10  N   LIG    1       22.789 -23.047   6.855  0.00  0.00    -0.255 NA
ATOM     11  C   LIG    1       22.990 -21.779   7.224  0.00  0.00    +0.113 A 
ATOM     12  C   LIG    1       26.235 -24.324   6.718  0.00  0.00    +0.013 A 
ATOM     13  C   LIG    1       24.234 -21.210   7.404  0.00  0.00    +0.043 A 
ENDBRANCH   1   3
BRANCH   1  14
ATOM     14  C   LIG    1       27.203 -20.292   6.735  0.00  0.00    +0.067 C 
ATOM     15  C   LIG    1       26.514 -20.192   5.364  0.00  0.00    +0.027 C 
BRANCH  14  16
ATOM     16  C   LIG    1       28.721 -20.431   6.498  0.00  0.00    +0.023 C 
BRANCH  16  17
ATOM     17  C   LIG    1       29.523 -19.158   6.780  0.00  0.00    +0.017 C 
BRANCH  17  18
ATOM     18  C   LIG    1       31.047 -19.409   6.850  0.00  0.00    +0.084 C 
BRANCH  18  19
ATOM     19  N   LIG    1       31.644 -19.395   8.193  0.00  0.00    -0.300 NA
BRANCH  19  21
ATOM     20  C   LIG    1       30.966 -17.566   9.847  0.00  0.00    +0.020 C 
ATOM     21  C   LIG    1       31.898 -18.050   8.741  0.00  0.00    +0.081 C 
ENDBRANCH  19  21
BRANCH  19  22
ATOM     22  C   LIG    1       30.964 -20.241   9.203  0.00  0.00    +0.112 C 
BRANCH  22  23
ATOM     23  C   LIG    1       31.037 -21.777   9.060  0.00  0.00    +0.171 C 
BRANCH  23  24
ATOM     24  O   LIG    1       32.307 -22.244   8.630  0.00  0.00    -0.394 OA
ATOM     25  H   LIG    1       32.929 -22.088   9.359  0.00  0.00    +0.209 HD
ENDBRANCH  23  24
ENDBRANCH  22  23
ENDBRANCH  19  22
ENDBRANCH  18  19
ENDBRANCH  17  18
ENDBRANCH  16  17
ENDBRANCH  14  16
ENDBRANCH   1  14
TORSDOF 10
ENDMDL
MODEL 2
REMARK VINA RESULT:      -8.2      1.335      1.920
REMARK  Name = *****
REMARK                            x       y       z     vdW  Elec       q    Type
REMARK                         _______ _______ _______ _____ _____    ______ ____
ROOT
ATOM      1  N   LIG    1       25.987 -21.622   7.740  0.00  0.00    -0.341 N 
ATOM      2  H   LIG    1       26.705 -22.176   8.191  0.00  0.00    +0.146 HD
ENDROOT
BRANCH   1   3
ATOM      3  C   LIG    1       24.859 -22.377   7.328  0.00  0.00    +0.038 A 
ATOM      4  C   LIG    1       24.983 -23.727   6.864  0.00  0.00    +0.021 A 
ATOM      5  C   LIG    1       23.803 -24.426   6.510  0.00  0.00    +0.074 A 
ATOM      6  C   LIG    1       23.872 -25.723   6.023  0.00  0.00    +0.048 A 
ATOM      7  C   LIG    1       25.102 -26.371   5.885  0.00  0.00    +0.043 A 
ATOM      8  C   LIG    1       26.267 -25.729   6.245  0.00  0.00    +0.021 A 
ATOM      9 CL   LIG    1       25.167 -27.975   5.266  0.00  0.00    -0.084 Cl
ATOM     10  N   LIG    1       22.582 -23.887   6.619  0.00  0.00    -0.255 NA
ATOM     11  C   LIG    1       22.479 -22.649   7.109  0.00  0.00    +0.113 A 
ATOM     12  C   LIG    1       26.218 -24.423   6.735  0.00  0.00    +0.013 A 
ATOM     13  C   LIG    1       23.557 -21.862   7.462  0.00  0.00    +0.043 A 
ENDBRANCH   1   3
BRANCH   1  14
ATOM     14  C   LIG    1       26.548 -20.522   6.941  0.00  0.00    +0.067 C 
ATOM     15  C   LIG    1       25.891 -20.529   5.551  0.00  0.00    +0.027 C 
BRANCH  14  16
ATOM     16  C   LIG    1       28.068 -20.706   6.753  0.00  0.00    +0.023 C 
BRANCH  16  17
ATOM     17  C   LIG    1       28.756 -19.552   6.019  0.00  0.00    +0.017 C 
BRANCH  17  18
ATOM     18  C   LIG    1       30.089 -19.129   6.679  0.00  0.00    +0.084 C 
BRANCH  18  19
ATOM     19  N   LIG    1       30.227 -19.434   8.111  0.00  0.00    -0.300 NA
BRANCH  19  21
ATOM     20  C   LIG    1       30.853 -21.710   9.094  0.00  0.00    +0.020 C 
ATOM     21  C   LIG    1       31.288 -20.405   8.435  0.00  0.00    +0.081 C 
ENDBRANCH  19  21
BRANCH  19  22
ATOM     22  C   LIG    1       30.317 -18.257   9.008  0.00  0.00    +0.112 C 
BRANCH  22  23
ATOM     23  C   LIG    1       31.713 -17.724   9.401  0.00  0.00    +0.171 C 
BRANCH  23  24
ATOM     24  O   LIG    1       32.364 -17.021   8.354  0.00  0.00    -0.394 OA
ATOM     25  H   LIG    1       31.677 -16.541   7.863  0.00  0.00    +0.209 HD
ENDBRANCH  23  24
ENDBRANCH  22  23
ENDBRANCH  19  22
ENDBRANCH  18  19
ENDBRANCH  17  18
ENDBRANCH  16  17
ENDBRANCH  14  16
ENDBRANCH   1  14
TORSDOF 10
ENDMDL
MODEL 3
REMARK VINA RESULT:      -8.1      2.629      3.585
REMARK  Name = *****
REMARK                            x       y       z     vdW  Elec       q    Type
REMARK                         _______ _______ _______ _____ _____    ______ ____
ROOT
ATOM      1  N   LIG    1       27.206 -21.487   6.071  0.00  0.00    -0.341 N 
ATOM      2  H   LIG    1       27.361 -21.507   5.070  0.00  0.00    +0.146 HD
ENDROOT
BRANCH   1   3
ATOM      3  C   LIG    1       25.836 -21.514   6.435  0.00  0.00    +0.038 A 
ATOM      4  C   LIG    1       24.852 -20.744   5.733  0.00  0.00    +0.021 A 
ATOM      5  C   LIG    1       23.498 -20.860   6.134  0.00  0.00    +0.074 A 
ATOM      6  C   LIG    1       22.513 -20.109   5.509  0.00  0.00    +0.048 A 
ATOM      7  C   LIG    1       22.831 -19.237   4.465  0.00  0.00    +0.043 A 
ATOM      8  C   LIG    1       24.135 -19.121   4.034  0.00  0.00    +0.021 A 
ATOM      9 CL   LIG    1       21.595 -18.306   3.713  0.00  0.00    -0.084 Cl
ATOM     10  N   LIG    1       23.101 -21.678   7.117  0.00  0.00    -0.255 NA
ATOM     11  C   LIG    1       24.022 -22.433   7.722  0.00  0.00    +0.113 A 
ATOM     12  C   LIG    1       25.141 -19.866   4.651  0.00  0.00    +0.013 A 
ATOM     13  C   LIG    1       25.372 -22.388   7.436  0.00  0.00    +0.043 A 
ENDBRANCH   1   3
BRANCH   1  14
ATOM     14  C   LIG    1       28.204 -20.668   6.776  0.00  0.00    +0.067 C 
ATOM     15  C   LIG    1       27.575 -20.113   8.064  0.00  0.00    +0.027 C 
BRANCH  14  16
ATOM     16  C   LIG    1       28.642 -19.473   5.904  0.00  0.00    +0.023 C 
BRANCH  16  17
ATOM     17  C   LIG    1       29.733 -18.601   6.533  0.00  0.00    +0.017 C 
BRANCH  17  18
ATOM     18  C   LIG    1       31.028 -19.388   6.841  0.00  0.00    +0.084 C 
BRANCH  18  19
ATOM     19  N   LIG    1       31.621 -19.164   8.168  0.00  0.00    -0.300 NA
BRANCH  19  21
ATOM     20  C   LIG    1       30.647 -17.583   9.926  0.00  0.00    +0.020 C 
ATOM     21  C   LIG    1       31.496 -17.786   8.675  0.00  0.00    +0.081 C 
ENDBRANCH  19  21
BRANCH  19  22
ATOM     22  C   LIG    1       31.223 -20.136   9.216  0.00  0.00    +0.112 C 
BRANCH  22  23
ATOM     23  C   LIG    1       30.977 -21.607   8.814  0.00  0.00    +0.171 C 
BRANCH  23  24
ATOM     24  O   LIG    1       32.166 -22.379   8.744  0.00  0.00    -0.394 OA
ATOM     25  H   LIG    1       31.899 -23.312   8.719  0.00  0.00    +0.209 HD
ENDBRANCH  23  24
ENDBRANCH  22  23
ENDBRANCH  19  22
ENDBRANCH  18  19
ENDBRANCH  17  18
ENDBRANCH  16  17
ENDBRANCH  14  16
ENDBRANCH   1  14
TORSDOF 10
ENDMDL
MODEL 4
REMARK VINA RESULT:      -7.6      3.512      4.454
REMARK  Name = *****
REMARK                            x       y       z     vdW  Elec       q    Type
REMARK                         _______ _______ _______ _____ _____    ______ ____
ROOT
ATOM      1  N   LIG    1       28.375 -20.731   6.158  0.00  0.00    -0.341 N 
ATOM      2  H   LIG    1       28.301 -20.363   5.217  0.00  0.00    +0.146 HD
ENDROOT
BRANCH   1   3
ATOM      3  C   LIG    1       27.123 -20.906   6.801  0.00  0.00    +0.038 A 
ATOM      4  C   LIG    1       25.888 -20.577   6.152  0.00  0.00    +0.021 A 
ATOM      5  C   LIG    1       24.679 -20.821   6.849  0.00  0.00    +0.074 A 
ATOM      6  C   LIG    1       23.459 -20.488   6.278  0.00  0.00    +0.048 A 
ATOM      7  C   LIG    1       23.396 -19.920   5.004  0.00  0.00    +0.043 A 
ATOM      8  C   LIG    1       24.553 -19.694   4.289  0.00  0.00    +0.021 A 
ATOM      9 CL   LIG    1       21.874 -19.502   4.321  0.00  0.00    -0.084 Cl
ATOM     10  N   LIG    1       24.644 -21.372   8.069  0.00  0.00    -0.255 NA
ATOM     11  C   LIG    1       25.800 -21.728   8.635  0.00  0.00    +0.113 A 
ATOM     12  C   LIG    1       25.790 -20.020   4.846  0.00  0.00    +0.013 A 
ATOM     13  C   LIG    1       27.041 -21.516   8.067  0.00  0.00    +0.043 A 
ENDBRANCH   1   3
BRANCH   1  14
ATOM     14  C   LIG    1       29.571 -20.239   6.858  0.00  0.00    +0.067 C 
ATOM     15  C   LIG    1       29.939 -21.230   7.975  0.00  0.00    +0.027 C 
BRANCH  14  16
ATOM     16  C   LIG    1       29.297 -18.867   7.508  0.00  0.00    +0.023 C 
BRANCH  16  17
ATOM     17  C   LIG    1       30.509 -18.248   8.209  0.00  0.00    +0.017 C 
BRANCH  17  18
ATOM     18  C   LIG    1       30.213 -17.833   9.669  0.00  0.00    +0.084 C 
BRANCH  18  19
ATOM     19  N   LIG    1       31.373 -17.421  10.473  0.00  0.00    -0.300 NA
BRANCH  19  21
ATOM     20  C   LIG    1       32.775 -15.531   9.474  0.00  0.00    +0.020 C 
ATOM     21  C   LIG    1       32.557 -17.025   9.689  0.00  0.00    +0.081 C 
ENDBRANCH  19  21
BRANCH  19  22
ATOM     22  C   LIG    1       31.093 -16.415  11.527  0.00  0.00    +0.112 C 
BRANCH  22  23
ATOM     23  C   LIG    1       31.964 -16.411  12.802  0.00  0.00    +0.171 C 
BRANCH  23  24
ATOM     24  O   LIG    1       31.830 -15.226  13.573  0.00  0.00    -0.394 OA
ATOM     25  H   LIG    1       30.982 -14.821  13.328  0.00  0.00    +0.209 HD
ENDBRANCH  23  24
ENDBRANCH  22  23
ENDBRANCH  19  22
ENDBRANCH  18  19
ENDBRANCH  17  18
ENDBRANCH  16  17
ENDBRANCH  14  16
ENDBRANCH   1  14
TORSDOF 10
ENDMDL
MODEL 5
REMARK VINA RESULT:      -7.6      4.125      8.501
REMARK  Name = *****
REMARK                            x       y       z     vdW  Elec       q    Type
REMARK                         _______ _______ _______ _____ _____    ______ ____
ROOT
ATOM      1  N   LIG    1       28.150 -20.086   7.769  0.00  0.00    -0.341 N 
ATOM      2  H   LIG    1       27.664 -19.270   8.121  0.00  0.00    +0.146 HD
ENDROOT
BRANCH   1   3
ATOM      3  C   LIG    1       29.482 -20.202   8.239  0.00  0.00    +0.038 A 
ATOM      4  C   LIG    1       30.227 -19.063   8.690  0.00  0.00    +0.021 A 
ATOM      5  C   LIG    1       31.538 -19.271   9.182  0.00  0.00    +0.074 A 
ATOM      6  C   LIG    1       32.312 -18.198   9.598  0.00  0.00    +0.048 A 
ATOM      7  C   LIG    1       31.812 -16.895   9.552  0.00  0.00    +0.043 A 
ATOM      8  C   LIG    1       30.530 -16.661   9.103  0.00  0.00    +0.021 A 
ATOM      9 CL   LIG    1       32.793 -15.576  10.060  0.00  0.00    -0.084 Cl
ATOM     10  N   LIG    1       32.094 -20.486   9.272  0.00  0.00    -0.255 NA
ATOM     11  C   LIG    1       31.366 -21.543   8.904  0.00  0.00    +0.113 A 
ATOM     12  C   LIG    1       29.737 -17.727   8.678  0.00  0.00    +0.013 A 
ATOM     13  C   LIG    1       30.090 -21.464   8.384  0.00  0.00    +0.043 A 
ENDBRANCH   1   3
BRANCH   1  14
ATOM     14  C   LIG    1       27.756 -20.420   6.392  0.00  0.00    +0.067 C 
ATOM     15  C   LIG    1       28.278 -19.328   5.444  0.00  0.00    +0.027 C 
BRANCH  14  16
ATOM     16  C   LIG    1       26.219 -20.473   6.262  0.00  0.00    +0.023 C 
BRANCH  16  17
ATOM     17  C   LIG    1       25.714 -20.661   4.829  0.00  0.00    +0.017 C 
BRANCH  17  18
ATOM     18  C   LIG    1       24.461 -21.562   4.746  0.00  0.00    +0.084 C 
BRANCH  18  19
ATOM     19  N   LIG    1       23.358 -21.222   5.657  0.00  0.00    -0.300 NA
BRANCH  19  21
ATOM     20  C   LIG    1       22.337 -19.097   4.668  0.00  0.00    +0.020 C 
ATOM     21  C   LIG    1       22.201 -20.577   5.011  0.00  0.00    +0.081 C 
ENDBRANCH  19  21
BRANCH  19  22
ATOM     22  C   LIG    1       22.904 -22.319   6.546  0.00  0.00    +0.112 C 
BRANCH  22  23
ATOM     23  C   LIG    1       23.833 -23.534   6.765  0.00  0.00    +0.171 C 
BRANCH  23  24
ATOM     24  O   LIG    1       23.308 -24.746   6.246  0.00  0.00    -0.394 OA
ATOM     25  H   LIG    1       22.345 -24.636   6.182  0.00  0.00    +0.209 HD
ENDBRANCH  23  24
ENDBRANCH  22  23
ENDBRANCH  19  22
ENDBRANCH  18  19
ENDBRANCH  17  18
ENDBRANCH  16  17
ENDBRANCH  14  16
ENDBRANCH   1  14
TORSDOF 10
ENDMDL
MODEL 6
REMARK VINA RESULT:      -7.3      4.281      8.663
REMARK  Name = *****
REMARK                            x       y       z     vdW  Elec       q    Type
REMARK                         _______ _______ _______ _____ _____    ______ ____
ROOT
ATOM      1  N   LIG    1       28.118 -20.087   7.668  0.00  0.00    -0.341 N 
ATOM      2  H   LIG    1       27.664 -19.221   7.935  0.00  0.00    +0.146 HD
ENDROOT
BRANCH   1   3
ATOM      3  C   LIG    1       29.439 -20.215   8.168  0.00  0.00    +0.038 A 
ATOM      4  C   LIG    1       30.182 -19.083   8.637  0.00  0.00    +0.021 A 
ATOM      5  C   LIG    1       31.480 -19.302   9.159  0.00  0.00    +0.074 A 
ATOM      6  C   LIG    1       32.253 -18.235   9.594  0.00  0.00    +0.048 A 
ATOM      7  C   LIG    1       31.765 -16.928   9.539  0.00  0.00    +0.043 A 
ATOM      8  C   LIG    1       30.495 -16.683   9.060  0.00  0.00    +0.021 A 
ATOM      9 CL   LIG    1       32.745 -15.618  10.070  0.00  0.00    -0.084 Cl
ATOM     10  N   LIG    1       32.024 -20.521   9.259  0.00  0.00    -0.255 NA
ATOM     11  C   LIG    1       31.296 -21.572   8.873  0.00  0.00    +0.113 A 
ATOM     12  C   LIG    1       29.703 -17.742   8.616  0.00  0.00    +0.013 A 
ATOM     13  C   LIG    1       30.032 -21.481   8.325  0.00  0.00    +0.043 A 
ENDBRANCH   1   3
BRANCH   1  14
ATOM     14  C   LIG    1       27.726 -20.533   6.323  0.00  0.00    +0.067 C 
ATOM     15  C   LIG    1       28.084 -19.434   5.308  0.00  0.00    +0.027 C 
BRANCH  14  16
ATOM     16  C   LIG    1       26.204 -20.773   6.250  0.00  0.00    +0.023 C 
BRANCH  16  17
ATOM     17  C   LIG    1       25.494 -20.734   7.606  0.00  0.00    +0.017 C 
BRANCH  17  18
ATOM     18  C   LIG    1       23.961 -20.901   7.487  0.00  0.00    +0.084 C 
BRANCH  18  19
ATOM     19  N   LIG    1       23.484 -21.711   6.357  0.00  0.00    -0.300 NA
BRANCH  19  21
ATOM     20  C   LIG    1       23.821 -24.230   6.643  0.00  0.00    +0.020 C 
ATOM     21  C   LIG    1       22.905 -23.013   6.733  0.00  0.00    +0.081 C 
ENDBRANCH  19  21
BRANCH  19  22
ATOM     22  C   LIG    1       22.594 -21.009   5.401  0.00  0.00    +0.112 C 
BRANCH  22  23
ATOM     23  C   LIG    1       22.749 -19.483   5.220  0.00  0.00    +0.171 C 
BRANCH  23  24
ATOM     24  O   LIG    1       21.826 -18.928   4.295  0.00  0.00    -0.394 OA
ATOM     25  H   LIG    1       22.071 -19.256   3.415  0.00  0.00    +0.209 HD
ENDBRANCH  23  24
ENDBRANCH  22  23
ENDBRANCH  19  22
ENDBRANCH  18  19
ENDBRANCH  17  18
ENDBRANCH  16  17
ENDBRANCH  14  16
ENDBRANCH   1  14
TORSDOF 10
ENDMDL
MODEL 7
REMARK VINA RESULT:      -7.3      3.772      7.842
REMARK  Name = *****
REMARK                            x       y       z     vdW  Elec       q    Type
REMARK                         _______ _______ _______ _____ _____    ______ ____
ROOT
ATOM      1  N   LIG    1       24.934 -22.407   6.916  0.00  0.00    -0.341 N 
ATOM      2  H   LIG    1       24.225 -22.082   7.563  0.00  0.00    +0.146 HD
ENDROOT
BRANCH   1   3
ATOM      3  C   LIG    1       25.557 -21.364   6.184  0.00  0.00    +0.038 A 
ATOM      4  C   LIG    1       26.908 -20.963   6.442  0.00  0.00    +0.021 A 
ATOM      5  C   LIG    1       27.469 -19.940   5.638  0.00  0.00    +0.074 A 
ATOM      6  C   LIG    1       28.761 -19.492   5.870  0.00  0.00    +0.048 A 
ATOM      7  C   LIG    1       29.539 -20.046   6.890  0.00  0.00    +0.043 A 
ATOM      8  C   LIG    1       29.032 -21.060   7.674  0.00  0.00    +0.021 A 
ATOM      9 CL   LIG    1       31.134 -19.466   7.170  0.00  0.00    -0.084 Cl
ATOM     10  N   LIG    1       26.801 -19.360   4.633  0.00  0.00    -0.255 NA
ATOM     11  C   LIG    1       25.564 -19.787   4.367  0.00  0.00    +0.113 A 
ATOM     12  C   LIG    1       27.733 -21.524   7.457  0.00  0.00    +0.013 A 
ATOM     13  C   LIG    1       24.903 -20.755   5.096  0.00  0.00    +0.043 A 
ENDBRANCH   1   3
BRANCH   1  14
ATOM     14  C   LIG    1       24.595 -23.709   6.322  0.00  0.00    +0.067 C 
ATOM     15  C   LIG    1       23.171 -24.099   6.750  0.00  0.00    +0.027 C 
BRANCH  14  16
ATOM     16  C   LIG    1       25.561 -24.803   6.821  0.00  0.00    +0.023 C 
BRANCH  16  17
ATOM     17  C   LIG    1       25.448 -26.133   6.070  0.00  0.00    +0.017 C 
BRANCH  17  18
ATOM     18  C   LIG    1       25.871 -27.347   6.930  0.00  0.00    +0.084 C 
BRANCH  18  19
ATOM     19  N   LIG    1       24.897 -28.444   7.024  0.00  0.00    -0.300 NA
BRANCH  19  21
ATOM     20  C   LIG    1       25.409 -30.306   5.348  0.00  0.00    +0.020 C 
ATOM     21  C   LIG    1       24.572 -29.093   5.741  0.00  0.00    +0.081 C 
ENDBRANCH  19  21
BRANCH  19  22
ATOM     22  C   LIG    1       25.187 -29.467   8.058  0.00  0.00    +0.112 C 
BRANCH  22  23
ATOM     23  C   LIG    1       25.994 -29.055   9.309  0.00  0.00    +0.171 C 
BRANCH  23  24
ATOM     24  O   LIG    1       27.360 -29.436   9.249  0.00  0.00    -0.394 OA
ATOM     25  H   LIG    1       27.595 -29.510   8.310  0.00  0.00    +0.209 HD
ENDBRANCH  23  24
ENDBRANCH  22  23
ENDBRANCH  19  22
ENDBRANCH  18  19
ENDBRANCH  17  18
ENDBRANCH  16  17
ENDBRANCH  14  16
ENDBRANCH   1  14
TORSDOF 10
ENDMDL
MODEL 8
REMARK VINA RESULT:      -7.3      4.084      8.593
REMARK  Name = *****
REMARK                            x       y       z     vdW  Elec       q    Type
REMARK                         _______ _______ _______ _____ _____    ______ ____
ROOT
ATOM      1  N   LIG    1       28.059 -19.677   8.309  0.00  0.00    -0.341 N 
ATOM      2  H   LIG    1       27.429 -18.903   8.477  0.00  0.00    +0.146 HD
ENDROOT
BRANCH   1   3
ATOM      3  C   LIG    1       29.392 -19.278   8.032  0.00  0.00    +0.038 A 
ATOM      4  C   LIG    1       30.147 -18.478   8.951  0.00  0.00    +0.021 A 
ATOM      5  C   LIG    1       31.485 -18.157   8.618  0.00  0.00    +0.074 A 
ATOM      6  C   LIG    1       32.247 -17.357   9.458  0.00  0.00    +0.048 A 
ATOM      7  C   LIG    1       31.717 -16.864  10.652  0.00  0.00    +0.043 A 
ATOM      8  C   LIG    1       30.426 -17.180  11.019  0.00  0.00    +0.021 A 
ATOM      9 CL   LIG    1       32.674 -15.863  11.672  0.00  0.00    -0.084 Cl
ATOM     10  N   LIG    1       32.078 -18.593   7.500  0.00  0.00    -0.255 NA
ATOM     11  C   LIG    1       31.380 -19.387   6.683  0.00  0.00    +0.113 A 
ATOM     12  C   LIG    1       29.643 -17.982  10.186  0.00  0.00    +0.013 A 
ATOM     13  C   LIG    1       30.063 -19.746   6.887  0.00  0.00    +0.043 A 
ENDBRANCH   1   3
BRANCH   1  14
ATOM     14  C   LIG    1       27.400 -20.795   7.617  0.00  0.00    +0.067 C 
ATOM     15  C   LIG    1       26.953 -20.326   6.223  0.00  0.00    +0.027 C 
BRANCH  14  16
ATOM     16  C   LIG    1       26.148 -21.254   8.392  0.00  0.00    +0.023 C 
BRANCH  16  17
ATOM     17  C   LIG    1       24.825 -20.747   7.809  0.00  0.00    +0.017 C 
BRANCH  17  18
ATOM     18  C   LIG    1       23.828 -21.888   7.500  0.00  0.00    +0.084 C 
BRANCH  18  19
ATOM     19  N   LIG    1       23.705 -22.275   6.088  0.00  0.00    -0.300 NA
BRANCH  19  21
ATOM     20  C   LIG    1       22.413 -20.349   5.013  0.00  0.00    +0.020 C 
ATOM     21  C   LIG    1       23.705 -21.149   5.137  0.00  0.00    +0.081 C 
ENDBRANCH  19  21
BRANCH  19  22
ATOM     22  C   LIG    1       24.641 -23.332   5.632  0.00  0.00    +0.112 C 
BRANCH  22  23
ATOM     23  C   LIG    1       24.601 -24.713   6.323  0.00  0.00    +0.171 C 
BRANCH  23  24
ATOM     24  O   LIG    1       23.689 -25.619   5.720  0.00  0.00    -0.394 OA
ATOM     25  H   LIG    1       22.818 -25.190   5.722  0.00  0.00    +0.209 HD
ENDBRANCH  23  24
ENDBRANCH  22  23
ENDBRANCH  19  22
ENDBRANCH  18  19
ENDBRANCH  17  18
ENDBRANCH  16  17
ENDBRANCH  14  16
ENDBRANCH   1  14
TORSDOF 10
ENDMDL
MODEL 9
REMARK VINA RESULT:      -7.3      4.021      8.447
REMARK  Name = *****
REMARK                            x       y       z     vdW  Elec       q    Type
REMARK                         _______ _______ _______ _____ _____    ______ ____
ROOT
ATOM      1  N   LIG    1       28.244 -19.615   7.226  0.00  0.00    -0.341 N 
ATOM      2  H   LIG    1       28.346 -18.985   6.439  0.00  0.00    +0.146 HD
ENDROOT
BRANCH   1   3
ATOM      3  C   LIG    1       29.461 -19.887   7.900  0.00  0.00    +0.038 A 
ATOM      4  C   LIG    1       30.215 -18.851   8.544  0.00  0.00    +0.021 A 
ATOM      5  C   LIG    1       31.400 -19.213   9.231  0.00  0.00    +0.074 A 
ATOM      6  C   LIG    1       32.183 -18.243   9.841  0.00  0.00    +0.048 A 
ATOM      7  C   LIG    1       31.814 -16.897   9.803  0.00  0.00    +0.043 A 
ATOM      8  C   LIG    1       30.653 -16.515   9.165  0.00  0.00    +0.021 A 
ATOM      9 CL   LIG    1       32.806 -15.709  10.555  0.00  0.00    -0.084 Cl
ATOM     10  N   LIG    1       31.824 -20.479   9.327  0.00  0.00    -0.255 NA
ATOM     11  C   LIG    1       31.079 -21.439   8.772  0.00  0.00    +0.113 A 
ATOM     12  C   LIG    1       29.853 -17.475   8.544  0.00  0.00    +0.013 A 
ATOM     13  C   LIG    1       29.922 -21.207   8.056  0.00  0.00    +0.043 A 
ENDBRANCH   1   3
BRANCH   1  14
ATOM     14  C   LIG    1       27.215 -20.640   6.991  0.00  0.00    +0.067 C 
ATOM     15  C   LIG    1       26.474 -20.314   5.684  0.00  0.00    +0.027 C 
BRANCH  14  16
ATOM     16  C   LIG    1       26.182 -20.647   8.138  0.00  0.00    +0.023 C 
BRANCH  16  17
ATOM     17  C   LIG    1       25.722 -22.044   8.562  0.00  0.00    +0.017 C 
BRANCH  17  18
ATOM     18  C   LIG    1       25.948 -23.111   7.466  0.00  0.00    +0.084 C 
BRANCH  18  19
ATOM     19  N   LIG    1       24.786 -23.430   6.624  0.00  0.00    -0.300 NA
BRANCH  19  21
ATOM     20  C   LIG    1       25.678 -25.826   6.677  0.00  0.00    +0.020 C 
ATOM     21  C   LIG    1       24.507 -24.871   6.479  0.00  0.00    +0.081 C 
ENDBRANCH  19  21
BRANCH  19  22
ATOM     22  C   LIG    1       23.540 -22.696   6.952  0.00  0.00    +0.112 C 
BRANCH  22  23
ATOM     23  C   LIG    1       23.014 -21.639   5.956  0.00  0.00    +0.171 C 
BRANCH  23  24
ATOM     24  O   LIG    1       23.023 -20.318   6.477  0.00  0.00    -0.394 OA
ATOM     25  H   LIG    1       23.879 -20.191   6.917  0.00  0.00    +0.209 HD
ENDBRANCH  23  24
ENDBRANCH  22  23
ENDBRANCH  19  22
ENDBRANCH  18  19
ENDBRANCH  17  18
ENDBRANCH  16  17
ENDBRANCH  14  16
ENDBRANCH   1  14
TORSDOF 10
ENDMDL
