MODEL 1
REMARK VINA RESULT:       3.5      0.000      0.000
REMARK  Name = *****
REMARK                            x       y       z     vdW  Elec       q    Type
REMARK                         _______ _______ _______ _____ _____    ______ ____
ROOT
ATOM      1  N   UNK A  0       23.430 -12.918   4.813  0.00  0.00    -0.342 N 
ATOM      2  H   UNK A  0       22.561 -12.404   4.951  0.00  0.00    +0.146 HD
ENDROOT
BRANCH   1   3
ATOM      3  C   UNK A  0       23.266 -14.300   4.712  0.00  0.00    +0.027 A 
ATOM      4  C   UNK A  0       23.626 -15.018   3.564  0.00  0.00    +0.024 A 
ATOM      5  C   UNK A  0       23.382 -16.388   3.451  0.00  0.00    +0.015 A 
ATOM      6  C   UNK A  0       22.725 -17.062   4.478  0.00  0.00    +0.037 A 
ATOM      7  C   UNK A  0       22.356 -16.366   5.632  0.00  0.00    +0.015 A 
ATOM      8  C   UNK A  0       22.610 -14.992   5.736  0.00  0.00    +0.024 A 
BRANCH   6   9
ATOM      9  C   UNK A  0       22.373 -18.494   4.258  0.00  0.00    +0.245 C 
ATOM     10  N   GLU A  1       23.367 -19.398   4.578  0.00  0.00    -0.298 N 
ATOM     11  H   GLU A  1       24.315 -19.063   4.701  0.00  0.00    +0.150 HD
ATOM     12  O   UNK A  0       21.259 -18.820   3.894  0.00  0.00    -0.270 OA
BRANCH  10  13
ATOM     13  CA  GLU A  1       23.203 -20.847   4.395  0.00  0.00    +0.182 C 
BRANCH  13  14
ATOM     14  C   GLU A  1       22.196 -21.336   5.456  0.00  0.00    +0.325 C 
ATOM     15  O   GLU A  1       22.453 -21.572   6.625  0.00  0.00    -0.249 OA
BRANCH  14  16
ATOM     16  OXT GLU A  1       20.959 -21.571   4.943  0.00  0.00    -0.479 OA
ATOM     17  HXT GLU A  1       20.637 -20.796   4.439  0.00  0.00    +0.295 HD
ENDBRANCH  14  16
ENDBRANCH  13  14
BRANCH  13  18
ATOM     18  CB  GLU A  1       24.571 -21.533   4.501  0.00  0.00    +0.045 C 
BRANCH  18  19
ATOM     19  CG  GLU A  1       25.764 -20.609   4.252  0.00  0.00    +0.123 C 
BRANCH  19  20
ATOM     20  CD  GLU A  1       26.547 -20.342   5.504  0.00  0.00    +0.305 C 
ATOM     21  OE1 GLU A  1       26.095 -20.236   6.631  0.00  0.00    -0.251 OA
BRANCH  20  22
ATOM     22  OE2 GLU A  1       27.869 -20.248   5.278  0.00  0.00    -0.481 OA
ATOM     23  HE2 GLU A  1       27.980 -20.549   4.352  0.00  0.00    +0.295 HD
ENDBRANCH  20  22
ENDBRANCH  19  20
ENDBRANCH  18  19
ENDBRANCH  13  18
ENDBRANCH  10  13
ENDBRANCH   6   9
ENDBRANCH   1   3
BRANCH   1  24
ATOM     24  C   UNK A  0       24.544 -12.393   5.612  0.00  0.00    +0.126 C 
BRANCH  24  32
ATOM     25  C   UNK A  0       28.025 -16.364   4.417  0.00  0.00    +0.195 C 
ATOM     26  N   UNK A  0       27.358 -16.299   3.242  0.00  0.00    -0.294 N 
ATOM     27  H   UNK A  0       27.286 -17.108   2.649  0.00  0.00    +0.172 HD
ATOM     28  C   UNK A  0       26.602 -15.222   2.885  0.00  0.00    +0.276 C 
ATOM     29  O   UNK A  0       25.921 -15.278   1.866  0.00  0.00    -0.266 OA
ATOM     30  C   UNK A  0       26.636 -14.052   3.819  0.00  0.00    +0.142 C 
ATOM     31  N   UNK A  0       25.935 -12.851   3.578  0.00  0.00    -0.261 N 
ATOM     32  C   UNK A  0       25.734 -11.933   4.733  0.00  0.00    +0.115 C 
ATOM     33  C   UNK A  0       27.013 -11.862   5.587  0.00  0.00    +0.127 C 
ATOM     34  N   UNK A  0       27.452 -13.211   5.898  0.00  0.00    -0.326 N 
ATOM     35  H   UNK A  0       28.278 -13.317   6.479  0.00  0.00    +0.148 HD
ATOM     36  C   UNK A  0       25.323 -12.497   2.386  0.00  0.00    +0.333 C 
ATOM     37  O   UNK A  0       24.709 -11.448   2.193  0.00  0.00    -0.279 OA
ATOM     38  C   UNK A  0       27.371 -14.231   4.954  0.00  0.00    +0.149 C 
ATOM     39  N   UNK A  0       28.060 -15.380   5.249  0.00  0.00    -0.199 NA
BRANCH  25  40
ATOM     40  N   UNK A  0       28.666 -17.525   4.690  0.00  0.00    -0.329 N 
ATOM     41  H   UNK A  0       28.557 -18.287   4.034  0.00  0.00    +0.145 HD
ATOM     42  H   UNK A  0       29.627 -17.382   4.983  0.00  0.00    +0.145 HD
ENDBRANCH  25  40
ENDBRANCH  24  32
ENDBRANCH   1  24
TORSDOF 12
ENDMDL
MODEL 2
REMARK VINA RESULT:       6.5      2.108      7.680
REMARK  Name = *****
REMARK                            x       y       z     vdW  Elec       q    Type
REMARK                         _______ _______ _______ _____ _____    ______ ____
ROOT
ATOM      1  N   UNK A  0       24.504 -21.503   4.496  0.00  0.00    -0.342 N 
ATOM      2  H   UNK A  0       24.518 -21.887   5.440  0.00  0.00    +0.146 HD
ENDROOT
BRANCH   1   3
ATOM      3  C   UNK A  0       25.321 -20.385   4.322  0.00  0.00    +0.027 A 
ATOM      4  C   UNK A  0       26.456 -20.153   5.111  0.00  0.00    +0.024 A 
ATOM      5  C   UNK A  0       27.217 -18.991   4.974  0.00  0.00    +0.015 A 
ATOM      6  C   UNK A  0       26.826 -18.008   4.068  0.00  0.00    +0.037 A 
ATOM      7  C   UNK A  0       25.696 -18.218   3.271  0.00  0.00    +0.015 A 
ATOM      8  C   UNK A  0       24.943 -19.390   3.413  0.00  0.00    +0.024 A 
BRANCH   6   9
ATOM      9  C   UNK A  0       27.595 -16.732   4.049  0.00  0.00    +0.245 C 
ATOM     10  N   GLU A  1       26.905 -15.639   3.561  0.00  0.00    -0.298 N 
ATOM     11  H   GLU A  1       26.051 -15.790   3.037  0.00  0.00    +0.150 HD
ATOM     12  O   UNK A  0       28.721 -16.668   4.505  0.00  0.00    -0.270 OA
BRANCH  10  13
ATOM     13  CA  GLU A  1       27.519 -14.308   3.442  0.00  0.00    +0.182 C 
BRANCH  13  14
ATOM     14  C   GLU A  1       27.317 -13.583   4.788  0.00  0.00    +0.325 C 
ATOM     15  O   GLU A  1       26.352 -13.709   5.525  0.00  0.00    -0.249 OA
BRANCH  14  16
ATOM     16  OXT GLU A  1       28.306 -12.693   5.064  0.00  0.00    -0.479 OA
ATOM     17  HXT GLU A  1       27.933 -11.837   5.360  0.00  0.00    +0.295 HD
ENDBRANCH  14  16
ENDBRANCH  13  14
BRANCH  13  18
ATOM     18  CB  GLU A  1       26.895 -13.563   2.255  0.00  0.00    +0.045 C 
BRANCH  18  19
ATOM     19  CG  GLU A  1       26.064 -12.340   2.641  0.00  0.00    +0.123 C 
BRANCH  19  20
ATOM     20  CD  GLU A  1       24.620 -12.682   2.868  0.00  0.00    +0.305 C 
ATOM     21  OE1 GLU A  1       23.919 -13.373   2.149  0.00  0.00    -0.251 OA
BRANCH  20  22
ATOM     22  OE2 GLU A  1       24.136 -12.157   4.007  0.00  0.00    -0.481 OA
ATOM     23  HE2 GLU A  1       24.630 -12.618   4.717  0.00  0.00    +0.295 HD
ENDBRANCH  20  22
ENDBRANCH  19  20
ENDBRANCH  18  19
ENDBRANCH  13  18
ENDBRANCH  10  13
ENDBRANCH   6   9
ENDBRANCH   1   3
BRANCH   1  24
ATOM     24  C   UNK A  0       23.166 -21.503   3.893  0.00  0.00    +0.126 C 
BRANCH  24  32
ATOM     25  C   UNK A  0       22.760 -16.151   4.609  0.00  0.00    +0.195 C 
ATOM     26  N   UNK A  0       21.696 -16.343   3.796  0.00  0.00    -0.294 N 
ATOM     27  H   UNK A  0       21.368 -15.602   3.200  0.00  0.00    +0.172 HD
ATOM     28  C   UNK A  0       21.136 -17.570   3.595  0.00  0.00    +0.276 C 
ATOM     29  O   UNK A  0       20.257 -17.697   2.749  0.00  0.00    -0.266 OA
ATOM     30  C   UNK A  0       21.693 -18.692   4.416  0.00  0.00    +0.142 C 
ATOM     31  N   UNK A  0       21.202 -20.014   4.349  0.00  0.00    -0.261 N 
ATOM     32  C   UNK A  0       22.065 -21.092   4.904  0.00  0.00    +0.115 C 
ATOM     33  C   UNK A  0       22.717 -20.631   6.221  0.00  0.00    +0.127 C 
ATOM     34  N   UNK A  0       23.345 -19.338   6.012  0.00  0.00    -0.326 N 
ATOM     35  H   UNK A  0       23.837 -18.919   6.796  0.00  0.00    +0.148 HD
ATOM     36  C   UNK A  0       20.034 -20.413   3.718  0.00  0.00    +0.333 C 
ATOM     37  O   UNK A  0       19.622 -21.571   3.663  0.00  0.00    -0.279 OA
ATOM     38  C   UNK A  0       22.742 -18.363   5.222  0.00  0.00    +0.149 C 
ATOM     39  N   UNK A  0       23.271 -17.100   5.316  0.00  0.00    -0.199 NA
BRANCH  25  40
ATOM     40  N   UNK A  0       23.276 -14.900   4.651  0.00  0.00    -0.329 N 
ATOM     41  H   UNK A  0       22.703 -14.143   4.304  0.00  0.00    +0.145 HD
ATOM     42  H   UNK A  0       23.723 -14.691   5.539  0.00  0.00    +0.145 HD
ENDBRANCH  25  40
ENDBRANCH  24  32
ENDBRANCH   1  24
TORSDOF 12
ENDMDL
