MODEL 1
REMARK VINA RESULT:       7.4      0.000      0.000
REMARK  Name = *****
REMARK                            x       y       z     vdW  Elec       q    Type
REMARK                         _______ _______ _______ _____ _____    ______ ____
ROOT
ATOM      1  C   LIG    1       26.333 -17.388   3.990  0.00  0.00    -0.011 A 
ATOM      2  C   LIG    1       25.770 -16.069   4.037  0.00  0.00    -0.012 A 
ATOM      3  C   LIG    1       24.367 -15.941   3.957  0.00  0.00    -0.009 A 
ATOM      4  C   LIG    1       23.799 -14.649   4.167  0.00  0.00    +0.021 A 
ATOM      5  C   LIG    1       24.546 -13.497   4.422  0.00  0.00    +0.055 A 
ATOM      6  C   LIG    1       25.927 -13.600   4.342  0.00  0.00    +0.013 A 
ATOM      7  C   LIG    1       23.506 -17.066   3.741  0.00  0.00    -0.007 A 
ATOM      8  C   LIG    1       24.092 -18.343   3.529  0.00  0.00    +0.002 A 
ATOM      9  C   LIG    1       23.241 -19.451   3.292  0.00  0.00    +0.050 A 
ATOM     10  C   LIG    1       21.849 -19.347   3.331  0.00  0.00    +0.040 A 
ATOM     11  C   LIG    1       21.283 -18.109   3.567  0.00  0.00    +0.043 A 
ATOM     12 CL   LIG    1       19.579 -17.960   3.701  0.00  0.00    -0.084 Cl
ATOM     13 CL   LIG    1       23.882 -21.043   2.991  0.00  0.00    -0.083 Cl
ATOM     14  C   LIG    1       22.096 -17.003   3.726  0.00  0.00    +0.029 A 
ATOM     15  C   LIG    1       26.536 -14.866   4.147  0.00  0.00    +0.009 A 
ATOM     16  C   LIG    1       25.478 -18.436   3.620  0.00  0.00    +0.016 A 
ENDROOT
BRANCH   5  17
ATOM     17  C   LIG    1       23.831 -12.227   4.807  0.00  0.00    +0.417 C 
ATOM     18  F   LIG    1       23.499 -11.447   3.744  0.00  0.00    -0.166 F 
ATOM     19  F   LIG    1       24.584 -11.447   5.631  0.00  0.00    -0.166 F 
ATOM     20  F   LIG    1       22.667 -12.448   5.482  0.00  0.00    -0.166 F 
ENDBRANCH   5  17
BRANCH   1  21
ATOM     21  C   LIG    1       27.769 -17.715   4.359  0.00  0.00    +0.146 C 
BRANCH  21  22
ATOM     22  O   LIG    1       28.589 -17.597   3.200  0.00  0.00    -0.387 OA
ATOM     23  H   LIG    1       29.002 -16.716   3.237  0.00  0.00    +0.210 HD
ENDBRANCH  21  22
BRANCH  21  24
ATOM     24  C   LIG    1       28.102 -19.059   5.103  0.00  0.00    +0.051 C 
BRANCH  24  25
ATOM     25  C   LIG    1       27.181 -20.310   4.978  0.00  0.00    +0.087 C 
BRANCH  25  26
ATOM     26  N   LIG    1       27.267 -21.430   5.957  0.00  0.00    -0.302 NA
BRANCH  26  27
ATOM     27  C   LIG    1       28.682 -21.570   6.466  0.00  0.00    +0.084 C 
BRANCH  27  28
ATOM     28  C   LIG    1       29.475 -20.353   7.051  0.00  0.00    +0.015 C 
BRANCH  28  30
ATOM     29  C   LIG    1       29.403 -17.770   7.062  0.00  0.00    +0.004 C 
ATOM     30  C   LIG    1       29.452 -19.053   6.239  0.00  0.00    -0.002 C 
ENDBRANCH  28  30
ENDBRANCH  27  28
ENDBRANCH  26  27
BRANCH  26  31
ATOM     31  C   LIG    1       26.298 -21.462   7.062  0.00  0.00    +0.084 C 
BRANCH  31  32
ATOM     32  C   LIG    1       25.038 -20.588   7.007  0.00  0.00    +0.015 C 
BRANCH  32  33
ATOM     33  C   LIG    1       23.754 -21.354   6.673  0.00  0.00    -0.002 C 
ATOM     34  C   LIG    1       22.492 -20.521   6.691  0.00  0.00    +0.004 C 
ENDBRANCH  32  33
ENDBRANCH  31  32
ENDBRANCH  26  31
ENDBRANCH  25  26
ENDBRANCH  24  25
ENDBRANCH  21  24
ENDBRANCH   1  21
TORSDOF 12
ENDMDL
MODEL 2
REMARK VINA RESULT:       7.5      3.858      6.754
REMARK  Name = *****
REMARK                            x       y       z     vdW  Elec       q    Type
REMARK                         _______ _______ _______ _____ _____    ______ ____
ROOT
ATOM      1  C   LIG    1       25.409 -16.365   3.174  0.00  0.00    -0.011 A 
ATOM      2  C   LIG    1       26.215 -17.225   3.992  0.00  0.00    -0.012 A 
ATOM      3  C   LIG    1       25.608 -18.366   4.558  0.00  0.00    -0.009 A 
ATOM      4  C   LIG    1       26.444 -19.305   5.234  0.00  0.00    +0.021 A 
ATOM      5  C   LIG    1       27.823 -19.153   5.391  0.00  0.00    +0.055 A 
ATOM      6  C   LIG    1       28.387 -17.957   4.972  0.00  0.00    +0.013 A 
ATOM      7  C   LIG    1       24.208 -18.638   4.419  0.00  0.00    -0.007 A 
ATOM      8  C   LIG    1       23.392 -17.688   3.748  0.00  0.00    +0.002 A 
ATOM      9  C   LIG    1       22.003 -17.946   3.630  0.00  0.00    +0.050 A 
ATOM     10  C   LIG    1       21.421 -19.131   4.086  0.00  0.00    +0.040 A 
ATOM     11  C   LIG    1       22.223 -20.065   4.711  0.00  0.00    +0.043 A 
ATOM     12 CL   LIG    1       21.557 -21.565   5.211  0.00  0.00    -0.084 Cl
ATOM     13 CL   LIG    1       20.930 -16.816   2.850  0.00  0.00    -0.083 Cl
ATOM     14  C   LIG    1       23.566 -19.799   4.901  0.00  0.00    +0.029 A 
ATOM     15  C   LIG    1       27.596 -17.000   4.286  0.00  0.00    +0.009 A 
ATOM     16  C   LIG    1       24.022 -16.576   3.195  0.00  0.00    +0.016 A 
ENDROOT
BRANCH   5  17
ATOM     17  C   LIG    1       28.628 -20.294   5.962  0.00  0.00    +0.417 C 
ATOM     18  F   LIG    1       29.463 -19.920   6.967  0.00  0.00    -0.166 F 
ATOM     19  F   LIG    1       29.410 -20.888   5.018  0.00  0.00    -0.166 F 
ATOM     20  F   LIG    1       27.855 -21.294   6.473  0.00  0.00    -0.166 F 
ENDBRANCH   5  17
BRANCH   1  21
ATOM     21  C   LIG    1       25.967 -15.285   2.264  0.00  0.00    +0.146 C 
BRANCH  21  22
ATOM     22  O   LIG    1       27.381 -15.223   2.425  0.00  0.00    -0.387 OA
ATOM     23  H   LIG    1       27.771 -15.724   1.686  0.00  0.00    +0.210 HD
ENDBRANCH  21  22
BRANCH  21  24
ATOM     24  C   LIG    1       25.369 -13.833   2.309  0.00  0.00    +0.051 C 
BRANCH  24  25
ATOM     25  C   LIG    1       26.058 -12.693   3.117  0.00  0.00    +0.087 C 
BRANCH  25  26
ATOM     26  N   LIG    1       25.576 -12.313   4.476  0.00  0.00    -0.302 NA
BRANCH  26  27
ATOM     27  C   LIG    1       24.094 -12.580   4.596  0.00  0.00    +0.084 C 
BRANCH  27  28
ATOM     28  C   LIG    1       23.516 -14.033   4.645  0.00  0.00    +0.015 C 
BRANCH  28  30
ATOM     29  C   LIG    1       21.699 -15.441   5.826  0.00  0.00    +0.004 C 
ATOM     30  C   LIG    1       22.879 -14.485   5.964  0.00  0.00    -0.002 C 
ENDBRANCH  28  30
ENDBRANCH  27  28
ENDBRANCH  26  27
BRANCH  26  31
ATOM     31  C   LIG    1       26.307 -12.832   5.641  0.00  0.00    +0.084 C 
BRANCH  31  32
ATOM     32  C   LIG    1       27.586 -13.656   5.444  0.00  0.00    +0.015 C 
BRANCH  32  33
ATOM     33  C   LIG    1       28.484 -13.164   4.305  0.00  0.00    -0.002 C 
ATOM     34  C   LIG    1       29.026 -11.763   4.480  0.00  0.00    +0.004 C 
ENDBRANCH  32  33
ENDBRANCH  31  32
ENDBRANCH  26  31
ENDBRANCH  25  26
ENDBRANCH  24  25
ENDBRANCH  21  24
ENDBRANCH   1  21
TORSDOF 12
ENDMDL
MODEL 3
REMARK VINA RESULT:       8.9      3.856      6.193
REMARK  Name = *****
REMARK                            x       y       z     vdW  Elec       q    Type
REMARK                         _______ _______ _______ _____ _____    ______ ____
ROOT
ATOM      1  C   LIG    1       25.404 -16.366   3.149  0.00  0.00    -0.011 A 
ATOM      2  C   LIG    1       26.203 -17.218   3.982  0.00  0.00    -0.012 A 
ATOM      3  C   LIG    1       25.591 -18.353   4.556  0.00  0.00    -0.009 A 
ATOM      4  C   LIG    1       26.420 -19.285   5.248  0.00  0.00    +0.021 A 
ATOM      5  C   LIG    1       27.799 -19.133   5.414  0.00  0.00    +0.055 A 
ATOM      6  C   LIG    1       28.367 -17.942   4.987  0.00  0.00    +0.013 A 
ATOM      7  C   LIG    1       24.191 -18.625   4.409  0.00  0.00    -0.007 A 
ATOM      8  C   LIG    1       23.382 -17.681   3.721  0.00  0.00    +0.002 A 
ATOM      9  C   LIG    1       21.993 -17.939   3.596  0.00  0.00    +0.050 A 
ATOM     10  C   LIG    1       21.406 -19.118   4.059  0.00  0.00    +0.040 A 
ATOM     11  C   LIG    1       22.203 -20.047   4.701  0.00  0.00    +0.043 A 
ATOM     12 CL   LIG    1       21.532 -21.541   5.212  0.00  0.00    -0.084 Cl
ATOM     13 CL   LIG    1       20.928 -16.816   2.796  0.00  0.00    -0.083 Cl
ATOM     14  C   LIG    1       23.544 -19.780   4.899  0.00  0.00    +0.029 A 
ATOM     15  C   LIG    1       27.582 -16.992   4.285  0.00  0.00    +0.009 A 
ATOM     16  C   LIG    1       24.017 -16.576   3.162  0.00  0.00    +0.016 A 
ENDROOT
BRANCH   5  17
ATOM     17  C   LIG    1       28.597 -20.269   6.003  0.00  0.00    +0.417 C 
ATOM     18  F   LIG    1       27.831 -21.223   6.594  0.00  0.00    -0.166 F 
ATOM     19  F   LIG    1       29.471 -19.838   6.955  0.00  0.00    -0.166 F 
ATOM     20  F   LIG    1       29.361 -20.923   5.082  0.00  0.00    -0.166 F 
ENDBRANCH   5  17
BRANCH   1  21
ATOM     21  C   LIG    1       25.970 -15.297   2.232  0.00  0.00    +0.146 C 
BRANCH  21  22
ATOM     22  O   LIG    1       27.274 -14.939   2.680  0.00  0.00    -0.387 OA
ATOM     23  H   LIG    1       27.427 -14.020   2.397  0.00  0.00    +0.210 HD
ENDBRANCH  21  22
BRANCH  21  24
ATOM     24  C   LIG    1       25.141 -13.995   1.937  0.00  0.00    +0.051 C 
BRANCH  24  25
ATOM     25  C   LIG    1       24.721 -13.020   3.079  0.00  0.00    +0.087 C 
BRANCH  25  26
ATOM     26  N   LIG    1       25.237 -13.193   4.467  0.00  0.00    -0.302 NA
BRANCH  26  27
ATOM     27  C   LIG    1       26.604 -12.565   4.596  0.00  0.00    +0.084 C 
BRANCH  27  28
ATOM     28  C   LIG    1       27.846 -13.381   5.088  0.00  0.00    +0.015 C 
BRANCH  28  30
ATOM     29  C   LIG    1       29.420 -11.632   4.019  0.00  0.00    +0.004 C 
ATOM     30  C   LIG    1       29.186 -13.089   4.403  0.00  0.00    -0.002 C 
ENDBRANCH  28  30
ENDBRANCH  27  28
ENDBRANCH  26  27
BRANCH  26  31
ATOM     31  C   LIG    1       24.364 -12.806   5.584  0.00  0.00    +0.084 C 
BRANCH  31  32
ATOM     32  C   LIG    1       22.908 -13.286   5.627  0.00  0.00    +0.015 C 
BRANCH  32  33
ATOM     33  C   LIG    1       22.748 -14.797   5.821  0.00  0.00    -0.002 C 
ATOM     34  C   LIG    1       21.403 -15.232   6.359  0.00  0.00    +0.004 C 
ENDBRANCH  32  33
ENDBRANCH  31  32
ENDBRANCH  26  31
ENDBRANCH  25  26
ENDBRANCH  24  25
ENDBRANCH  21  24
ENDBRANCH   1  21
TORSDOF 12
ENDMDL
MODEL 4
REMARK VINA RESULT:       9.4      4.177      7.463
REMARK  Name = *****
REMARK                            x       y       z     vdW  Elec       q    Type
REMARK                         _______ _______ _______ _____ _____    ______ ____
ROOT
ATOM      1  C   LIG    1       24.816 -16.301   3.719  0.00  0.00    -0.011 A 
ATOM      2  C   LIG    1       23.922 -17.423   3.756  0.00  0.00    -0.012 A 
ATOM      3  C   LIG    1       24.411 -18.650   4.252  0.00  0.00    -0.009 A 
ATOM      4  C   LIG    1       23.482 -19.716   4.441  0.00  0.00    +0.021 A 
ATOM      5  C   LIG    1       22.120 -19.630   4.143  0.00  0.00    +0.055 A 
ATOM      6  C   LIG    1       21.676 -18.478   3.510  0.00  0.00    +0.013 A 
ATOM      7  C   LIG    1       25.783 -18.832   4.628  0.00  0.00    -0.007 A 
ATOM      8  C   LIG    1       26.693 -17.759   4.426  0.00  0.00    +0.002 A 
ATOM      9  C   LIG    1       28.053 -17.948   4.776  0.00  0.00    +0.050 A 
ATOM     10  C   LIG    1       28.516 -19.120   5.377  0.00  0.00    +0.040 A 
ATOM     11  C   LIG    1       27.622 -20.149   5.598  0.00  0.00    +0.043 A 
ATOM     12 CL   LIG    1       28.138 -21.571   6.406  0.00  0.00    -0.084 Cl
ATOM     13 CL   LIG    1       29.238 -16.693   4.530  0.00  0.00    -0.083 Cl
ATOM     14  C   LIG    1       26.307 -20.013   5.196  0.00  0.00    +0.029 A 
ATOM     15  C   LIG    1       22.562 -17.388   3.312  0.00  0.00    +0.009 A 
ATOM     16  C   LIG    1       26.176 -16.561   3.941  0.00  0.00    +0.016 A 
ENDROOT
BRANCH   5  17
ATOM     17  C   LIG    1       21.205 -20.755   4.553  0.00  0.00    +0.417 C 
ATOM     18  F   LIG    1       20.853 -21.572   3.524  0.00  0.00    -0.166 F 
ATOM     19  F   LIG    1       20.041 -20.296   5.091  0.00  0.00    -0.166 F 
ATOM     20  F   LIG    1       21.746 -21.569   5.504  0.00  0.00    -0.166 F 
ENDBRANCH   5  17
BRANCH   1  21
ATOM     21  C   LIG    1       24.374 -14.865   3.503  0.00  0.00    +0.146 C 
BRANCH  21  22
ATOM     22  O   LIG    1       22.951 -14.802   3.546  0.00  0.00    -0.387 OA
ATOM     23  H   LIG    1       22.666 -14.341   2.737  0.00  0.00    +0.210 HD
ENDBRANCH  21  22
BRANCH  21  24
ATOM     24  C   LIG    1       24.898 -14.061   2.259  0.00  0.00    +0.051 C 
BRANCH  24  25
ATOM     25  C   LIG    1       26.417 -13.778   2.053  0.00  0.00    +0.087 C 
BRANCH  25  26
ATOM     26  N   LIG    1       26.996 -12.435   2.340  0.00  0.00    -0.302 NA
BRANCH  26  27
ATOM     27  C   LIG    1       25.952 -11.541   2.967  0.00  0.00    +0.084 C 
BRANCH  27  28
ATOM     28  C   LIG    1       24.496 -11.447   2.401  0.00  0.00    +0.015 C 
BRANCH  28  30
ATOM     29  C   LIG    1       23.777 -11.600   4.879  0.00  0.00    +0.004 C 
ATOM     30  C   LIG    1       23.350 -11.482   3.419  0.00  0.00    -0.002 C 
ENDBRANCH  28  30
ENDBRANCH  27  28
ENDBRANCH  26  27
BRANCH  26  31
ATOM     31  C   LIG    1       28.266 -12.371   3.077  0.00  0.00    +0.084 C 
BRANCH  31  32
ATOM     32  C   LIG    1       28.399 -13.054   4.444  0.00  0.00    +0.015 C 
BRANCH  32  33
ATOM     33  C   LIG    1       27.123 -13.024   5.291  0.00  0.00    -0.002 C 
ATOM     34  C   LIG    1       27.107 -13.990   6.455  0.00  0.00    +0.004 C 
ENDBRANCH  32  33
ENDBRANCH  31  32
ENDBRANCH  26  31
ENDBRANCH  25  26
ENDBRANCH  24  25
ENDBRANCH  21  24
ENDBRANCH   1  21
TORSDOF 12
ENDMDL
MODEL 5
REMARK VINA RESULT:      10.3      3.214      5.145
REMARK  Name = *****
REMARK                            x       y       z     vdW  Elec       q    Type
REMARK                         _______ _______ _______ _____ _____    ______ ____
ROOT
ATOM      1  C   LIG    1       26.535 -16.857   4.556  0.00  0.00    -0.011 A 
ATOM      2  C   LIG    1       25.130 -17.133   4.463  0.00  0.00    -0.012 A 
ATOM      3  C   LIG    1       24.286 -16.126   3.946  0.00  0.00    -0.009 A 
ATOM      4  C   LIG    1       22.919 -16.456   3.702  0.00  0.00    +0.021 A 
ATOM      5  C   LIG    1       22.357 -17.708   3.965  0.00  0.00    +0.055 A 
ATOM      6  C   LIG    1       23.150 -18.640   4.617  0.00  0.00    +0.013 A 
ATOM      7  C   LIG    1       24.771 -14.821   3.604  0.00  0.00    -0.007 A 
ATOM      8  C   LIG    1       26.134 -14.511   3.861  0.00  0.00    +0.002 A 
ATOM      9  C   LIG    1       26.607 -13.213   3.543  0.00  0.00    +0.050 A 
ATOM     10  C   LIG    1       25.804 -12.255   2.923  0.00  0.00    +0.040 A 
ATOM     11  C   LIG    1       24.487 -12.571   2.648  0.00  0.00    +0.043 A 
ATOM     12 CL   LIG    1       23.495 -11.447   1.814  0.00  0.00    -0.084 Cl
ATOM     13 CL   LIG    1       28.256 -12.744   3.857  0.00  0.00    -0.083 Cl
ATOM     14  C   LIG    1       23.987 -13.805   3.017  0.00  0.00    +0.029 A 
ATOM     15  C   LIG    1       24.517 -18.359   4.870  0.00  0.00    +0.009 A 
ATOM     16  C   LIG    1       26.940 -15.528   4.364  0.00  0.00    +0.016 A 
ENDROOT
BRANCH   5  17
ATOM     17  C   LIG    1       20.953 -17.995   3.497  0.00  0.00    +0.417 C 
ATOM     18  F   LIG    1       20.769 -17.782   2.167  0.00  0.00    -0.166 F 
ATOM     19  F   LIG    1       20.034 -17.219   4.138  0.00  0.00    -0.166 F 
ATOM     20  F   LIG    1       20.563 -19.281   3.725  0.00  0.00    -0.166 F 
ENDBRANCH   5  17
BRANCH   1  21
ATOM     21  C   LIG    1       27.596 -17.915   4.800  0.00  0.00    +0.146 C 
BRANCH  21  22
ATOM     22  O   LIG    1       28.760 -17.593   4.043  0.00  0.00    -0.387 OA
ATOM     23  H   LIG    1       29.519 -17.678   4.646  0.00  0.00    +0.210 HD
ENDBRANCH  21  22
BRANCH  21  24
ATOM     24  C   LIG    1       27.249 -19.435   4.608  0.00  0.00    +0.051 C 
BRANCH  24  25
ATOM     25  C   LIG    1       27.034 -20.382   5.827  0.00  0.00    +0.087 C 
BRANCH  25  26
ATOM     26  N   LIG    1       25.982 -21.438   5.805  0.00  0.00    -0.302 NA
BRANCH  26  27
ATOM     27  C   LIG    1       25.146 -21.366   7.061  0.00  0.00    +0.084 C 
BRANCH  27  28
ATOM     28  C   LIG    1       23.595 -21.571   7.036  0.00  0.00    +0.015 C 
BRANCH  28  30
ATOM     29  C   LIG    1       21.881 -20.944   5.206  0.00  0.00    +0.004 C 
ATOM     30  C   LIG    1       22.760 -20.476   6.361  0.00  0.00    -0.002 C 
ENDBRANCH  28  30
ENDBRANCH  27  28
ENDBRANCH  26  27
BRANCH  26  31
ATOM     31  C   LIG    1       25.136 -21.549   4.608  0.00  0.00    +0.084 C 
BRANCH  31  32
ATOM     32  C   LIG    1       25.176 -20.457   3.532  0.00  0.00    +0.015 C 
BRANCH  32  33
ATOM     33  C   LIG    1       24.520 -20.854   2.206  0.00  0.00    -0.002 C 
ATOM     34  C   LIG    1       23.167 -21.519   2.338  0.00  0.00    +0.004 C 
ENDBRANCH  32  33
ENDBRANCH  31  32
ENDBRANCH  26  31
ENDBRANCH  25  26
ENDBRANCH  24  25
ENDBRANCH  21  24
ENDBRANCH   1  21
TORSDOF 12
ENDMDL
