MODEL 1
REMARK VINA RESULT:      -4.5      0.000      0.000
REMARK  Name = *****
REMARK                            x       y       z     vdW  Elec       q    Type
REMARK                         _______ _______ _______ _____ _____    ______ ____
ROOT
ATOM      1  C   LIG    1       22.195 -15.186   6.178  0.00  0.00    +0.044 C 
ATOM      2  C   LIG    1       22.533 -15.779   4.834  0.00  0.00    -0.050 C 
ATOM      3  C   LIG    1       22.562 -17.134   4.796  0.00  0.00    +0.003 C 
ENDROOT
BRANCH   3   4
ATOM      4  C   LIG    1       22.796 -18.077   3.722  0.00  0.00    +0.001 C 
ATOM      5  C   LIG    1       23.454 -19.259   3.759  0.00  0.00    +0.003 C 
BRANCH   5   6
ATOM      6  C   LIG    1       24.289 -19.912   4.791  0.00  0.00    -0.044 C 
ATOM      7  C   LIG    1       25.639 -19.893   4.659  0.00  0.00    +0.094 C 
ATOM      8  C   LIG    1       23.607 -20.542   5.979  0.00  0.00    +0.044 C 
BRANCH   7   9
ATOM      9  C   LIG    1       26.635 -20.492   5.580  0.00  0.00    +0.330 C 
ATOM     10  O   LIG    1       26.473 -21.211   6.539  0.00  0.00    -0.246 OA
BRANCH   9  11
ATOM     11  O   LIG    1       27.875 -20.126   5.191  0.00  0.00    -0.477 OA
ATOM     12  H   LIG    1       27.910 -19.175   5.420  0.00  0.00    +0.295 HD
ENDBRANCH   9  11
ENDBRANCH   7   9
ENDBRANCH   5   6
ENDBRANCH   3   4
BRANCH   2  13
ATOM     13  C   LIG    1       22.872 -14.883   3.721  0.00  0.00    +0.003 C 
ATOM     14  C   LIG    1       23.970 -14.172   3.373  0.00  0.00    +0.004 C 
BRANCH  14  15
ATOM     15  C   LIG    1       25.292 -13.941   3.984  0.00  0.00    -0.043 C 
ATOM     16  C   LIG    1       26.462 -14.813   3.414  0.00  0.00    -0.010 C 
ATOM     17  C   LIG    1       26.151 -16.332   3.480  0.00  0.00    +0.016 C 
ATOM     18  C   LIG    1       26.717 -14.427   1.942  0.00  0.00    +0.016 C 
ATOM     19  C   LIG    1       27.795 -14.643   4.208  0.00  0.00    +0.011 C 
ATOM     20  C   LIG    1       28.015 -13.217   4.667  0.00  0.00    +0.005 C 
ATOM     21  C   LIG    1       26.880 -12.820   5.597  0.00  0.00    +0.031 C 
ATOM     22  C   LIG    1       25.499 -13.110   5.038  0.00  0.00    -0.069 C 
ATOM     23  C   LIG    1       24.428 -12.371   5.798  0.00  0.00    +0.039 C 
ENDBRANCH  14  15
ENDBRANCH   2  13
TORSDOF 6
ENDMDL
MODEL 2
REMARK VINA RESULT:      -4.4      0.881      2.089
REMARK  Name = *****
REMARK                            x       y       z     vdW  Elec       q    Type
REMARK                         _______ _______ _______ _____ _____    ______ ____
ROOT
ATOM      1  C   LIG    1       22.328 -15.200   6.294  0.00  0.00    +0.044 C 
ATOM      2  C   LIG    1       22.397 -16.007   5.023  0.00  0.00    -0.050 C 
ATOM      3  C   LIG    1       22.327 -17.350   5.192  0.00  0.00    +0.003 C 
ENDROOT
BRANCH   3   4
ATOM      4  C   LIG    1       22.315 -18.453   4.253  0.00  0.00    +0.001 C 
ATOM      5  C   LIG    1       22.930 -19.655   4.349  0.00  0.00    +0.003 C 
BRANCH   5   6
ATOM      6  C   LIG    1       23.931 -20.199   5.293  0.00  0.00    -0.044 C 
ATOM      7  C   LIG    1       25.243 -20.177   4.950  0.00  0.00    +0.094 C 
ATOM      8  C   LIG    1       23.457 -20.722   6.625  0.00  0.00    +0.044 C 
BRANCH   7   9
ATOM      9  C   LIG    1       26.384 -20.676   5.756  0.00  0.00    +0.330 C 
ATOM     10  O   LIG    1       26.394 -21.388   6.733  0.00  0.00    -0.246 OA
BRANCH   9  11
ATOM     11  O   LIG    1       27.537 -20.217   5.222  0.00  0.00    -0.477 OA
ATOM     12  H   LIG    1       28.017 -21.038   4.986  0.00  0.00    +0.295 HD
ENDBRANCH   9  11
ENDBRANCH   7   9
ENDBRANCH   5   6
ENDBRANCH   3   4
BRANCH   2  13
ATOM     13  C   LIG    1       22.606 -15.312   3.745  0.00  0.00    +0.003 C 
ATOM     14  C   LIG    1       23.677 -14.765   3.125  0.00  0.00    +0.004 C 
BRANCH  14  15
ATOM     15  C   LIG    1       25.096 -14.578   3.478  0.00  0.00    -0.043 C 
ATOM     16  C   LIG    1       25.559 -13.092   3.657  0.00  0.00    -0.010 C 
ATOM     17  C   LIG    1       25.247 -12.223   2.411  0.00  0.00    +0.016 C 
ATOM     18  C   LIG    1       24.842 -12.478   4.877  0.00  0.00    +0.016 C 
ATOM     19  C   LIG    1       27.099 -12.952   3.867  0.00  0.00    +0.011 C 
ATOM     20  C   LIG    1       27.671 -14.072   4.710  0.00  0.00    +0.005 C 
ATOM     21  C   LIG    1       27.429 -15.394   4.001  0.00  0.00    +0.031 C 
ATOM     22  C   LIG    1       25.993 -15.595   3.552  0.00  0.00    -0.069 C 
ATOM     23  C   LIG    1       25.717 -17.037   3.210  0.00  0.00    +0.039 C 
ENDBRANCH  14  15
ENDBRANCH   2  13
TORSDOF 6
ENDMDL
MODEL 3
REMARK VINA RESULT:      -3.5      3.170      7.169
REMARK  Name = *****
REMARK                            x       y       z     vdW  Elec       q    Type
REMARK                         _______ _______ _______ _____ _____    ______ ____
ROOT
ATOM      1  C   LIG    1       28.073 -18.273   4.485  0.00  0.00    +0.044 C 
ATOM      2  C   LIG    1       26.824 -17.864   3.746  0.00  0.00    -0.050 C 
ATOM      3  C   LIG    1       26.496 -16.553   3.856  0.00  0.00    +0.003 C 
ENDROOT
BRANCH   3   4
ATOM      4  C   LIG    1       25.426 -15.763   3.283  0.00  0.00    +0.001 C 
ATOM      5  C   LIG    1       25.424 -14.451   2.953  0.00  0.00    +0.003 C 
BRANCH   5   6
ATOM      6  C   LIG    1       26.381 -13.351   3.203  0.00  0.00    -0.044 C 
ATOM      7  C   LIG    1       27.513 -13.606   3.907  0.00  0.00    +0.094 C 
ATOM      8  C   LIG    1       26.081 -11.989   2.630  0.00  0.00    +0.044 C 
BRANCH   7   9
ATOM      9  C   LIG    1       28.581 -12.640   4.260  0.00  0.00    +0.330 C 
ATOM     10  O   LIG    1       28.729 -11.975   5.260  0.00  0.00    -0.246 OA
BRANCH   9  11
ATOM     11  O   LIG    1       29.475 -12.579   3.250  0.00  0.00    -0.477 OA
ATOM     12  H   LIG    1       30.320 -12.391   3.709  0.00  0.00    +0.295 HD
ENDBRANCH   9  11
ENDBRANCH   7   9
ENDBRANCH   5   6
ENDBRANCH   3   4
BRANCH   2  13
ATOM     13  C   LIG    1       26.037 -18.891   3.051  0.00  0.00    +0.003 C 
ATOM     14  C   LIG    1       25.116 -19.805   3.435  0.00  0.00    +0.004 C 
BRANCH  14  15
ATOM     15  C   LIG    1       24.534 -20.210   4.728  0.00  0.00    -0.043 C 
ATOM     16  C   LIG    1       22.996 -19.958   4.887  0.00  0.00    -0.010 C 
ATOM     17  C   LIG    1       22.610 -18.480   4.619  0.00  0.00    +0.016 C 
ATOM     18  C   LIG    1       22.227 -20.855   3.894  0.00  0.00    +0.016 C 
ATOM     19  C   LIG    1       22.473 -20.254   6.327  0.00  0.00    +0.011 C 
ATOM     20  C   LIG    1       23.153 -21.453   6.953  0.00  0.00    +0.005 C 
ATOM     21  C   LIG    1       24.643 -21.173   7.062  0.00  0.00    +0.031 C 
ATOM     22  C   LIG    1       25.269 -20.679   5.769  0.00  0.00    -0.069 C 
ATOM     23  C   LIG    1       26.772 -20.781   5.809  0.00  0.00    +0.039 C 
ENDBRANCH  14  15
ENDBRANCH   2  13
TORSDOF 6
ENDMDL
MODEL 4
REMARK VINA RESULT:      -3.4      2.654      5.909
REMARK  Name = *****
REMARK                            x       y       z     vdW  Elec       q    Type
REMARK                         _______ _______ _______ _____ _____    ______ ____
ROOT
ATOM      1  C   LIG    1       22.011 -16.057   6.587  0.00  0.00    +0.044 C 
ATOM      2  C   LIG    1       22.426 -16.230   5.148  0.00  0.00    -0.050 C 
ATOM      3  C   LIG    1       23.111 -15.186   4.620  0.00  0.00    +0.003 C 
ENDROOT
BRANCH   3   4
ATOM      4  C   LIG    1       23.714 -14.971   3.320  0.00  0.00    +0.001 C 
ATOM      5  C   LIG    1       24.917 -14.428   3.023  0.00  0.00    +0.003 C 
BRANCH   5   6
ATOM      6  C   LIG    1       25.931 -13.725   3.840  0.00  0.00    -0.044 C 
ATOM      7  C   LIG    1       27.230 -13.754   3.449  0.00  0.00    +0.094 C 
ATOM      8  C   LIG    1       25.475 -12.966   5.059  0.00  0.00    +0.044 C 
BRANCH   7   9
ATOM      9  C   LIG    1       28.382 -13.118   4.134  0.00  0.00    +0.330 C 
ATOM     10  O   LIG    1       28.444 -12.584   5.217  0.00  0.00    -0.246 OA
BRANCH   9  11
ATOM     11  O   LIG    1       29.475 -13.219   3.347  0.00  0.00    -0.477 OA
ATOM     12  H   LIG    1       30.023 -12.456   3.626  0.00  0.00    +0.295 HD
ENDBRANCH   9  11
ENDBRANCH   7   9
ENDBRANCH   5   6
ENDBRANCH   3   4
BRANCH   2  13
ATOM     13  C   LIG    1       22.008 -17.437   4.424  0.00  0.00    +0.003 C 
ATOM     14  C   LIG    1       22.521 -18.679   4.269  0.00  0.00    +0.004 C 
BRANCH  14  15
ATOM     15  C   LIG    1       23.752 -19.355   4.717  0.00  0.00    -0.043 C 
ATOM     16  C   LIG    1       24.950 -19.320   3.708  0.00  0.00    -0.010 C 
ATOM     17  C   LIG    1       24.563 -19.882   2.315  0.00  0.00    +0.016 C 
ATOM     18  C   LIG    1       25.429 -17.864   3.536  0.00  0.00    +0.016 C 
ATOM     19  C   LIG    1       26.163 -20.188   4.167  0.00  0.00    +0.011 C 
ATOM     20  C   LIG    1       26.380 -20.130   5.664  0.00  0.00    +0.005 C 
ATOM     21  C   LIG    1       25.145 -20.674   6.363  0.00  0.00    +0.031 C 
ATOM     22  C   LIG    1       23.845 -20.057   5.877  0.00  0.00    -0.069 C 
ATOM     23  C   LIG    1       22.712 -20.330   6.832  0.00  0.00    +0.039 C 
ENDBRANCH  14  15
ENDBRANCH   2  13
TORSDOF 6
ENDMDL
MODEL 5
REMARK VINA RESULT:      -3.4      1.308      3.000
REMARK  Name = *****
REMARK                            x       y       z     vdW  Elec       q    Type
REMARK                         _______ _______ _______ _____ _____    ______ ____
ROOT
ATOM      1  C   LIG    1       22.032 -18.285   2.643  0.00  0.00    +0.044 C 
ATOM      2  C   LIG    1       22.263 -18.234   4.132  0.00  0.00    -0.050 C 
ATOM      3  C   LIG    1       22.356 -19.442   4.740  0.00  0.00    +0.003 C 
ENDROOT
BRANCH   3   4
ATOM      4  C   LIG    1       22.612 -19.828   6.113  0.00  0.00    +0.001 C 
ATOM      5  C   LIG    1       23.762 -20.276   6.668  0.00  0.00    +0.003 C 
BRANCH   5   6
ATOM      6  C   LIG    1       25.059 -20.692   6.092  0.00  0.00    -0.044 C 
ATOM      7  C   LIG    1       26.208 -20.305   6.701  0.00  0.00    +0.094 C 
ATOM      8  C   LIG    1       25.056 -21.570   4.866  0.00  0.00    +0.044 C 
BRANCH   7   9
ATOM      9  C   LIG    1       27.594 -20.617   6.274  0.00  0.00    +0.330 C 
ATOM     10  O   LIG    1       28.430 -21.316   6.798  0.00  0.00    -0.246 OA
BRANCH   9  11
ATOM     11  O   LIG    1       27.850 -19.986   5.108  0.00  0.00    -0.477 OA
ATOM     12  H   LIG    1       28.632 -19.435   5.318  0.00  0.00    +0.295 HD
ENDBRANCH   9  11
ENDBRANCH   7   9
ENDBRANCH   5   6
ENDBRANCH   3   4
BRANCH   2  13
ATOM     13  C   LIG    1       22.292 -16.929   4.807  0.00  0.00    +0.003 C 
ATOM     14  C   LIG    1       23.122 -15.861   4.776  0.00  0.00    +0.004 C 
BRANCH  14  15
ATOM     15  C   LIG    1       24.392 -15.554   4.093  0.00  0.00    -0.043 C 
ATOM     16  C   LIG    1       24.637 -14.042   3.767  0.00  0.00    -0.010 C 
ATOM     17  C   LIG    1       23.477 -13.420   2.946  0.00  0.00    +0.016 C 
ATOM     18  C   LIG    1       24.784 -13.253   5.085  0.00  0.00    +0.016 C 
ATOM     19  C   LIG    1       25.914 -13.800   2.903  0.00  0.00    +0.011 C 
ATOM     20  C   LIG    1       27.049 -14.729   3.279  0.00  0.00    +0.005 C 
ATOM     21  C   LIG    1       26.609 -16.165   3.046  0.00  0.00    +0.031 C 
ATOM     22  C   LIG    1       25.266 -16.503   3.670  0.00  0.00    -0.069 C 
ATOM     23  C   LIG    1       25.052 -17.993   3.746  0.00  0.00    +0.039 C 
ENDBRANCH  14  15
ENDBRANCH   2  13
TORSDOF 6
ENDMDL
MODEL 6
REMARK VINA RESULT:      -3.4      3.205      7.015
REMARK  Name = *****
REMARK                            x       y       z     vdW  Elec       q    Type
REMARK                         _______ _______ _______ _____ _____    ______ ____
ROOT
ATOM      1  C   LIG    1       27.828 -17.597   4.841  0.00  0.00    +0.044 C 
ATOM      2  C   LIG    1       26.912 -17.210   3.708  0.00  0.00    -0.050 C 
ATOM      3  C   LIG    1       26.817 -15.877   3.477  0.00  0.00    +0.003 C 
ENDROOT
BRANCH   3   4
ATOM      4  C   LIG    1       26.099 -15.107   2.483  0.00  0.00    +0.001 C 
ATOM      5  C   LIG    1       25.167 -14.143   2.667  0.00  0.00    +0.003 C 
BRANCH   5   6
ATOM      6  C   LIG    1       24.437 -13.668   3.863  0.00  0.00    -0.044 C 
ATOM      7  C   LIG    1       24.578 -12.377   4.254  0.00  0.00    +0.094 C 
ATOM      8  C   LIG    1       23.526 -14.630   4.581  0.00  0.00    +0.044 C 
BRANCH   7   9
ATOM      9  C   LIG    1       23.936 -11.722   5.420  0.00  0.00    +0.330 C 
ATOM     10  O   LIG    1       22.774 -11.448   5.615  0.00  0.00    -0.246 OA
BRANCH   9  11
ATOM     11  O   LIG    1       24.878 -11.447   6.347  0.00  0.00    -0.477 OA
ATOM     12  H   LIG    1       25.709 -11.444   5.829  0.00  0.00    +0.295 HD
ENDBRANCH   9  11
ENDBRANCH   7   9
ENDBRANCH   5   6
ENDBRANCH   3   4
BRANCH   2  13
ATOM     13  C   LIG    1       26.155 -18.258   3.011  0.00  0.00    +0.003 C 
ATOM     14  C   LIG    1       25.348 -19.269   3.406  0.00  0.00    +0.004 C 
BRANCH  14  15
ATOM     15  C   LIG    1       24.913 -19.799   4.711  0.00  0.00    -0.043 C 
ATOM     16  C   LIG    1       23.369 -19.769   4.974  0.00  0.00    -0.010 C 
ATOM     17  C   LIG    1       22.769 -18.350   4.799  0.00  0.00    +0.016 C 
ATOM     18  C   LIG    1       22.665 -20.726   3.989  0.00  0.00    +0.016 C 
ATOM     19  C   LIG    1       22.986 -20.189   6.428  0.00  0.00    +0.011 C 
ATOM     20  C   LIG    1       23.863 -21.304   6.956  0.00  0.00    +0.005 C 
ATOM     21  C   LIG    1       25.305 -20.825   6.987  0.00  0.00    +0.031 C 
ATOM     22  C   LIG    1       25.772 -20.201   5.684  0.00  0.00    -0.069 C 
ATOM     23  C   LIG    1       27.274 -20.095   5.628  0.00  0.00    +0.039 C 
ENDBRANCH  14  15
ENDBRANCH   2  13
TORSDOF 6
ENDMDL
MODEL 7
REMARK VINA RESULT:      -2.2      2.668      6.216
REMARK  Name = *****
REMARK                            x       y       z     vdW  Elec       q    Type
REMARK                         _______ _______ _______ _____ _____    ______ ____
ROOT
ATOM      1  C   LIG    1       22.096 -16.126   6.592  0.00  0.00    +0.044 C 
ATOM      2  C   LIG    1       22.444 -16.110   5.125  0.00  0.00    -0.050 C 
ATOM      3  C   LIG    1       23.068 -14.986   4.696  0.00  0.00    +0.003 C 
ENDROOT
BRANCH   3   4
ATOM      4  C   LIG    1       23.598 -14.594   3.406  0.00  0.00    +0.001 C 
ATOM      5  C   LIG    1       24.822 -14.101   3.106  0.00  0.00    +0.003 C 
BRANCH   5   6
ATOM      6  C   LIG    1       25.947 -13.629   3.943  0.00  0.00    -0.044 C 
ATOM      7  C   LIG    1       27.171 -13.474   3.378  0.00  0.00    +0.094 C 
ATOM      8  C   LIG    1       25.682 -13.298   5.389  0.00  0.00    +0.044 C 
BRANCH   7   9
ATOM      9  C   LIG    1       28.413 -13.020   4.050  0.00  0.00    +0.330 C 
ATOM     10  O   LIG    1       28.562 -12.459   5.112  0.00  0.00    -0.246 OA
BRANCH   9  11
ATOM     11  O   LIG    1       29.475 -13.343   3.282  0.00  0.00    -0.477 OA
ATOM     12  H   LIG    1       29.427 -12.695   2.549  0.00  0.00    +0.295 HD
ENDBRANCH   9  11
ENDBRANCH   7   9
ENDBRANCH   5   6
ENDBRANCH   3   4
BRANCH   2  13
ATOM     13  C   LIG    1       22.028 -17.236   4.279  0.00  0.00    +0.003 C 
ATOM     14  C   LIG    1       22.506 -18.481   4.051  0.00  0.00    +0.004 C 
BRANCH  14  15
ATOM     15  C   LIG    1       23.683 -19.240   4.511  0.00  0.00    -0.043 C 
ATOM     16  C   LIG    1       23.405 -20.321   5.610  0.00  0.00    -0.010 C 
ATOM     17  C   LIG    1       22.691 -19.728   6.853  0.00  0.00    +0.016 C 
ATOM     18  C   LIG    1       22.518 -21.435   5.017  0.00  0.00    +0.016 C 
ATOM     19  C   LIG    1       24.708 -20.973   6.171  0.00  0.00    +0.011 C 
ATOM     20  C   LIG    1       25.758 -21.177   5.100  0.00  0.00    +0.005 C 
ATOM     21  C   LIG    1       26.141 -19.825   4.522  0.00  0.00    +0.031 C 
ATOM     22  C   LIG    1       24.952 -18.978   4.105  0.00  0.00    -0.069 C 
ATOM     23  C   LIG    1       25.371 -17.842   3.207  0.00  0.00    +0.039 C 
ENDBRANCH  14  15
ENDBRANCH   2  13
TORSDOF 6
ENDMDL
MODEL 8
REMARK VINA RESULT:      -1.9      2.477      6.371
REMARK  Name = *****
REMARK                            x       y       z     vdW  Elec       q    Type
REMARK                         _______ _______ _______ _____ _____    ______ ____
ROOT
ATOM      1  C   LIG    1       22.704 -16.063   5.529  0.00  0.00    +0.044 C 
ATOM      2  C   LIG    1       23.473 -15.575   4.328  0.00  0.00    -0.050 C 
ATOM      3  C   LIG    1       23.148 -14.328   3.907  0.00  0.00    +0.003 C 
ENDROOT
BRANCH   3   4
ATOM      4  C   LIG    1       23.664 -13.490   2.844  0.00  0.00    +0.001 C 
ATOM      5  C   LIG    1       24.949 -13.165   2.569  0.00  0.00    +0.003 C 
BRANCH   5   6
ATOM      6  C   LIG    1       26.217 -13.373   3.302  0.00  0.00    -0.044 C 
ATOM      7  C   LIG    1       26.362 -12.834   4.538  0.00  0.00    +0.094 C 
ATOM      8  C   LIG    1       27.291 -14.215   2.660  0.00  0.00    +0.044 C 
BRANCH   7   9
ATOM      9  C   LIG    1       27.552 -12.929   5.418  0.00  0.00    +0.330 C 
ATOM     10  O   LIG    1       28.675 -12.509   5.256  0.00  0.00    -0.246 OA
BRANCH   9  11
ATOM     11  O   LIG    1       27.216 -13.590   6.546  0.00  0.00    -0.477 OA
ATOM     12  H   LIG    1       26.339 -13.970   6.331  0.00  0.00    +0.295 HD
ENDBRANCH   9  11
ENDBRANCH   7   9
ENDBRANCH   5   6
ENDBRANCH   3   4
BRANCH   2  13
ATOM     13  C   LIG    1       24.428 -16.479   3.674  0.00  0.00    +0.003 C 
ATOM     14  C   LIG    1       24.553 -17.823   3.579  0.00  0.00    +0.004 C 
BRANCH  14  15
ATOM     15  C   LIG    1       23.815 -18.974   4.131  0.00  0.00    -0.043 C 
ATOM     16  C   LIG    1       24.687 -20.220   4.508  0.00  0.00    -0.010 C 
ATOM     17  C   LIG    1       25.550 -20.717   3.319  0.00  0.00    +0.016 C 
ATOM     18  C   LIG    1       25.625 -19.851   5.676  0.00  0.00    +0.016 C 
ATOM     19  C   LIG    1       23.836 -21.458   4.930  0.00  0.00    +0.011 C 
ATOM     20  C   LIG    1       22.611 -21.070   5.732  0.00  0.00    +0.005 C 
ATOM     21  C   LIG    1       21.724 -20.182   4.876  0.00  0.00    +0.031 C 
ATOM     22  C   LIG    1       22.461 -19.024   4.226  0.00  0.00    -0.069 C 
ATOM     23  C   LIG    1       21.505 -17.976   3.716  0.00  0.00    +0.039 C 
ENDBRANCH  14  15
ENDBRANCH   2  13
TORSDOF 6
ENDMDL
MODEL 9
REMARK VINA RESULT:      -1.8      3.007      7.027
REMARK  Name = *****
REMARK                            x       y       z     vdW  Elec       q    Type
REMARK                         _______ _______ _______ _____ _____    ______ ____
ROOT
ATOM      1  C   LIG    1       28.755 -18.574   6.309  0.00  0.00    +0.044 C 
ATOM      2  C   LIG    1       28.041 -18.474   4.985  0.00  0.00    -0.050 C 
ATOM      3  C   LIG    1       27.769 -17.211   4.574  0.00  0.00    +0.003 C 
ENDROOT
BRANCH   3   4
ATOM      4  C   LIG    1       27.152 -16.686   3.373  0.00  0.00    +0.001 C 
ATOM      5  C   LIG    1       26.663 -15.445   3.144  0.00  0.00    +0.003 C 
BRANCH   5   6
ATOM      6  C   LIG    1       26.417 -14.284   4.027  0.00  0.00    -0.044 C 
ATOM      7  C   LIG    1       25.162 -13.776   4.118  0.00  0.00    +0.094 C 
ATOM      8  C   LIG    1       27.568 -13.730   4.828  0.00  0.00    +0.044 C 
BRANCH   7   9
ATOM      9  C   LIG    1       24.724 -12.621   4.940  0.00  0.00    +0.330 C 
ATOM     10  O   LIG    1       23.735 -11.931   4.846  0.00  0.00    -0.246 OA
BRANCH   9  11
ATOM     11  O   LIG    1       25.631 -12.404   5.916  0.00  0.00    -0.477 OA
ATOM     12  H   LIG    1       25.738 -13.288   6.324  0.00  0.00    +0.295 HD
ENDBRANCH   9  11
ENDBRANCH   7   9
ENDBRANCH   5   6
ENDBRANCH   3   4
BRANCH   2  13
ATOM     13  C   LIG    1       27.635 -19.707   4.297  0.00  0.00    +0.003 C 
ATOM     14  C   LIG    1       26.479 -20.403   4.197  0.00  0.00    +0.004 C 
BRANCH  14  15
ATOM     15  C   LIG    1       25.130 -20.261   4.775  0.00  0.00    -0.043 C 
ATOM     16  C   LIG    1       24.083 -19.517   3.878  0.00  0.00    -0.010 C 
ATOM     17  C   LIG    1       24.576 -18.113   3.439  0.00  0.00    +0.016 C 
ATOM     18  C   LIG    1       23.804 -20.358   2.615  0.00  0.00    +0.016 C 
ATOM     19  C   LIG    1       22.728 -19.255   4.607  0.00  0.00    +0.011 C 
ATOM     20  C   LIG    1       22.330 -20.400   5.513  0.00  0.00    +0.005 C 
ATOM     21  C   LIG    1       23.394 -20.574   6.585  0.00  0.00    +0.031 C 
ATOM     22  C   LIG    1       24.808 -20.648   6.037  0.00  0.00    -0.069 C 
ATOM     23  C   LIG    1       25.770 -21.192   7.062  0.00  0.00    +0.039 C 
ENDBRANCH  14  15
ENDBRANCH   2  13
TORSDOF 6
ENDMDL
