MODEL 1
REMARK VINA RESULT:      -4.3      0.000      0.000
REMARK  Name = *****
REMARK                            x       y       z     vdW  Elec       q    Type
REMARK                         _______ _______ _______ _____ _____    ______ ____
ROOT
ATOM      1  C   LIG    1       26.091 -19.814   4.572  0.00  0.00    +0.148 C 
ENDROOT
BRANCH   1   2
ATOM      2  C   LIG    1       25.969 -18.353   4.142  0.00  0.00    -0.020 A 
ATOM      3  C   LIG    1       27.086 -17.516   4.018  0.00  0.00    +0.006 A 
ATOM      4  C   LIG    1       26.944 -16.178   3.628  0.00  0.00    +0.009 A 
ATOM      5  C   LIG    1       25.688 -15.616   3.341  0.00  0.00    -0.018 A 
ATOM      6  C   LIG    1       24.578 -16.473   3.435  0.00  0.00    +0.009 A 
ATOM      7  C   LIG    1       24.714 -17.816   3.819  0.00  0.00    +0.006 A 
BRANCH   5   8
ATOM      8  C   LIG    1       25.551 -14.190   2.955  0.00  0.00    -0.018 A 
ATOM      9  C   LIG    1       24.302 -13.544   2.939  0.00  0.00    +0.008 A 
ATOM     10  C   LIG    1       24.174 -12.201   2.560  0.00  0.00    +0.001 A 
ATOM     11  C   LIG    1       25.296 -11.472   2.179  0.00  0.00    +0.000 A 
ATOM     12  C   LIG    1       26.546 -12.082   2.187  0.00  0.00    +0.001 A 
ATOM     13  C   LIG    1       26.670 -13.420   2.577  0.00  0.00    +0.008 A 
ENDBRANCH   5   8
ENDBRANCH   1   2
BRANCH   1  14
ATOM     14  C   LIG    1       24.807 -20.452   5.115  0.00  0.00    -0.020 A 
ATOM     15  C   LIG    1       23.798 -20.954   4.274  0.00  0.00    +0.006 A 
ATOM     16  C   LIG    1       22.624 -21.499   4.801  0.00  0.00    +0.000 A 
ATOM     17  C   LIG    1       22.442 -21.572   6.177  0.00  0.00    +0.000 A 
ATOM     18  C   LIG    1       23.442 -21.112   7.031  0.00  0.00    +0.000 A 
ATOM     19  C   LIG    1       24.615 -20.559   6.507  0.00  0.00    +0.006 A 
ENDBRANCH   1  14
BRANCH   1  23
ATOM     20  C   LIG    1       28.640 -20.732   6.986  0.00  0.00    +0.130 A 
ATOM     21  N   LIG    1       29.300 -19.769   6.269  0.00  0.00    -0.244 NA
ATOM     22  C   LIG    1       28.447 -19.372   5.357  0.00  0.00    +0.200 A 
ATOM     23  N   LIG    1       27.248 -20.031   5.457  0.00  0.00    -0.325 N 
ATOM     24  C   LIG    1       27.370 -20.916   6.500  0.00  0.00    +0.108 A 
ENDBRANCH   1  23
TORSDOF 4
ENDMDL
MODEL 2
REMARK VINA RESULT:      -1.5      2.067      3.075
REMARK  Name = *****
REMARK                            x       y       z     vdW  Elec       q    Type
REMARK                         _______ _______ _______ _____ _____    ______ ____
ROOT
ATOM      1  C   LIG    1       23.678 -19.657   3.960  0.00  0.00    +0.148 C 
ENDROOT
BRANCH   1   2
ATOM      2  C   LIG    1       24.445 -18.345   3.806  0.00  0.00    -0.020 A 
ATOM      3  C   LIG    1       25.783 -18.307   3.393  0.00  0.00    +0.006 A 
ATOM      4  C   LIG    1       26.464 -17.089   3.266  0.00  0.00    +0.009 A 
ATOM      5  C   LIG    1       25.844 -15.858   3.541  0.00  0.00    -0.018 A 
ATOM      6  C   LIG    1       24.492 -15.904   3.921  0.00  0.00    +0.009 A 
ATOM      7  C   LIG    1       23.801 -17.121   4.043  0.00  0.00    +0.006 A 
BRANCH   5   8
ATOM      8  C   LIG    1       26.586 -14.578   3.427  0.00  0.00    -0.018 A 
ATOM      9  C   LIG    1       26.102 -13.507   2.655  0.00  0.00    +0.008 A 
ATOM     10  C   LIG    1       26.812 -12.305   2.538  0.00  0.00    +0.001 A 
ATOM     11  C   LIG    1       28.031 -12.148   3.188  0.00  0.00    +0.000 A 
ATOM     12  C   LIG    1       28.536 -13.188   3.961  0.00  0.00    +0.001 A 
ATOM     13  C   LIG    1       27.818 -14.382   4.084  0.00  0.00    +0.008 A 
ENDBRANCH   5   8
ENDBRANCH   1   2
BRANCH   1  14
ATOM     14  C   LIG    1       22.152 -19.546   3.858  0.00  0.00    -0.020 A 
ATOM     15  C   LIG    1       21.293 -20.604   4.201  0.00  0.00    +0.006 A 
ATOM     16  C   LIG    1       19.907 -20.484   4.064  0.00  0.00    +0.000 A 
ATOM     17  C   LIG    1       19.351 -19.297   3.601  0.00  0.00    +0.000 A 
ATOM     18  C   LIG    1       20.180 -18.222   3.287  0.00  0.00    +0.000 A 
ATOM     19  C   LIG    1       21.567 -18.343   3.415  0.00  0.00    +0.006 A 
ENDBRANCH   1  14
BRANCH   1  23
ATOM     20  C   LIG    1       24.235 -21.457   7.062  0.00  0.00    +0.130 A 
ATOM     21  N   LIG    1       25.473 -21.552   6.484  0.00  0.00    -0.244 NA
ATOM     22  C   LIG    1       25.369 -20.922   5.339  0.00  0.00    +0.200 A 
ATOM     23  N   LIG    1       24.111 -20.409   5.151  0.00  0.00    -0.325 N 
ATOM     24  C   LIG    1       23.373 -20.758   6.254  0.00  0.00    +0.108 A 
ENDBRANCH   1  23
TORSDOF 4
ENDMDL
