MODEL 1
REMARK VINA RESULT:      -4.2      0.000      0.000
REMARK  Name = *****
REMARK                            x       y       z     vdW  Elec       q    Type
REMARK                         _______ _______ _______ _____ _____    ______ ____
ROOT
ATOM      1  O   LIG    1       26.062 -13.400   4.143  0.00  0.00    -0.284 OA
ENDROOT
BRANCH   1   3
ATOM      2  O   LIG    1       26.853 -14.372   1.812  0.00  0.00    -0.228 OA
ATOM      3  P   LIG    1       27.222 -13.970   3.203  0.00  0.00    +0.472 P 
BRANCH   3   4
ATOM      4  O   LIG    1       28.421 -12.927   3.308  0.00  0.00    -0.303 OA
ATOM      5  H   LIG    1       28.139 -12.120   3.777  0.00  0.00    +0.222 HD
ENDBRANCH   3   4
BRANCH   3   6
ATOM      6  O   LIG    1       27.808 -15.182   4.057  0.00  0.00    -0.303 OA
ATOM      7  H   LIG    1       27.104 -15.810   4.303  0.00  0.00    +0.222 HD
ENDBRANCH   3   6
ENDBRANCH   1   3
BRANCH   1   8
ATOM      8  C   LIG    1       24.771 -13.994   4.031  0.00  0.00    +0.205 C 
BRANCH   8   9
ATOM      9  C   LIG    1       23.833 -13.058   3.262  0.00  0.00    +0.166 C 
BRANCH   9  10
ATOM     10  O   LIG    1       24.205 -13.015   1.872  0.00  0.00    -0.387 OA
ATOM     11  H   LIG    1       23.642 -12.336   1.453  0.00  0.00    +0.210 HD
ENDBRANCH   9  10
BRANCH   9  12
ATOM     12  C   LIG    1       23.846 -11.623   3.798  0.00  0.00    +0.189 C 
BRANCH  12  13
ATOM     13  O   LIG    1       23.818 -11.644   5.227  0.00  0.00    -0.392 OA
ATOM     14  H   LIG    1       24.674 -12.034   5.498  0.00  0.00    +0.209 HD
ENDBRANCH  12  13
ENDBRANCH   9  12
ENDBRANCH   8   9
ENDBRANCH   1   8
TORSDOF 8
ENDMDL
MODEL 2
REMARK VINA RESULT:      -4.2      0.313      1.508
REMARK  Name = *****
REMARK                            x       y       z     vdW  Elec       q    Type
REMARK                         _______ _______ _______ _____ _____    ______ ____
ROOT
ATOM      1  O   LIG    1       26.144 -13.405   4.152  0.00  0.00    -0.284 OA
ENDROOT
BRANCH   1   3
ATOM      2  O   LIG    1       28.735 -13.267   3.628  0.00  0.00    -0.228 OA
ATOM      3  P   LIG    1       27.446 -14.000   3.442  0.00  0.00    +0.472 P 
BRANCH   3   4
ATOM      4  O   LIG    1       27.487 -15.544   3.830  0.00  0.00    -0.303 OA
ATOM      5  H   LIG    1       27.632 -16.097   3.039  0.00  0.00    +0.222 HD
ENDBRANCH   3   4
BRANCH   3   6
ATOM      6  O   LIG    1       27.008 -14.091   1.912  0.00  0.00    -0.303 OA
ATOM      7  H   LIG    1       26.253 -13.502   1.728  0.00  0.00    +0.222 HD
ENDBRANCH   3   6
ENDBRANCH   1   3
BRANCH   1   8
ATOM      8  C   LIG    1       24.913 -14.095   3.953  0.00  0.00    +0.205 C 
BRANCH   8   9
ATOM      9  C   LIG    1       23.925 -13.191   3.208  0.00  0.00    +0.166 C 
BRANCH   9  10
ATOM     10  O   LIG    1       24.268 -13.125   1.812  0.00  0.00    -0.387 OA
ATOM     11  H   LIG    1       24.550 -14.023   1.550  0.00  0.00    +0.210 HD
ENDBRANCH   9  10
BRANCH   9  12
ATOM     12  C   LIG    1       23.892 -11.760   3.754  0.00  0.00    +0.189 C 
BRANCH  12  13
ATOM     13  O   LIG    1       23.955 -11.790   5.182  0.00  0.00    -0.392 OA
ATOM     14  H   LIG    1       23.653 -12.685   5.437  0.00  0.00    +0.209 HD
ENDBRANCH  12  13
ENDBRANCH   9  12
ENDBRANCH   8   9
ENDBRANCH   1   8
TORSDOF 8
ENDMDL
MODEL 3
REMARK VINA RESULT:      -4.1      1.161      2.030
REMARK  Name = *****
REMARK                            x       y       z     vdW  Elec       q    Type
REMARK                         _______ _______ _______ _____ _____    ______ ____
ROOT
ATOM      1  O   LIG    1       26.446 -12.900   3.984  0.00  0.00    -0.284 OA
ENDROOT
BRANCH   1   3
ATOM      2  O   LIG    1       27.611 -15.275   4.060  0.00  0.00    -0.228 OA
ATOM      3  P   LIG    1       27.407 -13.993   3.322  0.00  0.00    +0.472 P 
BRANCH   3   4
ATOM      4  O   LIG    1       26.914 -14.152   1.816  0.00  0.00    -0.303 OA
ATOM      5  H   LIG    1       25.948 -14.289   1.779  0.00  0.00    +0.222 HD
ENDBRANCH   3   4
BRANCH   3   6
ATOM      6  O   LIG    1       28.765 -13.187   3.105  0.00  0.00    -0.303 OA
ATOM      7  H   LIG    1       28.642 -12.237   3.286  0.00  0.00    +0.222 HD
ENDBRANCH   3   6
ENDBRANCH   1   3
BRANCH   1   8
ATOM      8  C   LIG    1       25.484 -13.357   4.931  0.00  0.00    +0.205 C 
BRANCH   8   9
ATOM      9  C   LIG    1       24.075 -13.233   4.342  0.00  0.00    +0.166 C 
BRANCH   9  10
ATOM     10  O   LIG    1       23.636 -14.505   3.832  0.00  0.00    -0.387 OA
ATOM     11  H   LIG    1       23.617 -15.119   4.591  0.00  0.00    +0.210 HD
ENDBRANCH   9  10
BRANCH   9  12
ATOM     12  C   LIG    1       23.990 -12.213   3.201  0.00  0.00    +0.189 C 
BRANCH  12  13
ATOM     13  O   LIG    1       24.138 -12.882   1.947  0.00  0.00    -0.392 OA
ATOM     14  H   LIG    1       24.619 -12.254   1.372  0.00  0.00    +0.209 HD
ENDBRANCH  12  13
ENDBRANCH   9  12
ENDBRANCH   8   9
ENDBRANCH   1   8
TORSDOF 8
ENDMDL
MODEL 4
REMARK VINA RESULT:      -4.0      2.344      3.935
REMARK  Name = *****
REMARK                            x       y       z     vdW  Elec       q    Type
REMARK                         _______ _______ _______ _____ _____    ______ ____
ROOT
ATOM      1  O   LIG    1       25.605 -14.422   3.268  0.00  0.00    -0.284 OA
ENDROOT
BRANCH   1   3
ATOM      2  O   LIG    1       24.479 -12.535   4.742  0.00  0.00    -0.228 OA
ATOM      3  P   LIG    1       24.303 -13.619   3.730  0.00  0.00    +0.472 P 
BRANCH   3   4
ATOM      4  O   LIG    1       23.565 -13.177   2.390  0.00  0.00    -0.303 OA
ATOM      5  H   LIG    1       23.192 -13.951   1.927  0.00  0.00    +0.222 HD
ENDBRANCH   3   4
BRANCH   3   6
ATOM      6  O   LIG    1       23.331 -14.777   4.235  0.00  0.00    -0.303 OA
ATOM      7  H   LIG    1       23.521 -15.618   3.779  0.00  0.00    +0.222 HD
ENDBRANCH   3   6
ENDBRANCH   1   3
BRANCH   1   8
ATOM      8  C   LIG    1       26.669 -13.672   2.687  0.00  0.00    +0.205 C 
BRANCH   8   9
ATOM      9  C   LIG    1       27.952 -13.877   3.499  0.00  0.00    +0.166 C 
BRANCH   9  10
ATOM     10  O   LIG    1       27.975 -15.199   4.067  0.00  0.00    -0.387 OA
ATOM     11  H   LIG    1       27.045 -15.454   4.221  0.00  0.00    +0.210 HD
ENDBRANCH   9  10
BRANCH   9  12
ATOM     12  C   LIG    1       28.105 -12.870   4.645  0.00  0.00    +0.189 C 
BRANCH  12  13
ATOM     13  O   LIG    1       27.203 -13.206   5.701  0.00  0.00    -0.392 OA
ATOM     14  H   LIG    1       26.497 -13.738   5.282  0.00  0.00    +0.209 HD
ENDBRANCH  12  13
ENDBRANCH   9  12
ENDBRANCH   8   9
ENDBRANCH   1   8
TORSDOF 8
ENDMDL
MODEL 5
REMARK VINA RESULT:      -3.9      1.376      2.092
REMARK  Name = *****
REMARK                            x       y       z     vdW  Elec       q    Type
REMARK                         _______ _______ _______ _____ _____    ______ ____
ROOT
ATOM      1  O   LIG    1       26.292 -14.166   2.822  0.00  0.00    -0.284 OA
ENDROOT
BRANCH   1   3
ATOM      2  O   LIG    1       26.973 -13.579   5.311  0.00  0.00    -0.228 OA
ATOM      3  P   LIG    1       27.382 -14.146   3.990  0.00  0.00    +0.472 P 
BRANCH   3   4
ATOM      4  O   LIG    1       27.988 -15.618   4.047  0.00  0.00    -0.303 OA
ATOM      5  H   LIG    1       28.919 -15.599   4.336  0.00  0.00    +0.222 HD
ENDBRANCH   3   4
BRANCH   3   6
ATOM      6  O   LIG    1       28.596 -13.351   3.331  0.00  0.00    -0.303 OA
ATOM      7  H   LIG    1       28.485 -12.388   3.439  0.00  0.00    +0.222 HD
ENDBRANCH   3   6
ENDBRANCH   1   3
BRANCH   1   8
ATOM      8  C   LIG    1       25.874 -12.911   2.290  0.00  0.00    +0.205 C 
BRANCH   8   9
ATOM      9  C   LIG    1       24.364 -12.739   2.491  0.00  0.00    +0.166 C 
BRANCH   9  10
ATOM     10  O   LIG    1       23.905 -11.556   1.812  0.00  0.00    -0.387 OA
ATOM     11  H   LIG    1       24.250 -10.793   2.315  0.00  0.00    +0.210 HD
ENDBRANCH   9  10
BRANCH   9  12
ATOM     12  C   LIG    1       23.965 -12.621   3.966  0.00  0.00    +0.189 C 
BRANCH  12  13
ATOM     13  O   LIG    1       23.885 -13.925   4.546  0.00  0.00    -0.392 OA
ATOM     14  H   LIG    1       24.812 -14.216   4.661  0.00  0.00    +0.209 HD
ENDBRANCH  12  13
ENDBRANCH   9  12
ENDBRANCH   8   9
ENDBRANCH   1   8
TORSDOF 8
ENDMDL
MODEL 6
REMARK VINA RESULT:      -3.8      1.370      1.896
REMARK  Name = *****
REMARK                            x       y       z     vdW  Elec       q    Type
REMARK                         _______ _______ _______ _____ _____    ______ ____
ROOT
ATOM      1  O   LIG    1       26.487 -13.974   2.785  0.00  0.00    -0.284 OA
ENDROOT
BRANCH   1   3
ATOM      2  O   LIG    1       28.863 -13.202   3.656  0.00  0.00    -0.228 OA
ATOM      3  P   LIG    1       27.626 -14.000   3.906  0.00  0.00    +0.472 P 
BRANCH   3   4
ATOM      4  O   LIG    1       26.888 -13.688   5.283  0.00  0.00    -0.303 OA
ATOM      5  H   LIG    1       26.745 -14.507   5.794  0.00  0.00    +0.222 HD
ENDBRANCH   3   4
BRANCH   3   6
ATOM      6  O   LIG    1       27.923 -15.557   4.076  0.00  0.00    -0.303 OA
ATOM      7  H   LIG    1       28.873 -15.718   4.226  0.00  0.00    +0.222 HD
ENDBRANCH   3   6
ENDBRANCH   1   3
BRANCH   1   8
ATOM      8  C   LIG    1       25.990 -12.701   2.380  0.00  0.00    +0.205 C 
BRANCH   8   9
ATOM      9  C   LIG    1       24.460 -12.693   2.454  0.00  0.00    +0.166 C 
BRANCH   9  10
ATOM     10  O   LIG    1       23.938 -11.515   1.813  0.00  0.00    -0.387 OA
ATOM     11  H   LIG    1       23.211 -11.811   1.232  0.00  0.00    +0.210 HD
ENDBRANCH   9  10
BRANCH   9  12
ATOM     12  C   LIG    1       23.928 -12.723   3.891  0.00  0.00    +0.189 C 
BRANCH  12  13
ATOM     13  O   LIG    1       24.017 -14.053   4.407  0.00  0.00    -0.392 OA
ATOM     14  H   LIG    1       23.286 -14.547   3.984  0.00  0.00    +0.209 HD
ENDBRANCH  12  13
ENDBRANCH   9  12
ENDBRANCH   8   9
ENDBRANCH   1   8
TORSDOF 8
ENDMDL
MODEL 7
REMARK VINA RESULT:      -3.8      7.466      8.706
REMARK  Name = *****
REMARK                            x       y       z     vdW  Elec       q    Type
REMARK                         _______ _______ _______ _____ _____    ______ ____
ROOT
ATOM      1  O   LIG    1       24.149 -20.560   6.301  0.00  0.00    -0.284 OA
ENDROOT
BRANCH   1   3
ATOM      2  O   LIG    1       24.017 -20.346   3.666  0.00  0.00    -0.228 OA
ATOM      3  P   LIG    1       23.283 -20.408   4.966  0.00  0.00    +0.472 P 
BRANCH   3   4
ATOM      4  O   LIG    1       22.153 -21.528   5.049  0.00  0.00    -0.303 OA
ATOM      5  H   LIG    1       21.603 -21.527   4.244  0.00  0.00    +0.222 HD
ENDBRANCH   3   4
BRANCH   3   6
ATOM      6  O   LIG    1       22.421 -19.097   5.248  0.00  0.00    -0.303 OA
ATOM      7  H   LIG    1       22.231 -18.618   4.420  0.00  0.00    +0.222 HD
ENDBRANCH   3   6
ENDBRANCH   1   3
BRANCH   1   8
ATOM      8  C   LIG    1       25.319 -21.372   6.238  0.00  0.00    +0.205 C 
BRANCH   8   9
ATOM      9  C   LIG    1       26.567 -20.483   6.232  0.00  0.00    +0.166 C 
BRANCH   9  10
ATOM     10  O   LIG    1       26.979 -20.215   4.879  0.00  0.00    -0.387 OA
ATOM     11  H   LIG    1       26.391 -20.735   4.299  0.00  0.00    +0.210 HD
ENDBRANCH   9  10
BRANCH   9  12
ATOM     12  C   LIG    1       27.755 -21.112   6.970  0.00  0.00    +0.189 C 
BRANCH  12  13
ATOM     13  O   LIG    1       28.938 -20.973   6.180  0.00  0.00    -0.392 OA
ATOM     14  H   LIG    1       28.657 -21.142   5.258  0.00  0.00    +0.209 HD
ENDBRANCH  12  13
ENDBRANCH   9  12
ENDBRANCH   8   9
ENDBRANCH   1   8
TORSDOF 8
ENDMDL
MODEL 8
REMARK VINA RESULT:      -3.8      1.372      2.003
REMARK  Name = *****
REMARK                            x       y       z     vdW  Elec       q    Type
REMARK                         _______ _______ _______ _____ _____    ______ ____
ROOT
ATOM      1  O   LIG    1       26.651 -13.214   3.059  0.00  0.00    -0.284 OA
ENDROOT
BRANCH   1   3
ATOM      2  O   LIG    1       29.221 -12.975   3.643  0.00  0.00    -0.228 OA
ATOM      3  P   LIG    1       27.887 -13.530   4.022  0.00  0.00    +0.472 P 
BRANCH   3   4
ATOM      4  O   LIG    1       27.398 -13.165   5.493  0.00  0.00    -0.303 OA
ATOM      5  H   LIG    1       28.097 -13.350   6.147  0.00  0.00    +0.222 HD
ENDBRANCH   3   4
BRANCH   3   6
ATOM      6  O   LIG    1       27.883 -15.123   4.095  0.00  0.00    -0.303 OA
ATOM      7  H   LIG    1       26.973 -15.472   4.085  0.00  0.00    +0.222 HD
ENDBRANCH   3   6
ENDBRANCH   1   3
BRANCH   1   8
ATOM      8  C   LIG    1       25.570 -14.144   3.049  0.00  0.00    +0.205 C 
BRANCH   8   9
ATOM      9  C   LIG    1       24.498 -13.704   4.051  0.00  0.00    +0.166 C 
BRANCH   9  10
ATOM     10  O   LIG    1       23.418 -14.655   4.073  0.00  0.00    -0.387 OA
ATOM     11  H   LIG    1       23.671 -15.379   3.468  0.00  0.00    +0.210 HD
ENDBRANCH   9  10
BRANCH   9  12
ATOM     12  C   LIG    1       23.906 -12.327   3.730  0.00  0.00    +0.189 C 
BRANCH  12  13
ATOM     13  O   LIG    1       23.913 -12.119   2.316  0.00  0.00    -0.392 OA
ATOM     14  H   LIG    1       24.199 -12.971   1.929  0.00  0.00    +0.209 HD
ENDBRANCH  12  13
ENDBRANCH   9  12
ENDBRANCH   8   9
ENDBRANCH   1   8
TORSDOF 8
ENDMDL
MODEL 9
REMARK VINA RESULT:      -3.7      2.086      4.129
REMARK  Name = *****
REMARK                            x       y       z     vdW  Elec       q    Type
REMARK                         _______ _______ _______ _____ _____    ______ ____
ROOT
ATOM      1  O   LIG    1       25.801 -12.662   4.091  0.00  0.00    -0.284 OA
ENDROOT
BRANCH   1   3
ATOM      2  O   LIG    1       23.698 -14.194   4.575  0.00  0.00    -0.228 OA
ATOM      3  P   LIG    1       24.229 -12.927   3.987  0.00  0.00    +0.472 P 
BRANCH   3   4
ATOM      4  O   LIG    1       23.527 -11.596   4.510  0.00  0.00    -0.303 OA
ATOM      5  H   LIG    1       22.729 -11.396   3.986  0.00  0.00    +0.222 HD
ENDBRANCH   3   4
BRANCH   3   6
ATOM      6  O   LIG    1       23.951 -12.813   2.422  0.00  0.00    -0.303 OA
ATOM      7  H   LIG    1       24.682 -13.200   1.907  0.00  0.00    +0.222 HD
ENDBRANCH   3   6
ENDBRANCH   1   3
BRANCH   1   8
ATOM      8  C   LIG    1       26.555 -13.503   4.962  0.00  0.00    +0.205 C 
BRANCH   8   9
ATOM      9  C   LIG    1       27.571 -14.313   4.150  0.00  0.00    +0.166 C 
BRANCH   9  10
ATOM     10  O   LIG    1       28.486 -13.429   3.477  0.00  0.00    -0.387 OA
ATOM     11  H   LIG    1       28.449 -13.658   2.528  0.00  0.00    +0.210 HD
ENDBRANCH   9  10
BRANCH   9  12
ATOM     12  C   LIG    1       26.918 -15.210   3.093  0.00  0.00    +0.189 C 
BRANCH  12  13
ATOM     13  O   LIG    1       26.643 -14.444   1.918  0.00  0.00    -0.392 OA
ATOM     14  H   LIG    1       26.341 -15.091   1.250  0.00  0.00    +0.209 HD
ENDBRANCH  12  13
ENDBRANCH   9  12
ENDBRANCH   8   9
ENDBRANCH   1   8
TORSDOF 8
ENDMDL
