MODEL 1
REMARK VINA RESULT:      -7.7      0.000      0.000
REMARK  Name = *****
REMARK                            x       y       z     vdW  Elec       q    Type
REMARK                         _______ _______ _______ _____ _____    ______ ____
ROOT
ATOM      1  C   LIG    1       26.054 -19.063   3.903  0.00  0.00    +0.000 C 
ENDROOT
BRANCH   1   2
ATOM      2  C   LIG    1       26.659 -20.019   4.985  0.00  0.00    -0.000 C 
BRANCH   2   3
ATOM      3  C   LIG    1       28.038 -19.590   5.583  0.00  0.00    +0.000 C 
BRANCH   3   4
ATOM      4  C   LIG    1       28.331 -19.751   7.105  0.00  0.00    +0.000 C 
BRANCH   4   5
ATOM      5  C   LIG    1       29.742 -20.358   7.359  0.00  0.00    +0.011 C 
BRANCH   5   6
ATOM      6  C   LIG    1       30.940 -19.455   7.053  0.00  0.00    +0.120 C 
BRANCH   6   7
ATOM      7  C   LIG    1       31.703 -19.045   8.310  0.00  0.00    +0.307 C 
ATOM      8  O   LIG    1       32.046 -19.767   9.160  0.00  0.00    -0.251 OA
BRANCH   7   9
ATOM      9  O   LIG    1       32.012 -17.698   8.179  0.00  0.00    -0.465 OA
BRANCH   9  11
ATOM     10  C   LIG    1       30.341 -16.987   9.838  0.00  0.00    +0.048 C 
ATOM     11  C   LIG    1       31.774 -16.913   9.352  0.00  0.00    +0.228 C 
ENDBRANCH   9  11
ENDBRANCH   7   9
ENDBRANCH   6   7
ENDBRANCH   5   6
ENDBRANCH   4   5
ENDBRANCH   3   4
ENDBRANCH   2   3
ENDBRANCH   1   2
BRANCH   1  12
ATOM     12  C   LIG    1       24.526 -19.171   3.737  0.00  0.00    +0.001 C 
BRANCH  12  13
ATOM     13  C   LIG    1       23.956 -20.627   3.872  0.00  0.00    +0.008 C 
BRANCH  13  14
ATOM     14  C   LIG    1       23.289 -20.933   5.243  0.00  0.00    +0.017 C 
ATOM     15  C   LIG    1       21.831 -21.402   4.953  0.00  0.00    +0.012 C 
BRANCH  14  16
ATOM     16  C   LIG    1       24.036 -21.809   6.342  0.00  0.00    -0.031 A 
ATOM     17  C   LIG    1       24.972 -22.871   6.131  0.00  0.00    +0.017 A 
ATOM     18  I   LIG    1       24.222 -25.130   6.197  0.00  0.00    -0.043 I 
ATOM     19  C   LIG    1       26.111 -23.049   6.972  0.00  0.00    +0.014 A 
ATOM     20  C   LIG    1       26.177 -22.395   8.191  0.00  0.00    +0.001 A 
ATOM     21  C   LIG    1       25.252 -21.406   8.476  0.00  0.00    +0.000 A 
ATOM     22  C   LIG    1       24.254 -21.083   7.546  0.00  0.00    +0.005 A 
ENDBRANCH  14  16
ENDBRANCH  13  14
ENDBRANCH  12  13
ENDBRANCH   1  12
TORSDOF 12
ENDMDL
MODEL 2
REMARK VINA RESULT:      -7.4      1.880      3.509
REMARK  Name = *****
REMARK                            x       y       z     vdW  Elec       q    Type
REMARK                         _______ _______ _______ _____ _____    ______ ____
ROOT
ATOM      1  C   LIG    1       25.901 -21.267   8.735  0.00  0.00    +0.000 C 
ENDROOT
BRANCH   1   2
ATOM      2  C   LIG    1       26.804 -20.346   7.848  0.00  0.00    -0.000 C 
BRANCH   2   3
ATOM      3  C   LIG    1       28.322 -20.715   7.802  0.00  0.00    +0.000 C 
BRANCH   3   4
ATOM      4  C   LIG    1       29.150 -20.524   6.496  0.00  0.00    +0.000 C 
BRANCH   4   5
ATOM      5  C   LIG    1       30.280 -19.469   6.679  0.00  0.00    +0.011 C 
BRANCH   5   6
ATOM      6  C   LIG    1       30.229 -18.626   7.955  0.00  0.00    +0.120 C 
BRANCH   6   7
ATOM      7  C   LIG    1       31.571 -18.582   8.683  0.00  0.00    +0.307 C 
ATOM      8  O   LIG    1       32.109 -19.497   9.166  0.00  0.00    -0.251 OA
BRANCH   7   9
ATOM      9  O   LIG    1       32.068 -17.292   8.544  0.00  0.00    -0.465 OA
BRANCH   9  11
ATOM     10  C   LIG    1       31.255 -16.495  10.724  0.00  0.00    +0.048 C 
ATOM     11  C   LIG    1       32.424 -16.653   9.773  0.00  0.00    +0.228 C 
ENDBRANCH   9  11
ENDBRANCH   7   9
ENDBRANCH   6   7
ENDBRANCH   5   6
ENDBRANCH   4   5
ENDBRANCH   3   4
ENDBRANCH   2   3
ENDBRANCH   1   2
BRANCH   1  12
ATOM     12  C   LIG    1       25.725 -22.700   8.197  0.00  0.00    +0.001 C 
BRANCH  12  13
ATOM     13  C   LIG    1       25.786 -22.823   6.634  0.00  0.00    +0.008 C 
BRANCH  13  14
ATOM     14  C   LIG    1       24.467 -22.438   5.905  0.00  0.00    +0.017 C 
ATOM     15  C   LIG    1       23.291 -23.052   6.725  0.00  0.00    +0.012 C 
BRANCH  14  16
ATOM     16  C   LIG    1       24.201 -20.945   5.423  0.00  0.00    -0.031 A 
ATOM     17  C   LIG    1       24.571 -20.346   4.177  0.00  0.00    +0.017 A 
ATOM     18  I   LIG    1       26.555 -19.036   4.046  0.00  0.00    -0.043 I 
ATOM     19  C   LIG    1       23.718 -19.423   3.502  0.00  0.00    +0.014 A 
ATOM     20  C   LIG    1       22.653 -18.848   4.175  0.00  0.00    +0.001 A 
ATOM     21  C   LIG    1       22.295 -19.344   5.417  0.00  0.00    +0.000 A 
ATOM     22  C   LIG    1       23.012 -20.405   5.987  0.00  0.00    +0.005 A 
ENDBRANCH  14  16
ENDBRANCH  13  14
ENDBRANCH  12  13
ENDBRANCH   1  12
TORSDOF 12
ENDMDL
MODEL 3
REMARK VINA RESULT:      -7.4      1.084      1.789
REMARK  Name = *****
REMARK                            x       y       z     vdW  Elec       q    Type
REMARK                         _______ _______ _______ _____ _____    ______ ____
ROOT
ATOM      1  C   LIG    1       25.357 -19.046   3.850  0.00  0.00    +0.000 C 
ENDROOT
BRANCH   1   2
ATOM      2  C   LIG    1       26.376 -19.867   4.709  0.00  0.00    -0.000 C 
BRANCH   2   3
ATOM      3  C   LIG    1       27.713 -19.139   5.066  0.00  0.00    +0.000 C 
BRANCH   3   4
ATOM      4  C   LIG    1       28.685 -19.734   6.128  0.00  0.00    +0.000 C 
BRANCH   4   5
ATOM      5  C   LIG    1       29.703 -18.672   6.637  0.00  0.00    +0.011 C 
BRANCH   5   6
ATOM      6  C   LIG    1       30.043 -18.710   8.129  0.00  0.00    +0.120 C 
BRANCH   6   7
ATOM      7  C   LIG    1       31.542 -18.589   8.393  0.00  0.00    +0.307 C 
ATOM      8  O   LIG    1       32.189 -17.639   8.198  0.00  0.00    -0.251 OA
BRANCH   7   9
ATOM      9  O   LIG    1       31.941 -19.763   9.018  0.00  0.00    -0.465 OA
BRANCH   9  11
ATOM     10  C   LIG    1       31.483 -22.180   8.975  0.00  0.00    +0.048 C 
ATOM     11  C   LIG    1       30.930 -20.773   9.094  0.00  0.00    +0.228 C 
ENDBRANCH   9  11
ENDBRANCH   7   9
ENDBRANCH   6   7
ENDBRANCH   5   6
ENDBRANCH   4   5
ENDBRANCH   3   4
ENDBRANCH   2   3
ENDBRANCH   1   2
BRANCH   1  12
ATOM     12  C   LIG    1       23.944 -19.655   3.780  0.00  0.00    +0.001 C 
BRANCH  12  13
ATOM     13  C   LIG    1       23.057 -19.393   5.047  0.00  0.00    +0.008 C 
BRANCH  13  14
ATOM     14  C   LIG    1       22.660 -20.676   5.832  0.00  0.00    +0.017 C 
ATOM     15  C   LIG    1       21.783 -21.546   4.881  0.00  0.00    +0.012 C 
BRANCH  14  16
ATOM     16  C   LIG    1       23.744 -21.510   6.645  0.00  0.00    -0.031 A 
ATOM     17  C   LIG    1       24.642 -22.506   6.145  0.00  0.00    +0.017 A 
ATOM     18  I   LIG    1       24.081 -24.810   6.361  0.00  0.00    -0.043 I 
ATOM     19  C   LIG    1       25.983 -22.616   6.617  0.00  0.00    +0.014 A 
ATOM     20  C   LIG    1       26.360 -21.970   7.782  0.00  0.00    +0.001 A 
ATOM     21  C   LIG    1       25.499 -21.047   8.349  0.00  0.00    +0.000 A 
ATOM     22  C   LIG    1       24.256 -20.782   7.754  0.00  0.00    +0.005 A 
ENDBRANCH  14  16
ENDBRANCH  13  14
ENDBRANCH  12  13
ENDBRANCH   1  12
TORSDOF 12
ENDMDL
MODEL 4
REMARK VINA RESULT:      -7.3      3.805      6.960
REMARK  Name = *****
REMARK                            x       y       z     vdW  Elec       q    Type
REMARK                         _______ _______ _______ _____ _____    ______ ____
ROOT
ATOM      1  C   LIG    1       22.538 -19.958   5.383  0.00  0.00    +0.000 C 
ENDROOT
BRANCH   1   2
ATOM      2  C   LIG    1       23.086 -20.992   6.422  0.00  0.00    -0.000 C 
BRANCH   2   3
ATOM      3  C   LIG    1       22.530 -22.448   6.297  0.00  0.00    +0.000 C 
BRANCH   3   4
ATOM      4  C   LIG    1       23.337 -23.659   6.854  0.00  0.00    +0.000 C 
BRANCH   4   5
ATOM      5  C   LIG    1       24.562 -23.999   5.955  0.00  0.00    +0.011 C 
BRANCH   5   6
ATOM      6  C   LIG    1       25.686 -24.806   6.608  0.00  0.00    +0.120 C 
BRANCH   6   7
ATOM      7  C   LIG    1       26.093 -26.022   5.779  0.00  0.00    +0.307 C 
ATOM      8  O   LIG    1       27.183 -26.418   5.648  0.00  0.00    -0.251 OA
BRANCH   7   9
ATOM      9  O   LIG    1       24.922 -26.622   5.333  0.00  0.00    -0.465 OA
BRANCH   9  11
ATOM     10  C   LIG    1       24.142 -28.767   6.250  0.00  0.00    +0.048 C 
ATOM     11  C   LIG    1       24.987 -28.047   5.219  0.00  0.00    +0.228 C 
ENDBRANCH   9  11
ENDBRANCH   7   9
ENDBRANCH   6   7
ENDBRANCH   5   6
ENDBRANCH   4   5
ENDBRANCH   3   4
ENDBRANCH   2   3
ENDBRANCH   1   2
BRANCH   1  12
ATOM     12  C   LIG    1       23.523 -19.604   4.252  0.00  0.00    +0.001 C 
BRANCH  12  13
ATOM     13  C   LIG    1       24.777 -20.541   4.161  0.00  0.00    +0.008 C 
BRANCH  13  14
ATOM     14  C   LIG    1       26.141 -19.794   4.143  0.00  0.00    +0.017 C 
ATOM     15  C   LIG    1       25.886 -18.385   3.524  0.00  0.00    +0.012 C 
BRANCH  14  16
ATOM     16  C   LIG    1       27.082 -19.769   5.426  0.00  0.00    -0.031 A 
ATOM     17  C   LIG    1       27.313 -20.824   6.365  0.00  0.00    +0.017 A 
ATOM     18  I   LIG    1       26.102 -20.860   8.415  0.00  0.00    -0.043 I 
ATOM     19  C   LIG    1       28.602 -21.060   6.929  0.00  0.00    +0.014 A 
ATOM     20  C   LIG    1       29.589 -20.094   6.824  0.00  0.00    +0.001 A 
ATOM     21  C   LIG    1       29.388 -19.015   5.982  0.00  0.00    +0.000 A 
ATOM     22  C   LIG    1       28.193 -18.898   5.257  0.00  0.00    +0.005 A 
ENDBRANCH  14  16
ENDBRANCH  13  14
ENDBRANCH  12  13
ENDBRANCH   1  12
TORSDOF 12
ENDMDL
MODEL 5
REMARK VINA RESULT:      -6.9      3.828      5.048
REMARK  Name = *****
REMARK                            x       y       z     vdW  Elec       q    Type
REMARK                         _______ _______ _______ _____ _____    ______ ____
ROOT
ATOM      1  C   LIG    1       26.162 -22.521   6.937  0.00  0.00    +0.000 C 
ENDROOT
BRANCH   1   2
ATOM      2  C   LIG    1       25.969 -21.404   8.016  0.00  0.00    -0.000 C 
BRANCH   2   3
ATOM      3  C   LIG    1       27.150 -20.391   8.172  0.00  0.00    +0.000 C 
BRANCH   3   4
ATOM      4  C   LIG    1       28.076 -20.055   6.964  0.00  0.00    +0.000 C 
BRANCH   4   5
ATOM      5  C   LIG    1       29.402 -20.869   7.011  0.00  0.00    +0.011 C 
BRANCH   5   6
ATOM      6  C   LIG    1       29.811 -21.434   8.374  0.00  0.00    +0.120 C 
BRANCH   6   7
ATOM      7  C   LIG    1       31.227 -21.028   8.776  0.00  0.00    +0.307 C 
ATOM      8  O   LIG    1       31.975 -21.689   9.379  0.00  0.00    -0.251 OA
BRANCH   7   9
ATOM      9  O   LIG    1       31.483 -19.798   8.183  0.00  0.00    -0.465 OA
BRANCH   9  11
ATOM     10  C   LIG    1       30.365 -17.742   8.940  0.00  0.00    +0.048 C 
ATOM     11  C   LIG    1       31.534 -18.695   9.092  0.00  0.00    +0.228 C 
ENDBRANCH   9  11
ENDBRANCH   7   9
ENDBRANCH   6   7
ENDBRANCH   5   6
ENDBRANCH   4   5
ENDBRANCH   3   4
ENDBRANCH   2   3
ENDBRANCH   1   2
BRANCH   1  12
ATOM     12  C   LIG    1       25.200 -23.716   7.075  0.00  0.00    +0.001 C 
BRANCH  12  13
ATOM     13  C   LIG    1       25.888 -25.123   6.984  0.00  0.00    +0.008 C 
BRANCH  13  14
ATOM     14  C   LIG    1       25.037 -26.211   6.269  0.00  0.00    +0.017 C 
ATOM     15  C   LIG    1       24.991 -25.841   4.756  0.00  0.00    +0.012 C 
BRANCH  14  16
ATOM     16  C   LIG    1       25.287 -27.759   6.542  0.00  0.00    -0.031 A 
ATOM     17  C   LIG    1       24.858 -28.533   7.667  0.00  0.00    +0.017 A 
ATOM     18  I   LIG    1       26.368 -28.935   9.463  0.00  0.00    -0.043 I 
ATOM     19  C   LIG    1       24.404 -29.878   7.527  0.00  0.00    +0.014 A 
ATOM     20  C   LIG    1       24.655 -30.572   6.355  0.00  0.00    +0.001 A 
ATOM     21  C   LIG    1       25.137 -29.885   5.256  0.00  0.00    +0.000 A 
ATOM     22  C   LIG    1       25.381 -28.506   5.336  0.00  0.00    +0.005 A 
ENDBRANCH  14  16
ENDBRANCH  13  14
ENDBRANCH  12  13
ENDBRANCH   1  12
TORSDOF 12
ENDMDL
MODEL 6
REMARK VINA RESULT:      -6.9      2.893      4.060
REMARK  Name = *****
REMARK                            x       y       z     vdW  Elec       q    Type
REMARK                         _______ _______ _______ _____ _____    ______ ____
ROOT
ATOM      1  C   LIG    1       26.694 -21.207   7.789  0.00  0.00    +0.000 C 
ENDROOT
BRANCH   1   2
ATOM      2  C   LIG    1       26.543 -20.482   6.410  0.00  0.00    -0.000 C 
BRANCH   2   3
ATOM      3  C   LIG    1       27.866 -19.951   5.768  0.00  0.00    +0.000 C 
BRANCH   3   4
ATOM      4  C   LIG    1       29.244 -20.222   6.443  0.00  0.00    +0.000 C 
BRANCH   4   5
ATOM      5  C   LIG    1       29.965 -18.899   6.834  0.00  0.00    +0.011 C 
BRANCH   5   6
ATOM      6  C   LIG    1       30.083 -18.601   8.330  0.00  0.00    +0.120 C 
BRANCH   6   7
ATOM      7  C   LIG    1       31.531 -18.599   8.815  0.00  0.00    +0.307 C 
ATOM      8  O   LIG    1       32.097 -19.515   9.262  0.00  0.00    -0.251 OA
BRANCH   7   9
ATOM      9  O   LIG    1       32.063 -17.354   8.504  0.00  0.00    -0.465 OA
BRANCH   9  11
ATOM     10  C   LIG    1       31.431 -16.444  10.700  0.00  0.00    +0.048 C 
ATOM     11  C   LIG    1       32.497 -16.590   9.634  0.00  0.00    +0.228 C 
ENDBRANCH   9  11
ENDBRANCH   7   9
ENDBRANCH   6   7
ENDBRANCH   5   6
ENDBRANCH   4   5
ENDBRANCH   3   4
ENDBRANCH   2   3
ENDBRANCH   1   2
BRANCH   1  12
ATOM     12  C   LIG    1       25.784 -22.438   7.966  0.00  0.00    +0.001 C 
BRANCH  12  13
ATOM     13  C   LIG    1       26.037 -23.592   6.934  0.00  0.00    +0.008 C 
BRANCH  13  14
ATOM     14  C   LIG    1       25.089 -24.815   7.090  0.00  0.00    +0.017 C 
ATOM     15  C   LIG    1       23.700 -24.398   6.518  0.00  0.00    +0.012 C 
BRANCH  14  16
ATOM     16  C   LIG    1       25.551 -26.273   6.650  0.00  0.00    -0.031 A 
ATOM     17  C   LIG    1       25.051 -27.530   7.117  0.00  0.00    +0.017 A 
ATOM     18  I   LIG    1       26.222 -28.698   8.830  0.00  0.00    -0.043 I 
ATOM     19  C   LIG    1       24.880 -28.644   6.243  0.00  0.00    +0.014 A 
ATOM     20  C   LIG    1       25.478 -28.639   4.994  0.00  0.00    +0.001 A 
ATOM     21  C   LIG    1       26.040 -27.466   4.521  0.00  0.00    +0.000 A 
ATOM     22  C   LIG    1       26.014 -26.304   5.306  0.00  0.00    +0.005 A 
ENDBRANCH  14  16
ENDBRANCH  13  14
ENDBRANCH  12  13
ENDBRANCH   1  12
TORSDOF 12
ENDMDL
MODEL 7
REMARK VINA RESULT:      -6.9      5.378      8.709
REMARK  Name = *****
REMARK                            x       y       z     vdW  Elec       q    Type
REMARK                         _______ _______ _______ _____ _____    ______ ____
ROOT
ATOM      1  C   LIG    1       25.966 -24.529   6.846  0.00  0.00    +0.000 C 
ENDROOT
BRANCH   1   2
ATOM      2  C   LIG    1       25.256 -24.500   5.451  0.00  0.00    -0.000 C 
BRANCH   2   3
ATOM      3  C   LIG    1       25.094 -25.881   4.736  0.00  0.00    +0.000 C 
BRANCH   3   4
ATOM      4  C   LIG    1       26.146 -27.013   4.942  0.00  0.00    +0.000 C 
BRANCH   4   5
ATOM      5  C   LIG    1       25.468 -28.384   5.232  0.00  0.00    +0.011 C 
BRANCH   5   6
ATOM      6  C   LIG    1       24.339 -28.383   6.266  0.00  0.00    +0.120 C 
BRANCH   6   7
ATOM      7  C   LIG    1       24.676 -29.214   7.503  0.00  0.00    +0.307 C 
ATOM      8  O   LIG    1       25.556 -29.005   8.239  0.00  0.00    -0.251 OA
BRANCH   7   9
ATOM      9  O   LIG    1       23.672 -30.163   7.641  0.00  0.00    -0.465 OA
BRANCH   9  11
ATOM     10  C   LIG    1       23.711 -32.081   6.102  0.00  0.00    +0.048 C 
ATOM     11  C   LIG    1       24.099 -31.516   7.453  0.00  0.00    +0.228 C 
ENDBRANCH   9  11
ENDBRANCH   7   9
ENDBRANCH   6   7
ENDBRANCH   5   6
ENDBRANCH   4   5
ENDBRANCH   3   4
ENDBRANCH   2   3
ENDBRANCH   1   2
BRANCH   1  12
ATOM     12  C   LIG    1       25.916 -23.196   7.617  0.00  0.00    +0.001 C 
BRANCH  12  13
ATOM     13  C   LIG    1       27.019 -22.161   7.202  0.00  0.00    +0.008 C 
BRANCH  13  14
ATOM     14  C   LIG    1       26.466 -20.813   6.657  0.00  0.00    +0.017 C 
ATOM     15  C   LIG    1       27.655 -20.068   5.977  0.00  0.00    +0.012 C 
BRANCH  14  16
ATOM     16  C   LIG    1       25.113 -20.759   5.820  0.00  0.00    -0.031 A 
ATOM     17  C   LIG    1       23.776 -20.650   6.318  0.00  0.00    +0.017 A 
ATOM     18  I   LIG    1       22.447 -22.610   6.560  0.00  0.00    -0.043 I 
ATOM     19  C   LIG    1       22.789 -19.859   5.658  0.00  0.00    +0.014 A 
ATOM     20  C   LIG    1       23.005 -19.428   4.360  0.00  0.00    +0.001 A 
ATOM     21  C   LIG    1       24.264 -19.574   3.803  0.00  0.00    +0.000 A 
ATOM     22  C   LIG    1       25.299 -20.164   4.542  0.00  0.00    +0.005 A 
ENDBRANCH  14  16
ENDBRANCH  13  14
ENDBRANCH  12  13
ENDBRANCH   1  12
TORSDOF 12
ENDMDL
MODEL 8
REMARK VINA RESULT:      -6.9      5.137      7.067
REMARK  Name = *****
REMARK                            x       y       z     vdW  Elec       q    Type
REMARK                         _______ _______ _______ _____ _____    ______ ____
ROOT
ATOM      1  C   LIG    1       25.139 -24.324   6.603  0.00  0.00    +0.000 C 
ENDROOT
BRANCH   1   2
ATOM      2  C   LIG    1       23.582 -24.476   6.540  0.00  0.00    -0.000 C 
BRANCH   2   3
ATOM      3  C   LIG    1       22.755 -23.197   6.892  0.00  0.00    +0.000 C 
BRANCH   3   4
ATOM      4  C   LIG    1       23.078 -21.829   6.218  0.00  0.00    +0.000 C 
BRANCH   4   5
ATOM      5  C   LIG    1       23.739 -20.836   7.217  0.00  0.00    +0.011 C 
BRANCH   5   6
ATOM      6  C   LIG    1       25.252 -20.642   7.088  0.00  0.00    +0.120 C 
BRANCH   6   7
ATOM      7  C   LIG    1       25.995 -20.949   8.387  0.00  0.00    +0.307 C 
ATOM      8  O   LIG    1       25.647 -21.704   9.204  0.00  0.00    -0.251 OA
BRANCH   7   9
ATOM      9  O   LIG    1       27.202 -20.262   8.337  0.00  0.00    -0.465 OA
BRANCH   9  11
ATOM     10  C   LIG    1       28.893 -20.722   6.611  0.00  0.00    +0.048 C 
ATOM     11  C   LIG    1       28.331 -21.063   7.977  0.00  0.00    +0.228 C 
ENDBRANCH   9  11
ENDBRANCH   7   9
ENDBRANCH   6   7
ENDBRANCH   5   6
ENDBRANCH   4   5
ENDBRANCH   3   4
ENDBRANCH   2   3
ENDBRANCH   1   2
BRANCH   1  12
ATOM     12  C   LIG    1       25.922 -25.527   6.041  0.00  0.00    +0.001 C 
BRANCH  12  13
ATOM     13  C   LIG    1       25.932 -26.791   6.969  0.00  0.00    +0.008 C 
BRANCH  13  14
ATOM     14  C   LIG    1       24.883 -27.876   6.591  0.00  0.00    +0.017 C 
ATOM     15  C   LIG    1       24.766 -27.882   5.036  0.00  0.00    +0.012 C 
BRANCH  14  16
ATOM     16  C   LIG    1       24.938 -29.331   7.234  0.00  0.00    -0.031 A 
ATOM     17  C   LIG    1       24.756 -29.690   8.607  0.00  0.00    +0.017 A 
ATOM     18  I   LIG    1       26.660 -30.029   9.997  0.00  0.00    -0.043 I 
ATOM     19  C   LIG    1       24.058 -30.875   8.989  0.00  0.00    +0.014 A 
ATOM     20  C   LIG    1       23.808 -31.861   8.050  0.00  0.00    +0.001 A 
ATOM     21  C   LIG    1       24.034 -31.590   6.713  0.00  0.00    +0.000 A 
ATOM     22  C   LIG    1       24.522 -30.336   6.318  0.00  0.00    +0.005 A 
ENDBRANCH  14  16
ENDBRANCH  13  14
ENDBRANCH  12  13
ENDBRANCH   1  12
TORSDOF 12
ENDMDL
MODEL 9
REMARK VINA RESULT:      -6.8      5.899      8.958
REMARK  Name = *****
REMARK                            x       y       z     vdW  Elec       q    Type
REMARK                         _______ _______ _______ _____ _____    ______ ____
ROOT
ATOM      1  C   LIG    1       24.945 -23.889   6.843  0.00  0.00    +0.000 C 
ENDROOT
BRANCH   1   2
ATOM      2  C   LIG    1       25.031 -24.308   5.337  0.00  0.00    -0.000 C 
BRANCH   2   3
ATOM      3  C   LIG    1       25.171 -25.840   5.060  0.00  0.00    +0.000 C 
BRANCH   3   4
ATOM      4  C   LIG    1       24.292 -26.872   5.827  0.00  0.00    +0.000 C 
BRANCH   4   5
ATOM      5  C   LIG    1       25.158 -27.958   6.531  0.00  0.00    +0.011 C 
BRANCH   5   6
ATOM      6  C   LIG    1       24.405 -29.131   7.162  0.00  0.00    +0.120 C 
BRANCH   6   7
ATOM      7  C   LIG    1       24.329 -30.345   6.239  0.00  0.00    +0.307 C 
ATOM      8  O   LIG    1       23.404 -31.045   6.116  0.00  0.00    -0.251 OA
BRANCH   7   9
ATOM      9  O   LIG    1       25.505 -30.369   5.501  0.00  0.00    -0.465 OA
BRANCH   9  11
ATOM     10  C   LIG    1       26.667 -32.509   5.856  0.00  0.00    +0.048 C 
ATOM     11  C   LIG    1       25.829 -31.643   4.935  0.00  0.00    +0.228 C 
ENDBRANCH   9  11
ENDBRANCH   7   9
ENDBRANCH   6   7
ENDBRANCH   5   6
ENDBRANCH   4   5
ENDBRANCH   3   4
ENDBRANCH   2   3
ENDBRANCH   1   2
BRANCH   1  12
ATOM     12  C   LIG    1       26.228 -23.246   7.402  0.00  0.00    +0.001 C 
BRANCH  12  13
ATOM     13  C   LIG    1       25.997 -21.925   8.215  0.00  0.00    +0.008 C 
BRANCH  13  14
ATOM     14  C   LIG    1       26.042 -20.626   7.360  0.00  0.00    +0.017 C 
ATOM     15  C   LIG    1       27.511 -20.449   6.869  0.00  0.00    +0.012 C 
BRANCH  14  16
ATOM     16  C   LIG    1       24.952 -20.345   6.235  0.00  0.00    -0.031 A 
ATOM     17  C   LIG    1       25.093 -20.500   4.819  0.00  0.00    +0.017 A 
ATOM     18  I   LIG    1       25.603 -18.603   3.474  0.00  0.00    -0.043 I 
ATOM     19  C   LIG    1       24.031 -20.998   4.007  0.00  0.00    +0.014 A 
ATOM     20  C   LIG    1       22.743 -21.055   4.514  0.00  0.00    +0.001 A 
ATOM     21  C   LIG    1       22.542 -20.844   5.866  0.00  0.00    +0.000 A 
ATOM     22  C   LIG    1       23.629 -20.563   6.707  0.00  0.00    +0.005 A 
ENDBRANCH  14  16
ENDBRANCH  13  14
ENDBRANCH  12  13
ENDBRANCH   1  12
TORSDOF 12
ENDMDL
