MODEL 1
REMARK VINA RESULT:      13.4      0.000      0.000
REMARK  Name = *****
REMARK                            x       y       z     vdW  Elec       q    Type
REMARK                         _______ _______ _______ _____ _____    ______ ____
ROOT
ATOM      1  C   LIG    1       25.266 -16.734   2.409  0.00  0.00    +0.044 C 
ATOM      2  C   LIG    1       24.246 -16.621   3.515  0.00  0.00    -0.050 C 
ATOM      3  C   LIG    1       24.142 -15.552   4.327  0.00  0.00    +0.003 C 
ENDROOT
BRANCH   3   4
ATOM      4  C   LIG    1       25.036 -14.425   4.304  0.00  0.00    +0.001 C 
ATOM      5  C   LIG    1       26.298 -14.507   3.861  0.00  0.00    +0.003 C 
BRANCH   5   6
ATOM      6  C   LIG    1       27.242 -13.397   3.890  0.00  0.00    -0.044 C 
ATOM      7  C   LIG    1       27.980 -13.223   5.003  0.00  0.00    +0.094 C 
ATOM      8  C   LIG    1       27.306 -12.503   2.674  0.00  0.00    +0.044 C 
BRANCH   7   9
ATOM      9  C   LIG    1       28.997 -12.161   5.174  0.00  0.00    +0.330 C 
ATOM     10  O   LIG    1       29.450 -11.469   4.291  0.00  0.00    -0.246 OA
BRANCH   9  11
ATOM     11  O   LIG    1       29.377 -12.050   6.467  0.00  0.00    -0.477 OA
ATOM     12  H   LIG    1       30.289 -11.738   6.612  0.00  0.00    +0.295 HD
ENDBRANCH   9  11
ENDBRANCH   7   9
ENDBRANCH   5   6
ENDBRANCH   3   4
BRANCH   2  13
ATOM     13  C   LIG    1       23.265 -17.682   3.656  0.00  0.00    +0.003 C 
ATOM     14  C   LIG    1       22.998 -18.340   4.795  0.00  0.00    +0.004 C 
BRANCH  14  15
ATOM     15  C   LIG    1       21.983 -19.380   4.894  0.00  0.00    -0.043 C 
ATOM     16  C   LIG    1       20.761 -19.206   3.962  0.00  0.00    -0.010 C 
ATOM     17  C   LIG    1       20.175 -17.775   3.997  0.00  0.00    +0.016 C 
ATOM     18  C   LIG    1       21.194 -19.511   2.509  0.00  0.00    +0.016 C 
ATOM     19  C   LIG    1       19.608 -20.162   4.365  0.00  0.00    +0.011 C 
ATOM     20  C   LIG    1       20.100 -21.567   4.669  0.00  0.00    +0.005 C 
ATOM     21  C   LIG    1       21.098 -21.545   5.818  0.00  0.00    +0.031 C 
ATOM     22  C   LIG    1       22.120 -20.434   5.737  0.00  0.00    -0.069 C 
ATOM     23  C   LIG    1       23.275 -20.649   6.688  0.00  0.00    +0.039 C 
ENDBRANCH  14  15
ENDBRANCH   2  13
TORSDOF 6
ENDMDL
