MODEL 1
REMARK VINA RESULT:      -6.7      0.000      0.000
REMARK  Name = *****
REMARK                            x       y       z     vdW  Elec       q    Type
REMARK                         _______ _______ _______ _____ _____    ______ ____
ROOT
ATOM      1  C   LIG    1       25.748 -30.011   8.052  0.00  0.00    +0.064 C 
ATOM      2  C   LIG    1       25.500 -31.435   7.441  0.00  0.00    +0.117 C 
ATOM      3  C   LIG    1       25.531 -31.473   5.894  0.00  0.00    +0.062 C 
ATOM      4  C   LIG    1       24.649 -30.357   5.311  0.00  0.00    +0.151 C 
ATOM      5  C   LIG    1       25.032 -28.992   5.804  0.00  0.00    -0.011 A 
ATOM      6  C   LIG    1       24.802 -27.874   4.980  0.00  0.00    +0.056 A 
ATOM      7  C   LIG    1       25.102 -26.625   5.474  0.00  0.00    +0.167 A 
ATOM      8  O   LIG    1       24.906 -25.446   4.826  0.00  0.00    -0.453 OA
ATOM      9  C   LIG    1       25.354 -24.510   5.829  0.00  0.00    +0.466 C 
ATOM     10  O   LIG    1       25.842 -25.147   7.028  0.00  0.00    -0.453 OA
ATOM     11  C   LIG    1       25.631 -26.455   6.727  0.00  0.00    +0.167 A 
ATOM     12  C   LIG    1       25.877 -27.527   7.558  0.00  0.00    +0.054 A 
ATOM     13  C   LIG    1       25.547 -28.823   7.110  0.00  0.00    -0.030 A 
ENDROOT
BRANCH   1  18
ATOM     14  C   LIG    1       24.756 -29.262  11.704  0.00  0.00    +0.165 A 
ATOM     15  C   LIG    1       23.398 -29.650  11.714  0.00  0.00    +0.203 A 
ATOM     16  C   LIG    1       22.817 -30.159  10.528  0.00  0.00    +0.165 A 
ATOM     17  C   LIG    1       23.576 -30.259   9.359  0.00  0.00    +0.053 A 
ATOM     18  C   LIG    1       24.917 -29.866   9.334  0.00  0.00    -0.032 A 
ATOM     19  C   LIG    1       25.490 -29.357  10.508  0.00  0.00    +0.053 A 
BRANCH  14  21
ATOM     20  C   LIG    1       25.580 -27.426  13.026  0.00  0.00    +0.277 C 
ATOM     21  O   LIG    1       25.312 -28.813  12.874  0.00  0.00    -0.491 OA
ENDBRANCH  14  21
BRANCH  15  22
ATOM     22  O   LIG    1       22.527 -29.607  12.780  0.00  0.00    -0.488 OA
ATOM     23  C   LIG    1       21.916 -28.381  13.144  0.00  0.00    +0.277 C 
ENDBRANCH  15  22
BRANCH  16  24
ATOM     24  O   LIG    1       21.486 -30.509  10.576  0.00  0.00    -0.491 OA
ATOM     25  C   LIG    1       21.182 -31.857  10.234  0.00  0.00    +0.277 C 
ENDBRANCH  16  24
ENDBRANCH   1  18
BRANCH   2  26
ATOM     26  C   LIG    1       26.549 -32.363   8.048  0.00  0.00    +0.309 C 
ATOM     27  O   LIG    1       26.369 -33.044   9.054  0.00  0.00    -0.251 OA
BRANCH  26  28
ATOM     28  O   LIG    1       27.724 -32.396   7.391  0.00  0.00    -0.480 OA
ATOM     29  H   LIG    1       28.402 -31.813   7.798  0.00  0.00    +0.295 HD
ENDBRANCH  26  28
ENDBRANCH   2  26
BRANCH   4  30
ATOM     30  O   LIG    1       23.283 -30.584   5.660  0.00  0.00    -0.387 OA
ATOM     31  H   LIG    1       23.113 -31.541   5.584  0.00  0.00    +0.210 HD
ENDBRANCH   4  30
BRANCH   3  32
ATOM     32  C   LIG    1       25.025 -32.812   5.323  0.00  0.00    +0.163 C 
BRANCH  32  33
ATOM     33  O   LIG    1       24.552 -32.681   3.994  0.00  0.00    -0.395 OA
ATOM     34  H   LIG    1       23.685 -33.126   3.932  0.00  0.00    +0.209 HD
ENDBRANCH  32  33
ENDBRANCH   3  32
TORSDOF 9
ENDMDL
MODEL 2
REMARK VINA RESULT:      -6.7      0.114      2.301
REMARK  Name = *****
REMARK                            x       y       z     vdW  Elec       q    Type
REMARK                         _______ _______ _______ _____ _____    ______ ____
ROOT
ATOM      1  C   LIG    1       25.759 -30.062   8.065  0.00  0.00    +0.064 C 
ATOM      2  C   LIG    1       25.512 -31.483   7.445  0.00  0.00    +0.117 C 
ATOM      3  C   LIG    1       25.539 -31.511   5.898  0.00  0.00    +0.062 C 
ATOM      4  C   LIG    1       24.653 -30.393   5.325  0.00  0.00    +0.151 C 
ATOM      5  C   LIG    1       25.034 -29.030   5.825  0.00  0.00    -0.011 A 
ATOM      6  C   LIG    1       24.800 -27.907   5.009  0.00  0.00    +0.056 A 
ATOM      7  C   LIG    1       25.098 -26.661   5.511  0.00  0.00    +0.167 A 
ATOM      8  O   LIG    1       24.898 -25.478   4.871  0.00  0.00    -0.453 OA
ATOM      9  C   LIG    1       25.346 -24.548   5.879  0.00  0.00    +0.466 C 
ATOM     10  O   LIG    1       25.839 -25.191   7.073  0.00  0.00    -0.453 OA
ATOM     11  C   LIG    1       25.630 -26.498   6.764  0.00  0.00    +0.167 A 
ATOM     12  C   LIG    1       25.881 -27.575   7.587  0.00  0.00    +0.054 A 
ATOM     13  C   LIG    1       25.552 -28.869   7.131  0.00  0.00    -0.030 A 
ENDROOT
BRANCH   1  18
ATOM     14  C   LIG    1       22.793 -30.143  10.531  0.00  0.00    +0.165 A 
ATOM     15  C   LIG    1       23.386 -29.628  11.705  0.00  0.00    +0.203 A 
ATOM     16  C   LIG    1       24.751 -29.253  11.681  0.00  0.00    +0.165 A 
ATOM     17  C   LIG    1       25.503 -29.407  10.513  0.00  0.00    +0.053 A 
ATOM     18  C   LIG    1       24.930 -29.927   9.350  0.00  0.00    -0.032 A 
ATOM     19  C   LIG    1       23.580 -30.303   9.376  0.00  0.00    +0.053 A 
BRANCH  14  21
ATOM     20  C   LIG    1       21.057 -31.794  10.286  0.00  0.00    +0.277 C 
ATOM     21  O   LIG    1       21.459 -30.459  10.562  0.00  0.00    -0.491 OA
ENDBRANCH  14  21
BRANCH  15  22
ATOM     22  O   LIG    1       22.780 -29.422  12.924  0.00  0.00    -0.488 OA
ATOM     23  C   LIG    1       21.975 -28.273  13.129  0.00  0.00    +0.277 C 
ENDBRANCH  15  22
BRANCH  16  24
ATOM     24  O   LIG    1       25.295 -28.773  12.851  0.00  0.00    -0.491 OA
ATOM     25  C   LIG    1       25.913 -27.492  12.773  0.00  0.00    +0.277 C 
ENDBRANCH  16  24
ENDBRANCH   1  18
BRANCH   2  26
ATOM     26  C   LIG    1       26.564 -32.412   8.043  0.00  0.00    +0.309 C 
ATOM     27  O   LIG    1       26.381 -33.117   9.032  0.00  0.00    -0.251 OA
BRANCH  26  28
ATOM     28  O   LIG    1       27.747 -32.418   7.399  0.00  0.00    -0.480 OA
ATOM     29  H   LIG    1       27.688 -32.816   6.503  0.00  0.00    +0.295 HD
ENDBRANCH  26  28
ENDBRANCH   2  26
BRANCH   4  30
ATOM     30  O   LIG    1       23.289 -30.625   5.676  0.00  0.00    -0.387 OA
ATOM     31  H   LIG    1       23.276 -31.038   6.559  0.00  0.00    +0.210 HD
ENDBRANCH   4  30
BRANCH   3  32
ATOM     32  C   LIG    1       25.034 -32.847   5.320  0.00  0.00    +0.163 C 
BRANCH  32  33
ATOM     33  O   LIG    1       24.600 -32.718   3.977  0.00  0.00    -0.395 OA
ATOM     34  H   LIG    1       24.363 -31.784   3.820  0.00  0.00    +0.209 HD
ENDBRANCH  32  33
ENDBRANCH   3  32
TORSDOF 9
ENDMDL
MODEL 3
REMARK VINA RESULT:      -5.4      5.424      9.972
REMARK  Name = *****
REMARK                            x       y       z     vdW  Elec       q    Type
REMARK                         _______ _______ _______ _____ _____    ______ ____
ROOT
ATOM      1  C   LIG    1       25.656 -22.113   7.169  0.00  0.00    +0.064 C 
ATOM      2  C   LIG    1       24.669 -20.973   6.735  0.00  0.00    +0.117 C 
ATOM      3  C   LIG    1       23.463 -21.466   5.900  0.00  0.00    +0.062 C 
ATOM      4  C   LIG    1       23.936 -22.381   4.759  0.00  0.00    +0.151 C 
ATOM      5  C   LIG    1       24.743 -23.551   5.244  0.00  0.00    -0.011 A 
ATOM      6  C   LIG    1       24.728 -24.750   4.508  0.00  0.00    +0.056 A 
ATOM      7  C   LIG    1       25.523 -25.789   4.934  0.00  0.00    +0.167 A 
ATOM      8  O   LIG    1       25.652 -26.995   4.318  0.00  0.00    -0.453 OA
ATOM      9  C   LIG    1       26.625 -27.631   5.175  0.00  0.00    +0.466 C 
ATOM     10  O   LIG    1       27.020 -26.814   6.297  0.00  0.00    -0.453 OA
ATOM     11  C   LIG    1       26.302 -25.685   6.057  0.00  0.00    +0.167 A 
ATOM     12  C   LIG    1       26.337 -24.529   6.807  0.00  0.00    +0.054 A 
ATOM     13  C   LIG    1       25.569 -23.423   6.385  0.00  0.00    -0.030 A 
ENDROOT
BRANCH   1  18
ATOM     14  C   LIG    1       29.273 -21.347   8.275  0.00  0.00    +0.165 A 
ATOM     15  C   LIG    1       29.706 -20.483   7.246  0.00  0.00    +0.203 A 
ATOM     16  C   LIG    1       28.813 -20.153   6.200  0.00  0.00    +0.165 A 
ATOM     17  C   LIG    1       27.522 -20.689   6.180  0.00  0.00    +0.053 A 
ATOM     18  C   LIG    1       27.086 -21.556   7.186  0.00  0.00    -0.032 A 
ATOM     19  C   LIG    1       27.974 -21.886   8.219  0.00  0.00    +0.053 A 
BRANCH  14  21
ATOM     20  C   LIG    1       31.369 -22.271   9.017  0.00  0.00    +0.277 C 
ATOM     21  O   LIG    1       30.138 -21.620   9.303  0.00  0.00    -0.491 OA
ENDBRANCH  14  21
BRANCH  15  22
ATOM     22  O   LIG    1       30.940 -19.883   7.127  0.00  0.00    -0.488 OA
ATOM     23  C   LIG    1       31.255 -18.752   7.922  0.00  0.00    +0.277 C 
ENDBRANCH  15  22
BRANCH  16  24
ATOM     24  O   LIG    1       29.281 -19.322   5.206  0.00  0.00    -0.491 OA
ATOM     25  C   LIG    1       28.819 -17.976   5.248  0.00  0.00    +0.277 C 
ENDBRANCH  16  24
ENDBRANCH   1  18
BRANCH   2  26
ATOM     26  C   LIG    1       24.220 -20.269   8.012  0.00  0.00    +0.309 C 
ATOM     27  O   LIG    1       23.080 -19.857   8.208  0.00  0.00    -0.251 OA
BRANCH  26  28
ATOM     28  O   LIG    1       25.180 -20.122   8.945  0.00  0.00    -0.480 OA
ATOM     29  H   LIG    1       24.837 -20.220   9.860  0.00  0.00    +0.295 HD
ENDBRANCH  26  28
ENDBRANCH   2  26
BRANCH   4  30
ATOM     30  O   LIG    1       24.741 -21.640   3.843  0.00  0.00    -0.387 OA
ATOM     31  H   LIG    1       24.143 -21.208   3.205  0.00  0.00    +0.210 HD
ENDBRANCH   4  30
BRANCH   3  32
ATOM     32  C   LIG    1       22.665 -20.309   5.268  0.00  0.00    +0.163 C 
BRANCH  32  33
ATOM     33  O   LIG    1       23.508 -19.368   4.626  0.00  0.00    -0.395 OA
ATOM     34  H   LIG    1       24.090 -19.849   4.007  0.00  0.00    +0.209 HD
ENDBRANCH  32  33
ENDBRANCH   3  32
TORSDOF 9
ENDMDL
MODEL 4
REMARK VINA RESULT:      -5.3      2.669      7.514
REMARK  Name = *****
REMARK                            x       y       z     vdW  Elec       q    Type
REMARK                         _______ _______ _______ _____ _____    ______ ____
ROOT
ATOM      1  C   LIG    1       26.008 -28.499  13.318  0.00  0.00    +0.064 C 
ATOM      2  C   LIG    1       27.259 -27.621  13.675  0.00  0.00    +0.117 C 
ATOM      3  C   LIG    1       26.925 -26.345  14.485  0.00  0.00    +0.062 C 
ATOM      4  C   LIG    1       25.765 -25.579  13.827  0.00  0.00    +0.151 C 
ATOM      5  C   LIG    1       24.533 -26.421  13.654  0.00  0.00    -0.011 A 
ATOM      6  C   LIG    1       23.270 -25.801  13.668  0.00  0.00    +0.056 A 
ATOM      7  C   LIG    1       22.157 -26.580  13.445  0.00  0.00    +0.167 A 
ATOM      8  O   LIG    1       20.873 -26.134  13.388  0.00  0.00    -0.453 OA
ATOM      9  C   LIG    1       20.176 -27.363  13.092  0.00  0.00    +0.466 C 
ATOM     10  O   LIG    1       21.045 -28.512  13.020  0.00  0.00    -0.453 OA
ATOM     11  C   LIG    1       22.255 -27.931  13.232  0.00  0.00    +0.167 A 
ATOM     12  C   LIG    1       23.475 -28.573  13.220  0.00  0.00    +0.054 A 
ATOM     13  C   LIG    1       24.646 -27.808  13.402  0.00  0.00    -0.030 A 
ENDROOT
BRANCH   1  18
ATOM     14  C   LIG    1       26.692 -28.940   9.546  0.00  0.00    +0.165 A 
ATOM     15  C   LIG    1       26.586 -30.340   9.401  0.00  0.00    +0.203 A 
ATOM     16  C   LIG    1       26.288 -31.131  10.536  0.00  0.00    +0.165 A 
ATOM     17  C   LIG    1       26.115 -30.532  11.787  0.00  0.00    +0.053 A 
ATOM     18  C   LIG    1       26.230 -29.148  11.945  0.00  0.00    -0.032 A 
ATOM     19  C   LIG    1       26.531 -28.366  10.821  0.00  0.00    +0.053 A 
BRANCH  14  21
ATOM     20  C   LIG    1       25.841 -27.704   7.663  0.00  0.00    +0.277 C 
ATOM     21  O   LIG    1       26.938 -28.187   8.427  0.00  0.00    -0.491 OA
ENDBRANCH  14  21
BRANCH  15  22
ATOM     22  O   LIG    1       26.732 -31.071   8.243  0.00  0.00    -0.488 OA
ATOM     23  C   LIG    1       25.619 -31.269   7.387  0.00  0.00    +0.277 C 
ENDBRANCH  15  22
BRANCH  16  24
ATOM     24  O   LIG    1       26.211 -32.494  10.355  0.00  0.00    -0.491 OA
ATOM     25  C   LIG    1       24.997 -33.112  10.767  0.00  0.00    +0.277 C 
ENDBRANCH  16  24
ENDBRANCH   1  18
BRANCH   2  26
ATOM     26  C   LIG    1       28.231 -28.526  14.428  0.00  0.00    +0.309 C 
ATOM     27  O   LIG    1       27.978 -29.071  15.499  0.00  0.00    -0.251 OA
BRANCH  26  28
ATOM     28  O   LIG    1       29.423 -28.700  13.826  0.00  0.00    -0.480 OA
ATOM     29  H   LIG    1       29.679 -27.936  13.264  0.00  0.00    +0.295 HD
ENDBRANCH  26  28
ENDBRANCH   2  26
BRANCH   4  30
ATOM     30  O   LIG    1       26.161 -25.108  12.539  0.00  0.00    -0.387 OA
ATOM     31  H   LIG    1       25.663 -25.617  11.872  0.00  0.00    +0.210 HD
ENDBRANCH   4  30
BRANCH   3  32
ATOM     32  C   LIG    1       28.120 -25.378  14.589  0.00  0.00    +0.163 C 
BRANCH  32  33
ATOM     33  O   LIG    1       27.724 -24.023  14.462  0.00  0.00    -0.395 OA
ATOM     34  H   LIG    1       27.942 -23.561  15.293  0.00  0.00    +0.209 HD
ENDBRANCH  32  33
ENDBRANCH   3  32
TORSDOF 9
ENDMDL
MODEL 5
REMARK VINA RESULT:      -5.3      1.839      3.276
REMARK  Name = *****
REMARK                            x       y       z     vdW  Elec       q    Type
REMARK                         _______ _______ _______ _____ _____    ______ ____
ROOT
ATOM      1  C   LIG    1       26.153 -30.352   9.288  0.00  0.00    +0.064 C 
ATOM      2  C   LIG    1       25.517 -31.787   9.325  0.00  0.00    +0.117 C 
ATOM      3  C   LIG    1       24.799 -32.193   8.015  0.00  0.00    +0.062 C 
ATOM      4  C   LIG    1       23.848 -31.076   7.555  0.00  0.00    +0.151 C 
ATOM      5  C   LIG    1       24.540 -29.755   7.379  0.00  0.00    -0.011 A 
ATOM      6  C   LIG    1       24.043 -28.840   6.432  0.00  0.00    +0.056 A 
ATOM      7  C   LIG    1       24.653 -27.610   6.329  0.00  0.00    +0.167 A 
ATOM      8  O   LIG    1       24.275 -26.603   5.497  0.00  0.00    -0.453 OA
ATOM      9  C   LIG    1       25.230 -25.583   5.859  0.00  0.00    +0.466 C 
ATOM     10  O   LIG    1       26.176 -26.014   6.861  0.00  0.00    -0.453 OA
ATOM     11  C   LIG    1       25.731 -27.274   7.107  0.00  0.00    +0.167 A 
ATOM     12  C   LIG    1       26.249 -28.148   8.038  0.00  0.00    +0.054 A 
ATOM     13  C   LIG    1       25.631 -29.405   8.208  0.00  0.00    -0.030 A 
ENDROOT
BRANCH   1  18
ATOM     14  C   LIG    1       24.705 -28.761  12.491  0.00  0.00    +0.165 A 
ATOM     15  C   LIG    1       25.876 -28.523  13.244  0.00  0.00    +0.203 A 
ATOM     16  C   LIG    1       27.132 -28.880  12.697  0.00  0.00    +0.165 A 
ATOM     17  C   LIG    1       27.207 -29.475  11.435  0.00  0.00    +0.053 A 
ATOM     18  C   LIG    1       26.055 -29.727  10.687  0.00  0.00    -0.032 A 
ATOM     19  C   LIG    1       24.810 -29.378  11.231  0.00  0.00    +0.053 A 
BRANCH  14  21
ATOM     20  C   LIG    1       22.731 -29.306  13.757  0.00  0.00    +0.277 C 
ATOM     21  O   LIG    1       23.503 -28.368  13.019  0.00  0.00    -0.491 OA
ENDBRANCH  14  21
BRANCH  15  22
ATOM     22  O   LIG    1       25.961 -27.953  14.494  0.00  0.00    -0.488 OA
ATOM     23  C   LIG    1       25.843 -26.547  14.639  0.00  0.00    +0.277 C 
ENDBRANCH  15  22
BRANCH  16  24
ATOM     24  O   LIG    1       28.247 -28.648  13.471  0.00  0.00    -0.491 OA
ATOM     25  C   LIG    1       28.982 -29.801  13.869  0.00  0.00    +0.277 C 
ENDBRANCH  16  24
ENDBRANCH   1  18
BRANCH   2  26
ATOM     26  C   LIG    1       26.642 -32.758   9.674  0.00  0.00    +0.309 C 
ATOM     27  O   LIG    1       27.717 -32.809   9.085  0.00  0.00    -0.251 OA
BRANCH  26  28
ATOM     28  O   LIG    1       26.377 -33.583  10.705  0.00  0.00    -0.480 OA
ATOM     29  H   LIG    1       26.148 -33.099  11.529  0.00  0.00    +0.295 HD
ENDBRANCH  26  28
ENDBRANCH   2  26
BRANCH   4  30
ATOM     30  O   LIG    1       22.803 -30.901   8.512  0.00  0.00    -0.387 OA
ATOM     31  H   LIG    1       22.577 -29.953   8.532  0.00  0.00    +0.210 HD
ENDBRANCH   4  30
BRANCH   3  32
ATOM     32  C   LIG    1       23.965 -33.479   8.170  0.00  0.00    +0.163 C 
BRANCH  32  33
ATOM     33  O   LIG    1       22.864 -33.513   7.278  0.00  0.00    -0.395 OA
ATOM     34  H   LIG    1       22.142 -34.015   7.701  0.00  0.00    +0.209 HD
ENDBRANCH  32  33
ENDBRANCH   3  32
TORSDOF 9
ENDMDL
MODEL 6
REMARK VINA RESULT:      -5.2      1.631      2.172
REMARK  Name = *****
REMARK                            x       y       z     vdW  Elec       q    Type
REMARK                         _______ _______ _______ _____ _____    ______ ____
ROOT
ATOM      1  C   LIG    1       26.302 -30.253   8.653  0.00  0.00    +0.064 C 
ATOM      2  C   LIG    1       25.826 -31.735   8.448  0.00  0.00    +0.117 C 
ATOM      3  C   LIG    1       25.194 -32.010   7.063  0.00  0.00    +0.062 C 
ATOM      4  C   LIG    1       24.140 -30.941   6.731  0.00  0.00    +0.151 C 
ATOM      5  C   LIG    1       24.688 -29.544   6.782  0.00  0.00    -0.011 A 
ATOM      6  C   LIG    1       24.121 -28.552   5.960  0.00  0.00    +0.056 A 
ATOM      7  C   LIG    1       24.594 -27.264   6.067  0.00  0.00    +0.167 A 
ATOM      8  O   LIG    1       24.133 -26.188   5.377  0.00  0.00    -0.453 OA
ATOM      9  C   LIG    1       24.959 -25.141   5.928  0.00  0.00    +0.466 C 
ATOM     10  O   LIG    1       25.918 -25.618   6.896  0.00  0.00    -0.453 OA
ATOM     11  C   LIG    1       25.607 -26.940   6.933  0.00  0.00    +0.167 A 
ATOM     12  C   LIG    1       26.191 -27.887   7.748  0.00  0.00    +0.054 A 
ATOM     13  C   LIG    1       25.710 -29.212   7.702  0.00  0.00    -0.030 A 
ENDROOT
BRANCH   1  18
ATOM     14  C   LIG    1       27.021 -29.183  12.289  0.00  0.00    +0.165 A 
ATOM     15  C   LIG    1       25.724 -29.192  12.849  0.00  0.00    +0.203 A 
ATOM     16  C   LIG    1       24.624 -29.551  12.034  0.00  0.00    +0.165 A 
ATOM     17  C   LIG    1       24.819 -29.879  10.690  0.00  0.00    +0.053 A 
ATOM     18  C   LIG    1       26.096 -29.861  10.122  0.00  0.00    -0.032 A 
ATOM     19  C   LIG    1       27.185 -29.499  10.928  0.00  0.00    +0.053 A 
BRANCH  14  21
ATOM     20  C   LIG    1       28.621 -29.884  13.946  0.00  0.00    +0.277 C 
ATOM     21  O   LIG    1       28.078 -28.874  13.105  0.00  0.00    -0.491 OA
ENDBRANCH  14  21
BRANCH  15  22
ATOM     22  O   LIG    1       25.374 -28.892  14.147  0.00  0.00    -0.488 OA
ATOM     23  C   LIG    1       25.321 -27.540  14.570  0.00  0.00    +0.277 C 
ENDBRANCH  15  22
BRANCH  16  24
ATOM     24  O   LIG    1       23.374 -29.530  12.614  0.00  0.00    -0.491 OA
ATOM     25  C   LIG    1       22.689 -30.776  12.668  0.00  0.00    +0.277 C 
ENDBRANCH  16  24
ENDBRANCH   1  18
BRANCH   2  26
ATOM     26  C   LIG    1       27.040 -32.625   8.700  0.00  0.00    +0.309 C 
ATOM     27  O   LIG    1       27.993 -32.726   7.932  0.00  0.00    -0.251 OA
BRANCH  26  28
ATOM     28  O   LIG    1       27.005 -33.316   9.855  0.00  0.00    -0.480 OA
ATOM     29  H   LIG    1       27.724 -33.059  10.472  0.00  0.00    +0.295 HD
ENDBRANCH  26  28
ENDBRANCH   2  26
BRANCH   4  30
ATOM     30  O   LIG    1       23.055 -31.023   7.655  0.00  0.00    -0.387 OA
ATOM     31  H   LIG    1       22.237 -30.803   7.172  0.00  0.00    +0.210 HD
ENDBRANCH   4  30
BRANCH   3  32
ATOM     32  C   LIG    1       24.502 -33.384   6.988  0.00  0.00    +0.163 C 
BRANCH  32  33
ATOM     33  O   LIG    1       23.787 -33.687   8.174  0.00  0.00    -0.395 OA
ATOM     34  H   LIG    1       23.718 -34.658   8.251  0.00  0.00    +0.209 HD
ENDBRANCH  32  33
ENDBRANCH   3  32
TORSDOF 9
ENDMDL
MODEL 7
REMARK VINA RESULT:      -5.1      2.274      4.962
REMARK  Name = *****
REMARK                            x       y       z     vdW  Elec       q    Type
REMARK                         _______ _______ _______ _____ _____    ______ ____
ROOT
ATOM      1  C   LIG    1       24.268 -31.557   8.813  0.00  0.00    +0.064 C 
ATOM      2  C   LIG    1       24.003 -31.151   7.319  0.00  0.00    +0.117 C 
ATOM      3  C   LIG    1       25.131 -30.301   6.687  0.00  0.00    +0.062 C 
ATOM      4  C   LIG    1       25.511 -29.136   7.615  0.00  0.00    +0.151 C 
ATOM      5  C   LIG    1       25.913 -29.590   8.989  0.00  0.00    -0.011 A 
ATOM      6  C   LIG    1       26.832 -28.820   9.726  0.00  0.00    +0.056 A 
ATOM      7  C   LIG    1       27.140 -29.219  11.007  0.00  0.00    +0.167 A 
ATOM      8  O   LIG    1       27.975 -28.571  11.862  0.00  0.00    -0.453 OA
ATOM      9  C   LIG    1       27.868 -29.412  13.030  0.00  0.00    +0.466 C 
ATOM     10  O   LIG    1       27.013 -30.557  12.835  0.00  0.00    -0.453 OA
ATOM     11  C   LIG    1       26.591 -30.347  11.561  0.00  0.00    +0.167 A 
ATOM     12  C   LIG    1       25.693 -31.129  10.865  0.00  0.00    +0.054 A 
ATOM     13  C   LIG    1       25.316 -30.736   9.564  0.00  0.00    -0.030 A 
ENDROOT
BRANCH   1  18
ATOM     14  C   LIG    1       20.846 -32.749  10.138  0.00  0.00    +0.165 A 
ATOM     15  C   LIG    1       20.436 -31.636  10.905  0.00  0.00    +0.203 A 
ATOM     16  C   LIG    1       21.279 -30.502  10.980  0.00  0.00    +0.165 A 
ATOM     17  C   LIG    1       22.508 -30.492  10.315  0.00  0.00    +0.053 A 
ATOM     18  C   LIG    1       22.930 -31.592   9.564  0.00  0.00    -0.032 A 
ATOM     19  C   LIG    1       22.096 -32.718   9.494  0.00  0.00    +0.053 A 
BRANCH  14  21
ATOM     20  C   LIG    1       19.000 -33.825   9.027  0.00  0.00    +0.277 C 
ATOM     21  O   LIG    1       19.996 -33.820  10.041  0.00  0.00    -0.491 OA
ENDBRANCH  14  21
BRANCH  15  22
ATOM     22  O   LIG    1       19.263 -31.500  11.614  0.00  0.00    -0.488 OA
ATOM     23  C   LIG    1       19.116 -32.147  12.867  0.00  0.00    +0.277 C 
ENDBRANCH  15  22
BRANCH  16  24
ATOM     24  O   LIG    1       20.850 -29.446  11.754  0.00  0.00    -0.491 OA
ATOM     25  C   LIG    1       21.856 -28.770  12.501  0.00  0.00    +0.277 C 
ENDBRANCH  16  24
ENDBRANCH   1  18
BRANCH   2  26
ATOM     26  C   LIG    1       23.774 -32.447   6.546  0.00  0.00    +0.309 C 
ATOM     27  O   LIG    1       24.328 -33.512   6.804  0.00  0.00    -0.251 OA
BRANCH  26  28
ATOM     28  O   LIG    1       22.896 -32.351   5.529  0.00  0.00    -0.480 OA
ATOM     29  H   LIG    1       22.918 -33.132   4.935  0.00  0.00    +0.295 HD
ENDBRANCH  26  28
ENDBRANCH   2  26
BRANCH   4  30
ATOM     30  O   LIG    1       24.406 -28.242   7.753  0.00  0.00    -0.387 OA
ATOM     31  H   LIG    1       23.968 -28.178   6.884  0.00  0.00    +0.210 HD
ENDBRANCH   4  30
BRANCH   3  32
ATOM     32  C   LIG    1       24.729 -29.699   5.327  0.00  0.00    +0.163 C 
BRANCH  32  33
ATOM     33  O   LIG    1       23.347 -29.388   5.268  0.00  0.00    -0.395 OA
ATOM     34  H   LIG    1       23.241 -28.563   4.757  0.00  0.00    +0.209 HD
ENDBRANCH  32  33
ENDBRANCH   3  32
TORSDOF 9
ENDMDL
MODEL 8
REMARK VINA RESULT:      -5.0      2.756      7.654
REMARK  Name = *****
REMARK                            x       y       z     vdW  Elec       q    Type
REMARK                         _______ _______ _______ _____ _____    ______ ____
ROOT
ATOM      1  C   LIG    1       25.943 -28.536  13.395  0.00  0.00    +0.064 C 
ATOM      2  C   LIG    1       27.207 -27.663  13.714  0.00  0.00    +0.117 C 
ATOM      3  C   LIG    1       26.895 -26.359  14.488  0.00  0.00    +0.062 C 
ATOM      4  C   LIG    1       25.737 -25.600  13.820  0.00  0.00    +0.151 C 
ATOM      5  C   LIG    1       24.495 -26.433  13.684  0.00  0.00    -0.011 A 
ATOM      6  C   LIG    1       23.238 -25.798  13.694  0.00  0.00    +0.056 A 
ATOM      7  C   LIG    1       22.115 -26.571  13.505  0.00  0.00    +0.167 A 
ATOM      8  O   LIG    1       20.836 -26.113  13.449  0.00  0.00    -0.453 OA
ATOM      9  C   LIG    1       20.121 -27.341  13.196  0.00  0.00    +0.466 C 
ATOM     10  O   LIG    1       20.977 -28.502  13.150  0.00  0.00    -0.453 OA
ATOM     11  C   LIG    1       22.196 -27.928  13.332  0.00  0.00    +0.167 A 
ATOM     12  C   LIG    1       23.408 -28.584  13.326  0.00  0.00    +0.054 A 
ATOM     13  C   LIG    1       24.590 -27.828  13.473  0.00  0.00    -0.030 A 
ENDROOT
BRANCH   1  18
ATOM     14  C   LIG    1       26.221 -31.274  10.691  0.00  0.00    +0.165 A 
ATOM     15  C   LIG    1       26.567 -30.513   9.552  0.00  0.00    +0.203 A 
ATOM     16  C   LIG    1       26.711 -29.111   9.677  0.00  0.00    +0.165 A 
ATOM     17  C   LIG    1       26.498 -28.488  10.910  0.00  0.00    +0.053 A 
ATOM     18  C   LIG    1       26.143 -29.228  12.040  0.00  0.00    -0.032 A 
ATOM     19  C   LIG    1       25.995 -30.617  11.914  0.00  0.00    +0.053 A 
BRANCH  14  21
ATOM     20  C   LIG    1       24.900 -33.279  10.866  0.00  0.00    +0.277 C 
ATOM     21  O   LIG    1       26.129 -32.635  10.560  0.00  0.00    -0.491 OA
ENDBRANCH  14  21
BRANCH  15  22
ATOM     22  O   LIG    1       26.804 -30.981   8.279  0.00  0.00    -0.488 OA
ATOM     23  C   LIG    1       25.725 -31.443   7.484  0.00  0.00    +0.277 C 
ENDBRANCH  15  22
BRANCH  16  24
ATOM     24  O   LIG    1       27.031 -28.405   8.539  0.00  0.00    -0.491 OA
ATOM     25  C   LIG    1       25.947 -27.762   7.877  0.00  0.00    +0.277 C 
ENDBRANCH  16  24
ENDBRANCH   1  18
BRANCH   2  26
ATOM     26  C   LIG    1       28.177 -28.555  14.482  0.00  0.00    +0.309 C 
ATOM     27  O   LIG    1       27.884 -29.178  15.499  0.00  0.00    -0.251 OA
BRANCH  26  28
ATOM     28  O   LIG    1       29.416 -28.626  13.960  0.00  0.00    -0.480 OA
ATOM     29  H   LIG    1       30.114 -28.374  14.604  0.00  0.00    +0.295 HD
ENDBRANCH  26  28
ENDBRANCH   2  26
BRANCH   4  30
ATOM     30  O   LIG    1       26.124 -25.172  12.515  0.00  0.00    -0.387 OA
ATOM     31  H   LIG    1       26.678 -24.375  12.617  0.00  0.00    +0.210 HD
ENDBRANCH   4  30
BRANCH   3  32
ATOM     32  C   LIG    1       28.102 -25.403  14.551  0.00  0.00    +0.163 C 
BRANCH  32  33
ATOM     33  O   LIG    1       27.719 -24.048  14.396  0.00  0.00    -0.395 OA
ATOM     34  H   LIG    1       27.481 -23.901  13.461  0.00  0.00    +0.209 HD
ENDBRANCH  32  33
ENDBRANCH   3  32
TORSDOF 9
ENDMDL
MODEL 9
REMARK VINA RESULT:      -5.0      2.246      7.073
REMARK  Name = *****
REMARK                            x       y       z     vdW  Elec       q    Type
REMARK                         _______ _______ _______ _____ _____    ______ ____
ROOT
ATOM      1  C   LIG    1       25.379 -29.149  12.245  0.00  0.00    +0.064 C 
ATOM      2  C   LIG    1       26.820 -28.630  12.586  0.00  0.00    +0.117 C 
ATOM      3  C   LIG    1       26.879 -27.695  13.818  0.00  0.00    +0.062 C 
ATOM      4  C   LIG    1       25.805 -26.600  13.715  0.00  0.00    +0.151 C 
ATOM      5  C   LIG    1       24.419 -27.154  13.550  0.00  0.00    -0.011 A 
ATOM      6  C   LIG    1       23.322 -26.420  14.040  0.00  0.00    +0.056 A 
ATOM      7  C   LIG    1       22.056 -26.915  13.824  0.00  0.00    +0.167 A 
ATOM      8  O   LIG    1       20.894 -26.315  14.197  0.00  0.00    -0.453 OA
ATOM      9  C   LIG    1       19.929 -27.253  13.677  0.00  0.00    +0.466 C 
ATOM     10  O   LIG    1       20.530 -28.404  13.048  0.00  0.00    -0.453 OA
ATOM     11  C   LIG    1       21.849 -28.101  13.168  0.00  0.00    +0.167 A 
ATOM     12  C   LIG    1       22.899 -28.850  12.682  0.00  0.00    +0.054 A 
ATOM     13  C   LIG    1       24.213 -28.362  12.844  0.00  0.00    -0.030 A 
ENDROOT
BRANCH   1  18
ATOM     14  C   LIG    1       25.871 -28.573   8.462  0.00  0.00    +0.165 A 
ATOM     15  C   LIG    1       24.963 -29.505   7.913  0.00  0.00    +0.203 A 
ATOM     16  C   LIG    1       24.194 -30.313   8.783  0.00  0.00    +0.165 A 
ATOM     17  C   LIG    1       24.343 -30.198  10.167  0.00  0.00    +0.053 A 
ATOM     18  C   LIG    1       25.247 -29.288  10.722  0.00  0.00    -0.032 A 
ATOM     19  C   LIG    1       26.013 -28.492   9.859  0.00  0.00    +0.053 A 
BRANCH  14  21
ATOM     20  C   LIG    1       25.917 -26.670   6.987  0.00  0.00    +0.277 C 
ATOM     21  O   LIG    1       26.575 -27.769   7.603  0.00  0.00    -0.491 OA
ENDBRANCH  14  21
BRANCH  15  22
ATOM     22  O   LIG    1       24.710 -29.735   6.579  0.00  0.00    -0.488 OA
ATOM     23  C   LIG    1       25.552 -30.602   5.838  0.00  0.00    +0.277 C 
ENDBRANCH  15  22
BRANCH  16  24
ATOM     24  O   LIG    1       23.334 -31.223   8.207  0.00  0.00    -0.491 OA
ATOM     25  C   LIG    1       23.612 -32.595   8.465  0.00  0.00    +0.277 C 
ENDBRANCH  16  24
ENDBRANCH   1  18
BRANCH   2  26
ATOM     26  C   LIG    1       27.700 -29.862  12.773  0.00  0.00    +0.309 C 
ATOM     27  O   LIG    1       27.502 -30.730  13.619  0.00  0.00    -0.251 OA
BRANCH  26  28
ATOM     28  O   LIG    1       28.742 -29.948  11.924  0.00  0.00    -0.480 OA
ATOM     29  H   LIG    1       28.613 -30.634  11.234  0.00  0.00    +0.295 HD
ENDBRANCH  26  28
ENDBRANCH   2  26
BRANCH   4  30
ATOM     30  O   LIG    1       26.077 -25.756  12.596  0.00  0.00    -0.387 OA
ATOM     31  H   LIG    1       26.998 -25.917  12.320  0.00  0.00    +0.210 HD
ENDBRANCH   4  30
BRANCH   3  32
ATOM     32  C   LIG    1       28.243 -26.995  13.968  0.00  0.00    +0.163 C 
BRANCH  32  33
ATOM     33  O   LIG    1       28.109 -25.642  14.368  0.00  0.00    -0.395 OA
ATOM     34  H   LIG    1       28.133 -25.607  15.343  0.00  0.00    +0.209 HD
ENDBRANCH  32  33
ENDBRANCH   3  32
TORSDOF 9
ENDMDL
