MODEL 1
REMARK VINA RESULT:      -5.5      0.000      0.000
REMARK  Name = *****
REMARK                            x       y       z     vdW  Elec       q    Type
REMARK                         _______ _______ _______ _____ _____    ______ ____
ROOT
ATOM      1  C   LIG    1       23.074 -15.754   4.513  0.00  0.00    +0.214 C 
ATOM      2  N   LIG    1       24.136 -15.069   3.994  0.00  0.00    -0.302 N 
ATOM      3  H   LIG    1       24.530 -15.439   3.136  0.00  0.00    +0.149 HD
ATOM      4  O   LIG    1       22.391 -15.345   5.462  0.00  0.00    -0.276 OA
ENDROOT
BRANCH   1   5
ATOM      5  C   LIG    1       22.808 -17.081   3.838  0.00  0.00    +0.096 C 
BRANCH   5   6
ATOM      6  C   LIG    1       22.397 -18.154   4.844  0.00  0.00    +0.009 C 
BRANCH   6   7
ATOM      7  C   LIG    1       23.050 -19.491   4.490  0.00  0.00    +0.000 C 
BRANCH   7   8
ATOM      8  C   LIG    1       22.501 -20.652   5.320  0.00  0.00    +0.000 C 
BRANCH   8   9
ATOM      9  C   LIG    1       23.183 -20.779   6.688  0.00  0.00    +0.000 C 
BRANCH   9  10
ATOM     10  C   LIG    1       24.575 -21.423   6.632  0.00  0.00    +0.000 C 
BRANCH  10  11
ATOM     11  C   LIG    1       25.664 -20.386   6.907  0.00  0.00    +0.004 C 
BRANCH  11  12
ATOM     12  C   LIG    1       26.965 -20.671   6.151  0.00  0.00    +0.026 C 
BRANCH  12  14
ATOM     13  C   LIG    1       29.122 -19.579   6.821  0.00  0.00    +0.004 C 
ATOM     14  C   LIG    1       28.143 -20.460   7.061  0.00  0.00    -0.035 C 
ENDBRANCH  12  14
ENDBRANCH  11  12
ENDBRANCH  10  11
ENDBRANCH   9  10
ENDBRANCH   8   9
ENDBRANCH   7   8
ENDBRANCH   6   7
ENDBRANCH   5   6
ENDBRANCH   1   5
BRANCH   2  15
ATOM     15  C   LIG    1       24.475 -13.682   4.351  0.00  0.00    +0.182 C 
BRANCH  15  16
ATOM     16  C   LIG    1       24.141 -12.739   3.176  0.00  0.00    +0.327 C 
ATOM     17  O   LIG    1       24.237 -13.041   1.994  0.00  0.00    -0.249 OA
BRANCH  16  18
ATOM     18  O   LIG    1       23.758 -11.502   3.659  0.00  0.00    -0.467 OA
ATOM     19  C   LIG    1       23.481 -11.467   5.058  0.00  0.00    +0.280 C 
ENDBRANCH  16  18
ENDBRANCH  15  16
BRANCH  15  20
ATOM     20  C   LIG    1       25.941 -13.531   4.781  0.00  0.00    +0.036 C 
BRANCH  20  21
ATOM     21  C   LIG    1       27.044 -13.953   3.775  0.00  0.00    -0.015 C 
ATOM     22  C   LIG    1       27.555 -15.380   3.975  0.00  0.00    +0.007 C 
ATOM     23  C   LIG    1       28.251 -13.009   3.871  0.00  0.00    +0.007 C 
ENDBRANCH  20  21
ENDBRANCH  15  20
ENDBRANCH   2  15
TORSDOF 14
ENDMDL
MODEL 2
REMARK VINA RESULT:      -5.5      2.278      4.121
REMARK  Name = *****
REMARK                            x       y       z     vdW  Elec       q    Type
REMARK                         _______ _______ _______ _____ _____    ______ ____
ROOT
ATOM      1  C   LIG    1       26.362 -16.753   3.480  0.00  0.00    +0.214 C 
ATOM      2  N   LIG    1       25.893 -15.556   3.016  0.00  0.00    -0.302 N 
ATOM      3  H   LIG    1       24.885 -15.443   3.014  0.00  0.00    +0.149 HD
ATOM      4  O   LIG    1       27.560 -16.986   3.689  0.00  0.00    -0.276 OA
ENDROOT
BRANCH   1   5
ATOM      5  C   LIG    1       25.286 -17.792   3.701  0.00  0.00    +0.096 C 
BRANCH   5   6
ATOM      6  C   LIG    1       25.686 -19.151   3.131  0.00  0.00    +0.009 C 
BRANCH   6   7
ATOM      7  C   LIG    1       25.504 -20.243   4.186  0.00  0.00    +0.000 C 
BRANCH   7   8
ATOM      8  C   LIG    1       26.441 -20.069   5.383  0.00  0.00    +0.000 C 
BRANCH   8   9
ATOM      9  C   LIG    1       25.797 -20.494   6.708  0.00  0.00    +0.000 C 
BRANCH   9  10
ATOM     10  C   LIG    1       24.701 -21.558   6.554  0.00  0.00    +0.000 C 
BRANCH  10  11
ATOM     11  C   LIG    1       23.323 -20.963   6.843  0.00  0.00    +0.004 C 
BRANCH  11  12
ATOM     12  C   LIG    1       22.503 -20.710   5.575  0.00  0.00    +0.026 C 
BRANCH  12  14
ATOM     13  C   LIG    1       21.845 -18.707   4.215  0.00  0.00    +0.004 C 
ATOM     14  C   LIG    1       22.441 -19.235   5.291  0.00  0.00    -0.035 C 
ENDBRANCH  12  14
ENDBRANCH  11  12
ENDBRANCH  10  11
ENDBRANCH   9  10
ENDBRANCH   8   9
ENDBRANCH   7   8
ENDBRANCH   6   7
ENDBRANCH   5   6
ENDBRANCH   1   5
BRANCH   2  15
ATOM     15  C   LIG    1       26.711 -14.339   2.904  0.00  0.00    +0.182 C 
BRANCH  15  16
ATOM     16  C   LIG    1       27.230 -13.922   4.296  0.00  0.00    +0.327 C 
ATOM     17  O   LIG    1       26.558 -13.930   5.319  0.00  0.00    -0.249 OA
BRANCH  16  18
ATOM     18  O   LIG    1       28.545 -13.507   4.204  0.00  0.00    -0.467 OA
ATOM     19  C   LIG    1       28.805 -12.220   4.765  0.00  0.00    +0.280 C 
ENDBRANCH  16  18
ENDBRANCH  15  16
BRANCH  15  20
ATOM     20  C   LIG    1       25.954 -13.186   2.229  0.00  0.00    +0.036 C 
BRANCH  20  21
ATOM     21  C   LIG    1       24.740 -12.573   2.975  0.00  0.00    -0.015 C 
ATOM     22  C   LIG    1       23.640 -13.582   3.305  0.00  0.00    +0.007 C 
ATOM     23  C   LIG    1       24.107 -11.449   2.145  0.00  0.00    +0.007 C 
ENDBRANCH  20  21
ENDBRANCH  15  20
ENDBRANCH   2  15
TORSDOF 14
ENDMDL
MODEL 3
REMARK VINA RESULT:      -5.3      2.257      4.614
REMARK  Name = *****
REMARK                            x       y       z     vdW  Elec       q    Type
REMARK                         _______ _______ _______ _____ _____    ______ ____
ROOT
ATOM      1  C   LIG    1       27.014 -16.816   3.685  0.00  0.00    +0.214 C 
ATOM      2  N   LIG    1       27.569 -15.663   4.163  0.00  0.00    -0.302 N 
ATOM      3  H   LIG    1       28.451 -15.762   4.654  0.00  0.00    +0.149 HD
ATOM      4  O   LIG    1       26.027 -16.844   2.938  0.00  0.00    -0.276 OA
ENDROOT
BRANCH   1   5
ATOM      5  C   LIG    1       27.700 -18.075   4.165  0.00  0.00    +0.096 C 
BRANCH   5   6
ATOM      6  C   LIG    1       28.836 -17.764   5.137  0.00  0.00    +0.009 C 
BRANCH   6   7
ATOM      7  C   LIG    1       29.130 -18.980   6.017  0.00  0.00    +0.000 C 
BRANCH   7   8
ATOM      8  C   LIG    1       28.129 -20.116   5.803  0.00  0.00    +0.000 C 
BRANCH   8   9
ATOM      9  C   LIG    1       27.306 -20.426   7.060  0.00  0.00    +0.000 C 
BRANCH   9  10
ATOM     10  C   LIG    1       26.024 -21.223   6.783  0.00  0.00    +0.000 C 
BRANCH  10  11
ATOM     11  C   LIG    1       25.247 -20.613   5.617  0.00  0.00    +0.004 C 
BRANCH  11  12
ATOM     12  C   LIG    1       23.760 -20.416   5.927  0.00  0.00    +0.026 C 
BRANCH  12  14
ATOM     13  C   LIG    1       22.321 -18.725   4.758  0.00  0.00    +0.004 C 
ATOM     14  C   LIG    1       23.058 -19.843   4.728  0.00  0.00    -0.035 C 
ENDBRANCH  12  14
ENDBRANCH  11  12
ENDBRANCH  10  11
ENDBRANCH   9  10
ENDBRANCH   8   9
ENDBRANCH   7   8
ENDBRANCH   6   7
ENDBRANCH   5   6
ENDBRANCH   1   5
BRANCH   2  15
ATOM     15  C   LIG    1       27.202 -14.317   3.696  0.00  0.00    +0.182 C 
BRANCH  15  16
ATOM     16  C   LIG    1       28.386 -13.349   3.897  0.00  0.00    +0.327 C 
ATOM     17  O   LIG    1       29.421 -13.372   3.245  0.00  0.00    -0.249 OA
BRANCH  16  18
ATOM     18  O   LIG    1       28.115 -12.485   4.942  0.00  0.00    -0.467 OA
ATOM     19  C   LIG    1       29.262 -11.842   5.497  0.00  0.00    +0.280 C 
ENDBRANCH  16  18
ENDBRANCH  15  16
BRANCH  15  20
ATOM     20  C   LIG    1       25.932 -13.787   4.377  0.00  0.00    +0.036 C 
BRANCH  20  21
ATOM     21  C   LIG    1       24.586 -13.922   3.617  0.00  0.00    -0.015 C 
ATOM     22  C   LIG    1       23.928 -12.585   3.275  0.00  0.00    +0.007 C 
ATOM     23  C   LIG    1       23.581 -14.738   4.440  0.00  0.00    +0.007 C 
ENDBRANCH  20  21
ENDBRANCH  15  20
ENDBRANCH   2  15
TORSDOF 14
ENDMDL
MODEL 4
REMARK VINA RESULT:      -4.8      2.600      6.925
REMARK  Name = *****
REMARK                            x       y       z     vdW  Elec       q    Type
REMARK                         _______ _______ _______ _____ _____    ______ ____
ROOT
ATOM      1  C   LIG    1       22.234 -17.816   4.331  0.00  0.00    +0.214 C 
ATOM      2  N   LIG    1       23.367 -18.565   4.480  0.00  0.00    -0.302 N 
ATOM      3  H   LIG    1       24.083 -18.177   5.083  0.00  0.00    +0.149 HD
ATOM      4  O   LIG    1       21.214 -18.221   3.756  0.00  0.00    -0.276 OA
ENDROOT
BRANCH   1   5
ATOM      5  C   LIG    1       22.334 -16.426   4.915  0.00  0.00    +0.096 C 
BRANCH   5   6
ATOM      6  C   LIG    1       23.086 -15.474   3.986  0.00  0.00    +0.009 C 
BRANCH   6   7
ATOM      7  C   LIG    1       23.903 -14.471   4.802  0.00  0.00    +0.000 C 
BRANCH   7   8
ATOM      8  C   LIG    1       23.889 -13.068   4.192  0.00  0.00    +0.000 C 
BRANCH   8   9
ATOM      9  C   LIG    1       24.110 -13.078   2.674  0.00  0.00    +0.000 C 
BRANCH   9  10
ATOM     10  C   LIG    1       25.555 -12.780   2.254  0.00  0.00    +0.000 C 
BRANCH  10  11
ATOM     11  C   LIG    1       26.420 -14.037   2.358  0.00  0.00    +0.004 C 
BRANCH  11  12
ATOM     12  C   LIG    1       27.710 -13.810   3.150  0.00  0.00    +0.026 C 
BRANCH  12  14
ATOM     13  C   LIG    1       27.273 -13.377   5.583  0.00  0.00    +0.004 C 
ATOM     14  C   LIG    1       27.513 -14.231   4.580  0.00  0.00    -0.035 C 
ENDBRANCH  12  14
ENDBRANCH  11  12
ENDBRANCH  10  11
ENDBRANCH   9  10
ENDBRANCH   8   9
ENDBRANCH   7   8
ENDBRANCH   6   7
ENDBRANCH   5   6
ENDBRANCH   1   5
BRANCH   2  15
ATOM     15  C   LIG    1       23.452 -20.000   4.166  0.00  0.00    +0.182 C 
BRANCH  15  16
ATOM     16  C   LIG    1       22.598 -20.809   5.164  0.00  0.00    +0.327 C 
ATOM     17  O   LIG    1       21.675 -21.549   4.849  0.00  0.00    -0.249 OA
BRANCH  16  18
ATOM     18  O   LIG    1       23.006 -20.543   6.458  0.00  0.00    -0.467 OA
ATOM     19  C   LIG    1       23.794 -21.570   7.058  0.00  0.00    +0.280 C 
ENDBRANCH  16  18
ENDBRANCH  15  16
BRANCH  15  20
ATOM     20  C   LIG    1       24.901 -20.508   4.141  0.00  0.00    +0.036 C 
BRANCH  20  21
ATOM     21  C   LIG    1       26.005 -19.596   4.739  0.00  0.00    -0.015 C 
ATOM     22  C   LIG    1       26.561 -18.566   3.756  0.00  0.00    +0.007 C 
ATOM     23  C   LIG    1       27.182 -20.438   5.249  0.00  0.00    +0.007 C 
ENDBRANCH  20  21
ENDBRANCH  15  20
ENDBRANCH   2  15
TORSDOF 14
ENDMDL
MODEL 5
REMARK VINA RESULT:      -4.6      1.390      2.598
REMARK  Name = *****
REMARK                            x       y       z     vdW  Elec       q    Type
REMARK                         _______ _______ _______ _____ _____    ______ ____
ROOT
ATOM      1  C   LIG    1       23.119 -16.084   4.379  0.00  0.00    +0.214 C 
ATOM      2  N   LIG    1       24.287 -15.961   3.680  0.00  0.00    -0.302 N 
ATOM      3  H   LIG    1       24.470 -16.677   2.987  0.00  0.00    +0.149 HD
ATOM      4  O   LIG    1       22.682 -15.214   5.144  0.00  0.00    -0.276 OA
ENDROOT
BRANCH   1   5
ATOM      5  C   LIG    1       22.403 -17.396   4.154  0.00  0.00    +0.096 C 
BRANCH   5   6
ATOM      6  C   LIG    1       22.679 -18.391   5.280  0.00  0.00    +0.009 C 
BRANCH   6   7
ATOM      7  C   LIG    1       22.889 -19.794   4.708  0.00  0.00    +0.000 C 
BRANCH   7   8
ATOM      8  C   LIG    1       22.622 -20.894   5.737  0.00  0.00    +0.000 C 
BRANCH   8   9
ATOM      9  C   LIG    1       23.519 -20.779   6.976  0.00  0.00    +0.000 C 
BRANCH   9  10
ATOM     10  C   LIG    1       24.859 -21.515   6.844  0.00  0.00    +0.000 C 
BRANCH  10  11
ATOM     11  C   LIG    1       26.030 -20.555   7.061  0.00  0.00    +0.004 C 
BRANCH  11  12
ATOM     12  C   LIG    1       27.390 -21.257   7.039  0.00  0.00    +0.026 C 
BRANCH  12  14
ATOM     13  C   LIG    1       29.215 -19.535   7.024  0.00  0.00    +0.004 C 
ATOM     14  C   LIG    1       28.409 -20.379   6.367  0.00  0.00    -0.035 C 
ENDBRANCH  12  14
ENDBRANCH  11  12
ENDBRANCH  10  11
ENDBRANCH   9  10
ENDBRANCH   8   9
ENDBRANCH   7   8
ENDBRANCH   6   7
ENDBRANCH   5   6
ENDBRANCH   1   5
BRANCH   2  15
ATOM     15  C   LIG    1       25.062 -14.714   3.585  0.00  0.00    +0.182 C 
BRANCH  15  16
ATOM     16  C   LIG    1       26.564 -15.036   3.443  0.00  0.00    +0.327 C 
ATOM     17  O   LIG    1       27.095 -16.063   3.846  0.00  0.00    -0.249 OA
BRANCH  16  18
ATOM     18  O   LIG    1       27.217 -13.982   2.832  0.00  0.00    -0.467 OA
ATOM     19  C   LIG    1       28.279 -13.414   3.597  0.00  0.00    +0.280 C 
ENDBRANCH  16  18
ENDBRANCH  15  16
BRANCH  15  20
ATOM     20  C   LIG    1       24.808 -13.775   4.773  0.00  0.00    +0.036 C 
BRANCH  20  21
ATOM     21  C   LIG    1       24.600 -12.265   4.479  0.00  0.00    -0.015 C 
ATOM     22  C   LIG    1       23.672 -11.562   5.469  0.00  0.00    +0.007 C 
ATOM     23  C   LIG    1       24.020 -12.064   3.073  0.00  0.00    +0.007 C 
ENDBRANCH  20  21
ENDBRANCH  15  20
ENDBRANCH   2  15
TORSDOF 14
ENDMDL
MODEL 6
REMARK VINA RESULT:      -4.3      1.502      4.322
REMARK  Name = *****
REMARK                            x       y       z     vdW  Elec       q    Type
REMARK                         _______ _______ _______ _____ _____    ______ ____
ROOT
ATOM      1  C   LIG    1       26.580 -14.882   3.282  0.00  0.00    +0.214 C 
ATOM      2  N   LIG    1       25.424 -14.685   3.983  0.00  0.00    -0.302 N 
ATOM      3  H   LIG    1       25.483 -14.814   4.986  0.00  0.00    +0.149 HD
ATOM      4  O   LIG    1       26.708 -14.615   2.079  0.00  0.00    -0.276 OA
ENDROOT
BRANCH   1   5
ATOM      5  C   LIG    1       27.702 -15.481   4.101  0.00  0.00    +0.096 C 
BRANCH   5   6
ATOM      6  C   LIG    1       27.614 -17.005   4.151  0.00  0.00    +0.009 C 
BRANCH   6   7
ATOM      7  C   LIG    1       28.751 -17.573   5.002  0.00  0.00    +0.000 C 
BRANCH   7   8
ATOM      8  C   LIG    1       28.628 -19.083   5.215  0.00  0.00    +0.000 C 
BRANCH   8   9
ATOM      9  C   LIG    1       27.171 -19.553   5.307  0.00  0.00    +0.000 C 
BRANCH   9  10
ATOM     10  C   LIG    1       26.854 -20.349   6.580  0.00  0.00    +0.000 C 
BRANCH  10  11
ATOM     11  C   LIG    1       25.497 -21.045   6.461  0.00  0.00    +0.004 C 
BRANCH  11  12
ATOM     12  C   LIG    1       25.004 -21.149   5.015  0.00  0.00    +0.026 C 
BRANCH  12  14
ATOM     13  C   LIG    1       22.833 -20.292   5.936  0.00  0.00    +0.004 C 
ATOM     14  C   LIG    1       23.639 -20.530   4.894  0.00  0.00    -0.035 C 
ENDBRANCH  12  14
ENDBRANCH  11  12
ENDBRANCH  10  11
ENDBRANCH   9  10
ENDBRANCH   8   9
ENDBRANCH   7   8
ENDBRANCH   6   7
ENDBRANCH   5   6
ENDBRANCH   1   5
BRANCH   2  15
ATOM     15  C   LIG    1       24.262 -13.948   3.462  0.00  0.00    +0.182 C 
BRANCH  15  16
ATOM     16  C   LIG    1       24.260 -12.508   4.016  0.00  0.00    +0.327 C 
ATOM     17  O   LIG    1       24.669 -12.189   5.124  0.00  0.00    -0.249 OA
BRANCH  16  18
ATOM     18  O   LIG    1       23.697 -11.648   3.091  0.00  0.00    -0.467 OA
ATOM     19  C   LIG    1       24.441 -11.501   1.883  0.00  0.00    +0.280 C 
ENDBRANCH  16  18
ENDBRANCH  15  16
BRANCH  15  20
ATOM     20  C   LIG    1       22.935 -14.658   3.767  0.00  0.00    +0.036 C 
BRANCH  20  21
ATOM     21  C   LIG    1       22.928 -15.749   4.871  0.00  0.00    -0.015 C 
ATOM     22  C   LIG    1       22.413 -17.108   4.399  0.00  0.00    +0.007 C 
ATOM     23  C   LIG    1       22.061 -15.309   6.058  0.00  0.00    +0.007 C 
ENDBRANCH  20  21
ENDBRANCH  15  20
ENDBRANCH   2  15
TORSDOF 14
ENDMDL
MODEL 7
REMARK VINA RESULT:      -4.2      2.887      7.993
REMARK  Name = *****
REMARK                            x       y       z     vdW  Elec       q    Type
REMARK                         _______ _______ _______ _____ _____    ______ ____
ROOT
ATOM      1  C   LIG    1       25.809 -17.953   3.801  0.00  0.00    +0.214 C 
ATOM      2  N   LIG    1       26.477 -18.914   4.505  0.00  0.00    -0.302 N 
ATOM      3  H   LIG    1       27.478 -18.783   4.600  0.00  0.00    +0.149 HD
ATOM      4  O   LIG    1       24.574 -17.888   3.728  0.00  0.00    -0.276 OA
ENDROOT
BRANCH   1   5
ATOM      5  C   LIG    1       26.713 -16.972   3.089  0.00  0.00    +0.096 C 
BRANCH   5   6
ATOM      6  C   LIG    1       26.085 -15.582   3.006  0.00  0.00    +0.009 C 
BRANCH   6   7
ATOM      7  C   LIG    1       27.143 -14.543   2.632  0.00  0.00    +0.000 C 
BRANCH   7   8
ATOM      8  C   LIG    1       27.587 -13.699   3.828  0.00  0.00    +0.000 C 
BRANCH   8   9
ATOM      9  C   LIG    1       26.560 -13.696   4.967  0.00  0.00    +0.000 C 
BRANCH   9  10
ATOM     10  C   LIG    1       25.483 -12.611   4.830  0.00  0.00    +0.000 C 
BRANCH  10  11
ATOM     11  C   LIG    1       24.105 -13.238   4.615  0.00  0.00    +0.004 C 
BRANCH  11  12
ATOM     12  C   LIG    1       23.709 -13.316   3.138  0.00  0.00    +0.026 C 
BRANCH  12  14
ATOM     13  C   LIG    1       25.070 -11.590   1.928  0.00  0.00    +0.004 C 
ATOM     14  C   LIG    1       23.914 -11.980   2.481  0.00  0.00    -0.035 C 
ENDBRANCH  12  14
ENDBRANCH  11  12
ENDBRANCH  10  11
ENDBRANCH   9  10
ENDBRANCH   8   9
ENDBRANCH   7   8
ENDBRANCH   6   7
ENDBRANCH   5   6
ENDBRANCH   1   5
BRANCH   2  15
ATOM     15  C   LIG    1       25.829 -19.860   5.426  0.00  0.00    +0.182 C 
BRANCH  15  16
ATOM     16  C   LIG    1       26.890 -20.542   6.315  0.00  0.00    +0.327 C 
ATOM     17  O   LIG    1       26.705 -21.571   6.951  0.00  0.00    -0.249 OA
BRANCH  16  18
ATOM     18  O   LIG    1       28.056 -19.799   6.311  0.00  0.00    -0.467 OA
ATOM     19  C   LIG    1       29.245 -20.555   6.533  0.00  0.00    +0.280 C 
ENDBRANCH  16  18
ENDBRANCH  15  16
BRANCH  15  20
ATOM     20  C   LIG    1       24.973 -20.900   4.689  0.00  0.00    +0.036 C 
BRANCH  20  21
ATOM     21  C   LIG    1       23.581 -21.251   5.279  0.00  0.00    -0.015 C 
ATOM     22  C   LIG    1       22.406 -20.722   4.457  0.00  0.00    +0.007 C 
ATOM     23  C   LIG    1       23.442 -20.693   6.702  0.00  0.00    +0.007 C 
ENDBRANCH  20  21
ENDBRANCH  15  20
ENDBRANCH   2  15
TORSDOF 14
ENDMDL
MODEL 8
REMARK VINA RESULT:      -4.1      3.558      7.131
REMARK  Name = *****
REMARK                            x       y       z     vdW  Elec       q    Type
REMARK                         _______ _______ _______ _____ _____    ______ ____
ROOT
ATOM      1  C   LIG    1       26.589 -20.281   5.877  0.00  0.00    +0.214 C 
ATOM      2  N   LIG    1       25.819 -19.628   4.957  0.00  0.00    -0.302 N 
ATOM      3  H   LIG    1       26.296 -19.310   4.120  0.00  0.00    +0.149 HD
ATOM      4  O   LIG    1       26.129 -20.859   6.871  0.00  0.00    -0.276 OA
ENDROOT
BRANCH   1   5
ATOM      5  C   LIG    1       28.073 -20.222   5.590  0.00  0.00    +0.096 C 
BRANCH   5   6
ATOM      6  C   LIG    1       28.839 -19.527   6.714  0.00  0.00    +0.009 C 
BRANCH   6   7
ATOM      7  C   LIG    1       29.358 -18.168   6.241  0.00  0.00    +0.000 C 
BRANCH   7   8
ATOM      8  C   LIG    1       29.111 -17.931   4.750  0.00  0.00    +0.000 C 
BRANCH   8   9
ATOM      9  C   LIG    1       28.449 -16.576   4.466  0.00  0.00    +0.000 C 
BRANCH   9  10
ATOM     10  C   LIG    1       27.088 -16.684   3.766  0.00  0.00    +0.000 C 
BRANCH  10  11
ATOM     11  C   LIG    1       26.683 -15.341   3.157  0.00  0.00    +0.004 C 
BRANCH  11  12
ATOM     12  C   LIG    1       25.385 -14.784   3.747  0.00  0.00    +0.026 C 
BRANCH  12  14
ATOM     13  C   LIG    1       26.941 -13.421   5.168  0.00  0.00    +0.004 C 
ATOM     14  C   LIG    1       25.699 -13.731   4.773  0.00  0.00    -0.035 C 
ENDBRANCH  12  14
ENDBRANCH  11  12
ENDBRANCH  10  11
ENDBRANCH   9  10
ENDBRANCH   8   9
ENDBRANCH   7   8
ENDBRANCH   6   7
ENDBRANCH   5   6
ENDBRANCH   1   5
BRANCH   2  15
ATOM     15  C   LIG    1       24.350 -19.701   4.912  0.00  0.00    +0.182 C 
BRANCH  15  16
ATOM     16  C   LIG    1       23.908 -21.055   4.320  0.00  0.00    +0.327 C 
ATOM     17  O   LIG    1       24.399 -21.572   3.326  0.00  0.00    -0.249 OA
BRANCH  16  18
ATOM     18  O   LIG    1       22.857 -21.570   5.056  0.00  0.00    -0.467 OA
ATOM     19  C   LIG    1       23.062 -21.571   6.468  0.00  0.00    +0.280 C 
ENDBRANCH  16  18
ENDBRANCH  15  16
BRANCH  15  20
ATOM     20  C   LIG    1       23.730 -18.529   4.137  0.00  0.00    +0.036 C 
BRANCH  20  21
ATOM     21  C   LIG    1       22.355 -17.987   4.609  0.00  0.00    -0.015 C 
ATOM     22  C   LIG    1       21.173 -18.474   3.771  0.00  0.00    +0.007 C 
ATOM     23  C   LIG    1       22.342 -16.453   4.585  0.00  0.00    +0.007 C 
ENDBRANCH  20  21
ENDBRANCH  15  20
ENDBRANCH   2  15
TORSDOF 14
ENDMDL
MODEL 9
REMARK VINA RESULT:      -3.7      2.645      7.009
REMARK  Name = *****
REMARK                            x       y       z     vdW  Elec       q    Type
REMARK                         _______ _______ _______ _____ _____    ______ ____
ROOT
ATOM      1  C   LIG    1       22.376 -17.957   4.486  0.00  0.00    +0.214 C 
ATOM      2  N   LIG    1       23.415 -18.731   4.918  0.00  0.00    -0.302 N 
ATOM      3  H   LIG    1       24.011 -18.322   5.629  0.00  0.00    +0.149 HD
ATOM      4  O   LIG    1       21.477 -18.370   3.741  0.00  0.00    -0.276 OA
ENDROOT
BRANCH   1   5
ATOM      5  C   LIG    1       22.423 -16.530   4.983  0.00  0.00    +0.096 C 
BRANCH   5   6
ATOM      6  C   LIG    1       22.833 -15.559   3.878  0.00  0.00    +0.009 C 
BRANCH   6   7
ATOM      7  C   LIG    1       23.814 -14.520   4.422  0.00  0.00    +0.000 C 
BRANCH   7   8
ATOM      8  C   LIG    1       24.263 -13.520   3.355  0.00  0.00    +0.000 C 
BRANCH   8   9
ATOM      9  C   LIG    1       25.513 -13.982   2.596  0.00  0.00    +0.000 C 
BRANCH   9  10
ATOM     10  C   LIG    1       26.222 -15.182   3.239  0.00  0.00    +0.000 C 
BRANCH  10  11
ATOM     11  C   LIG    1       27.539 -14.751   3.886  0.00  0.00    +0.004 C 
BRANCH  11  12
ATOM     12  C   LIG    1       27.341 -13.777   5.051  0.00  0.00    +0.026 C 
BRANCH  12  14
ATOM     13  C   LIG    1       29.138 -12.465   3.890  0.00  0.00    +0.004 C 
ATOM     14  C   LIG    1       28.281 -12.612   4.909  0.00  0.00    -0.035 C 
ENDBRANCH  12  14
ENDBRANCH  11  12
ENDBRANCH  10  11
ENDBRANCH   9  10
ENDBRANCH   8   9
ENDBRANCH   7   8
ENDBRANCH   6   7
ENDBRANCH   5   6
ENDBRANCH   1   5
BRANCH   2  15
ATOM     15  C   LIG    1       23.492 -20.188   4.727  0.00  0.00    +0.182 C 
BRANCH  15  16
ATOM     16  C   LIG    1       22.763 -20.909   5.880  0.00  0.00    +0.327 C 
ATOM     17  O   LIG    1       23.142 -20.917   7.044  0.00  0.00    -0.249 OA
BRANCH  16  18
ATOM     18  O   LIG    1       21.651 -21.571   5.393  0.00  0.00    -0.467 OA
ATOM     19  C   LIG    1       21.189 -21.107   4.126  0.00  0.00    +0.280 C 
ENDBRANCH  16  18
ENDBRANCH  15  16
BRANCH  15  20
ATOM     20  C   LIG    1       24.939 -20.684   4.592  0.00  0.00    +0.036 C 
BRANCH  20  21
ATOM     21  C   LIG    1       25.965 -20.249   5.672  0.00  0.00    -0.015 C 
ATOM     22  C   LIG    1       27.271 -19.697   5.103  0.00  0.00    +0.007 C 
ATOM     23  C   LIG    1       26.317 -21.428   6.588  0.00  0.00    +0.007 C 
ENDBRANCH  20  21
ENDBRANCH  15  20
ENDBRANCH   2  15
TORSDOF 14
ENDMDL
