MODEL 1
REMARK VINA RESULT:      -9.4      0.000      0.000
REMARK  Name = *****
REMARK                            x       y       z     vdW  Elec       q    Type
REMARK                         _______ _______ _______ _____ _____    ______ ____
ROOT
ATOM      1  C   LIG    1       25.461 -21.313   6.555  0.00  0.00    +0.120 C 
ATOM      2  C   LIG    1       26.813 -20.638   6.629  0.00  0.00    -0.006 A 
ATOM      3  C   LIG    1       27.118 -20.343   7.950  0.00  0.00    -0.014 A 
ATOM      4  C   LIG    1       28.307 -19.725   8.307  0.00  0.00    +0.025 A 
ATOM      5  C   LIG    1       29.226 -19.394   7.297  0.00  0.00    +0.052 A 
ATOM      6  C   LIG    1       28.923 -19.712   5.954  0.00  0.00    +0.019 A 
ATOM      7  C   LIG    1       26.018 -20.801   8.829  0.00  0.00    +0.197 C 
ATOM      8  C   LIG    1       27.719 -20.337   5.618  0.00  0.00    +0.008 A 
ATOM      9  O   LIG    1       25.000 -21.315   7.945  0.00  0.00    -0.359 OA
ENDROOT
BRANCH   1  10
ATOM     10  C   LIG    1       24.458 -20.499   5.721  0.00  0.00    -0.011 A 
ATOM     11  C   LIG    1       24.827 -19.977   4.463  0.00  0.00    +0.009 A 
ATOM     12  C   LIG    1       23.941 -19.206   3.704  0.00  0.00    +0.039 A 
ATOM     13  C   LIG    1       22.671 -18.946   4.194  0.00  0.00    +0.123 A 
ATOM     14  F   LIG    1       21.826 -18.191   3.479  0.00  0.00    -0.205 F 
ATOM     15  C   LIG    1       22.261 -19.470   5.412  0.00  0.00    +0.039 A 
ATOM     16  C   LIG    1       23.142 -20.262   6.158  0.00  0.00    +0.009 A 
ENDBRANCH   1  10
BRANCH   5  17
ATOM     17  C   LIG    1       30.465 -18.723   7.627  0.00  0.00    +0.099 C 
ATOM     18  N   LIG    1       31.448 -18.185   7.878  0.00  0.00    -0.191 NA
ENDBRANCH   5  17
BRANCH   1  19
ATOM     19  C   LIG    1       25.636 -22.808   6.158  0.00  0.00    +0.046 C 
BRANCH  19  20
ATOM     20  C   LIG    1       24.679 -23.799   6.848  0.00  0.00    +0.019 C 
BRANCH  20  21
ATOM     21  C   LIG    1       24.421 -25.073   6.005  0.00  0.00    +0.084 C 
BRANCH  21  23
ATOM     22  C   LIG    1       24.366 -27.506   6.078  0.00  0.00    +0.104 C 
ATOM     23  N   LIG    1       25.097 -26.298   6.480  0.00  0.00    -0.308 NA
ATOM     24  C   LIG    1       26.482 -26.386   6.026  0.00  0.00    +0.104 C 
ENDBRANCH  21  23
ENDBRANCH  20  21
ENDBRANCH  19  20
ENDBRANCH   1  19
TORSDOF 6
ENDMDL
MODEL 2
REMARK VINA RESULT:      -8.6      3.117      6.404
REMARK  Name = *****
REMARK                            x       y       z     vdW  Elec       q    Type
REMARK                         _______ _______ _______ _____ _____    ______ ____
ROOT
ATOM      1  C   LIG    1       25.452 -22.515   6.996  0.00  0.00    +0.120 C 
ATOM      2  C   LIG    1       24.668 -21.594   6.086  0.00  0.00    -0.006 A 
ATOM      3  C   LIG    1       23.741 -20.879   6.830  0.00  0.00    -0.014 A 
ATOM      4  C   LIG    1       22.890 -19.953   6.245  0.00  0.00    +0.025 A 
ATOM      5  C   LIG    1       22.978 -19.735   4.860  0.00  0.00    +0.052 A 
ATOM      6  C   LIG    1       23.937 -20.448   4.107  0.00  0.00    +0.019 A 
ATOM      7  C   LIG    1       23.847 -21.260   8.257  0.00  0.00    +0.197 C 
ATOM      8  C   LIG    1       24.785 -21.377   4.718  0.00  0.00    +0.008 A 
ATOM      9  O   LIG    1       24.839 -22.305   8.309  0.00  0.00    -0.359 OA
ENDROOT
BRANCH   1  10
ATOM     10  C   LIG    1       25.265 -23.993   6.614  0.00  0.00    -0.011 A 
ATOM     11  C   LIG    1       26.382 -24.846   6.478  0.00  0.00    +0.009 A 
ATOM     12  C   LIG    1       26.237 -26.183   6.099  0.00  0.00    +0.039 A 
ATOM     13  C   LIG    1       24.970 -26.689   5.850  0.00  0.00    +0.123 A 
ATOM     14  F   LIG    1       24.829 -27.965   5.468  0.00  0.00    -0.205 F 
ATOM     15  C   LIG    1       23.846 -25.890   6.005  0.00  0.00    +0.039 A 
ATOM     16  C   LIG    1       23.993 -24.556   6.409  0.00  0.00    +0.009 A 
ENDBRANCH   1  10
BRANCH   5  17
ATOM     17  C   LIG    1       22.089 -18.796   4.209  0.00  0.00    +0.099 C 
ATOM     18  N   LIG    1       21.375 -18.055   3.701  0.00  0.00    -0.191 NA
ENDBRANCH   5  17
BRANCH   1  19
ATOM     19  C   LIG    1       26.920 -22.014   7.120  0.00  0.00    +0.046 C 
BRANCH  19  20
ATOM     20  C   LIG    1       27.090 -20.552   7.579  0.00  0.00    +0.019 C 
BRANCH  20  21
ATOM     21  C   LIG    1       28.475 -19.963   7.211  0.00  0.00    +0.084 C 
BRANCH  21  23
ATOM     22  C   LIG    1       30.450 -20.845   8.327  0.00  0.00    +0.104 C 
ATOM     23  N   LIG    1       29.418 -19.802   8.337  0.00  0.00    -0.308 NA
ATOM     24  C   LIG    1       30.048 -18.484   8.356  0.00  0.00    +0.104 C 
ENDBRANCH  21  23
ENDBRANCH  20  21
ENDBRANCH  19  20
ENDBRANCH   1  19
TORSDOF 6
ENDMDL
MODEL 3
REMARK VINA RESULT:      -8.3      2.830      4.959
REMARK  Name = *****
REMARK                            x       y       z     vdW  Elec       q    Type
REMARK                         _______ _______ _______ _____ _____    ______ ____
ROOT
ATOM      1  C   LIG    1       25.546 -21.709   6.483  0.00  0.00    +0.120 C 
ATOM      2  C   LIG    1       26.954 -21.264   6.812  0.00  0.00    -0.006 A 
ATOM      3  C   LIG    1       27.383 -20.335   5.875  0.00  0.00    -0.014 A 
ATOM      4  C   LIG    1       28.640 -19.754   5.942  0.00  0.00    +0.025 A 
ATOM      5  C   LIG    1       29.499 -20.119   6.993  0.00  0.00    +0.052 A 
ATOM      6  C   LIG    1       29.054 -21.051   7.957  0.00  0.00    +0.019 A 
ATOM      7  C   LIG    1       26.309 -20.095   4.884  0.00  0.00    +0.197 C 
ATOM      8  C   LIG    1       27.781 -21.623   7.871  0.00  0.00    +0.008 A 
ATOM      9  O   LIG    1       25.242 -20.998   5.239  0.00  0.00    -0.359 OA
ENDROOT
BRANCH   1  10
ATOM     10  C   LIG    1       25.473 -23.219   6.199  0.00  0.00    -0.011 A 
ATOM     11  C   LIG    1       25.909 -24.153   7.164  0.00  0.00    +0.009 A 
ATOM     12  C   LIG    1       25.883 -25.528   6.912  0.00  0.00    +0.039 A 
ATOM     13  C   LIG    1       25.419 -25.989   5.690  0.00  0.00    +0.123 A 
ATOM     14  F   LIG    1       25.411 -27.305   5.438  0.00  0.00    -0.205 F 
ATOM     15  C   LIG    1       24.952 -25.103   4.729  0.00  0.00    +0.039 A 
ATOM     16  C   LIG    1       24.957 -23.728   4.994  0.00  0.00    +0.009 A 
ENDBRANCH   1  10
BRANCH   5  17
ATOM     17  C   LIG    1       30.829 -19.555   7.080  0.00  0.00    +0.099 C 
ATOM     18  N   LIG    1       31.889 -19.120   7.152  0.00  0.00    -0.191 NA
ENDBRANCH   5  17
BRANCH   1  19
ATOM     19  C   LIG    1       24.554 -21.158   7.548  0.00  0.00    +0.046 C 
BRANCH  19  20
ATOM     20  C   LIG    1       23.103 -20.956   7.068  0.00  0.00    +0.019 C 
BRANCH  20  21
ATOM     21  C   LIG    1       22.886 -19.592   6.366  0.00  0.00    +0.084 C 
BRANCH  21  23
ATOM     22  C   LIG    1       22.855 -18.907   4.030  0.00  0.00    +0.104 C 
ATOM     23  N   LIG    1       22.151 -19.646   5.086  0.00  0.00    -0.308 NA
ATOM     24  C   LIG    1       21.894 -21.014   4.643  0.00  0.00    +0.104 C 
ENDBRANCH  21  23
ENDBRANCH  20  21
ENDBRANCH  19  20
ENDBRANCH   1  19
TORSDOF 6
ENDMDL
MODEL 4
REMARK VINA RESULT:      -7.0      2.757      6.008
REMARK  Name = *****
REMARK                            x       y       z     vdW  Elec       q    Type
REMARK                         _______ _______ _______ _____ _____    ______ ____
ROOT
ATOM      1  C   LIG    1       25.536 -21.350   7.137  0.00  0.00    +0.120 C 
ATOM      2  C   LIG    1       25.397 -22.700   6.468  0.00  0.00    -0.006 A 
ATOM      3  C   LIG    1       25.531 -23.707   7.413  0.00  0.00    -0.014 A 
ATOM      4  C   LIG    1       25.439 -25.048   7.071  0.00  0.00    +0.025 A 
ATOM      5  C   LIG    1       25.199 -25.389   5.729  0.00  0.00    +0.052 A 
ATOM      6  C   LIG    1       25.043 -24.362   4.772  0.00  0.00    +0.019 A 
ATOM      7  C   LIG    1       25.755 -23.110   8.749  0.00  0.00    +0.197 C 
ATOM      8  C   LIG    1       25.138 -23.017   5.139  0.00  0.00    +0.008 A 
ATOM      9  O   LIG    1       25.827 -21.686   8.533  0.00  0.00    -0.359 OA
ENDROOT
BRANCH   1  10
ATOM     10  C   LIG    1       26.728 -20.554   6.580  0.00  0.00    -0.011 A 
ATOM     11  C   LIG    1       27.936 -20.469   7.306  0.00  0.00    +0.009 A 
ATOM     12  C   LIG    1       29.020 -19.722   6.833  0.00  0.00    +0.039 A 
ATOM     13  C   LIG    1       28.911 -19.050   5.626  0.00  0.00    +0.123 A 
ATOM     14  F   LIG    1       29.940 -18.318   5.180  0.00  0.00    -0.205 F 
ATOM     15  C   LIG    1       27.751 -19.137   4.869  0.00  0.00    +0.039 A 
ATOM     16  C   LIG    1       26.676 -19.905   5.334  0.00  0.00    +0.009 A 
ENDBRANCH   1  10
BRANCH   5  17
ATOM     17  C   LIG    1       25.124 -26.778   5.329  0.00  0.00    +0.099 C 
ATOM     18  N   LIG    1       25.074 -27.883   5.020  0.00  0.00    -0.191 NA
ENDBRANCH   5  17
BRANCH   1  19
ATOM     19  C   LIG    1       24.162 -20.619   7.148  0.00  0.00    +0.046 C 
BRANCH  19  20
ATOM     20  C   LIG    1       22.977 -21.416   6.568  0.00  0.00    +0.019 C 
BRANCH  20  21
ATOM     21  C   LIG    1       22.407 -20.788   5.272  0.00  0.00    +0.084 C 
BRANCH  21  23
ATOM     22  C   LIG    1       23.852 -19.882   3.535  0.00  0.00    +0.104 C 
ATOM     23  N   LIG    1       23.122 -19.594   4.775  0.00  0.00    -0.308 NA
ATOM     24  C   LIG    1       22.234 -18.453   4.571  0.00  0.00    +0.104 C 
ENDBRANCH  21  23
ENDBRANCH  20  21
ENDBRANCH  19  20
ENDBRANCH   1  19
TORSDOF 6
ENDMDL
MODEL 5
REMARK VINA RESULT:      -6.9      3.022      6.806
REMARK  Name = *****
REMARK                            x       y       z     vdW  Elec       q    Type
REMARK                         _______ _______ _______ _____ _____    ______ ____
ROOT
ATOM      1  C   LIG    1       24.562 -21.783   5.837  0.00  0.00    +0.120 C 
ATOM      2  C   LIG    1       24.669 -23.292   5.822  0.00  0.00    -0.006 A 
ATOM      3  C   LIG    1       23.605 -23.844   6.520  0.00  0.00    -0.014 A 
ATOM      4  C   LIG    1       23.452 -25.215   6.658  0.00  0.00    +0.025 A 
ATOM      5  C   LIG    1       24.404 -26.064   6.068  0.00  0.00    +0.052 A 
ATOM      6  C   LIG    1       25.476 -25.502   5.341  0.00  0.00    +0.019 A 
ATOM      7  C   LIG    1       22.729 -22.764   7.029  0.00  0.00    +0.197 C 
ATOM      8  C   LIG    1       25.610 -24.116   5.213  0.00  0.00    +0.008 A 
ATOM      9  O   LIG    1       23.378 -21.529   6.662  0.00  0.00    -0.359 OA
ENDROOT
BRANCH   1  10
ATOM     10  C   LIG    1       25.771 -21.128   6.525  0.00  0.00    -0.011 A 
ATOM     11  C   LIG    1       26.819 -20.572   5.759  0.00  0.00    +0.009 A 
ATOM     12  C   LIG    1       27.943 -20.003   6.365  0.00  0.00    +0.039 A 
ATOM     13  C   LIG    1       28.035 -19.982   7.748  0.00  0.00    +0.123 A 
ATOM     14  F   LIG    1       29.120 -19.455   8.332  0.00  0.00    -0.205 F 
ATOM     15  C   LIG    1       27.011 -20.490   8.534  0.00  0.00    +0.039 A 
ATOM     16  C   LIG    1       25.875 -21.037   7.924  0.00  0.00    +0.009 A 
ENDBRANCH   1  10
BRANCH   5  17
ATOM     17  C   LIG    1       24.293 -27.500   6.214  0.00  0.00    +0.099 C 
ATOM     18  N   LIG    1       24.210 -28.638   6.341  0.00  0.00    -0.191 NA
ENDBRANCH   5  17
BRANCH   1  19
ATOM     19  C   LIG    1       24.213 -21.262   4.412  0.00  0.00    +0.046 C 
BRANCH  19  20
ATOM     20  C   LIG    1       22.923 -20.425   4.304  0.00  0.00    +0.019 C 
BRANCH  20  21
ATOM     21  C   LIG    1       23.198 -18.901   4.253  0.00  0.00    +0.084 C 
BRANCH  21  23
ATOM     22  C   LIG    1       22.418 -16.616   4.567  0.00  0.00    +0.104 C 
ATOM     23  N   LIG    1       22.043 -18.036   4.571  0.00  0.00    -0.308 NA
ATOM     24  C   LIG    1       20.916 -18.251   3.667  0.00  0.00    +0.104 C 
ENDBRANCH  21  23
ENDBRANCH  20  21
ENDBRANCH  19  20
ENDBRANCH   1  19
TORSDOF 6
ENDMDL
MODEL 6
REMARK VINA RESULT:      -6.4      1.346      5.761
REMARK  Name = *****
REMARK                            x       y       z     vdW  Elec       q    Type
REMARK                         _______ _______ _______ _____ _____    ______ ____
ROOT
ATOM      1  C   LIG    1       25.137 -21.674   6.823  0.00  0.00    +0.120 C 
ATOM      2  C   LIG    1       24.710 -23.115   6.648  0.00  0.00    -0.006 A 
ATOM      3  C   LIG    1       25.813 -23.896   6.336  0.00  0.00    -0.014 A 
ATOM      4  C   LIG    1       25.707 -25.263   6.128  0.00  0.00    +0.025 A 
ATOM      5  C   LIG    1       24.444 -25.868   6.241  0.00  0.00    +0.052 A 
ATOM      6  C   LIG    1       23.325 -25.075   6.578  0.00  0.00    +0.019 A 
ATOM      7  C   LIG    1       27.027 -23.049   6.292  0.00  0.00    +0.197 C 
ATOM      8  C   LIG    1       23.455 -23.699   6.785  0.00  0.00    +0.008 A 
ATOM      9  O   LIG    1       26.570 -21.700   6.518  0.00  0.00    -0.359 OA
ENDROOT
BRANCH   1  10
ATOM     10  C   LIG    1       24.451 -20.744   5.809  0.00  0.00    -0.011 A 
ATOM     11  C   LIG    1       23.137 -20.281   6.035  0.00  0.00    +0.009 A 
ATOM     12  C   LIG    1       22.482 -19.463   5.109  0.00  0.00    +0.039 A 
ATOM     13  C   LIG    1       23.135 -19.095   3.943  0.00  0.00    +0.123 A 
ATOM     14  F   LIG    1       22.503 -18.327   3.045  0.00  0.00    -0.205 F 
ATOM     15  C   LIG    1       24.439 -19.503   3.701  0.00  0.00    +0.039 A 
ATOM     16  C   LIG    1       25.100 -20.303   4.642  0.00  0.00    +0.009 A 
ENDBRANCH   1  10
BRANCH   5  17
ATOM     17  C   LIG    1       24.289 -27.288   6.003  0.00  0.00    +0.099 C 
ATOM     18  N   LIG    1       24.154 -28.412   5.811  0.00  0.00    -0.191 NA
ENDBRANCH   5  17
BRANCH   1  19
ATOM     19  C   LIG    1       25.024 -21.266   8.321  0.00  0.00    +0.046 C 
BRANCH  19  20
ATOM     20  C   LIG    1       26.342 -20.844   9.000  0.00  0.00    +0.019 C 
BRANCH  20  21
ATOM     21  C   LIG    1       27.227 -19.954   8.093  0.00  0.00    +0.084 C 
BRANCH  21  23
ATOM     22  C   LIG    1       29.239 -21.292   8.390  0.00  0.00    +0.104 C 
ATOM     23  N   LIG    1       28.667 -19.940   8.425  0.00  0.00    -0.308 NA
ATOM     24  C   LIG    1       29.435 -19.056   7.552  0.00  0.00    +0.104 C 
ENDBRANCH  21  23
ENDBRANCH  20  21
ENDBRANCH  19  20
ENDBRANCH   1  19
TORSDOF 6
ENDMDL
