MODEL 1
REMARK VINA RESULT:      -7.4      0.000      0.000
REMARK  Name = *****
REMARK                            x       y       z     vdW  Elec       q    Type
REMARK                         _______ _______ _______ _____ _____    ______ ____
ROOT
ATOM      1  C   LIG    1       25.871 -25.880   7.199  0.00  0.00    +0.031 C 
ATOM      2  C   LIG    1       25.486 -27.122   6.847  0.00  0.00    +0.035 C 
ATOM      3  C   LIG    1       25.842 -28.332   7.672  0.00  0.00    +0.003 A 
ATOM      4  C   LIG    1       25.399 -29.611   7.234  0.00  0.00    -0.033 A 
ATOM      5  C   LIG    1       25.694 -30.753   7.977  0.00  0.00    +0.053 A 
ATOM      6  C   LIG    1       26.440 -30.702   9.151  0.00  0.00    +0.162 A 
ATOM      7  C   LIG    1       26.851 -29.452   9.637  0.00  0.00    +0.163 A 
ATOM      8  C   LIG    1       24.665 -29.793   5.935  0.00  0.00    +0.054 C 
ATOM      9  C   LIG    1       23.878 -28.555   5.565  0.00  0.00    +0.106 C 
ATOM     10  C   LIG    1       26.552 -28.299   8.883  0.00  0.00    +0.059 A 
ATOM     11  N   LIG    1       24.731 -27.396   5.712  0.00  0.00    -0.343 N 
ATOM     12  H   LIG    1       24.759 -26.713   4.966  0.00  0.00    +0.146 HD
ENDROOT
BRANCH   1  16
ATOM     13  C   LIG    1       24.785 -22.090   5.452  0.00  0.00    +0.162 A 
ATOM     14  C   LIG    1       25.127 -22.147   6.812  0.00  0.00    +0.162 A 
ATOM     15  C   LIG    1       25.427 -23.393   7.382  0.00  0.00    +0.057 A 
ATOM     16  C   LIG    1       25.396 -24.586   6.647  0.00  0.00    -0.020 A 
ATOM     17  C   LIG    1       25.065 -24.516   5.288  0.00  0.00    +0.012 A 
ATOM     18  C   LIG    1       24.760 -23.282   4.710  0.00  0.00    +0.050 A 
BRANCH  13  19
ATOM     19  O   LIG    1       24.492 -21.005   4.673  0.00  0.00    -0.489 OA
BRANCH  19  21
ATOM     20  C   LIG    1       22.647 -19.682   5.376  0.00  0.00    +0.048 C 
ATOM     21  C   LIG    1       23.146 -20.683   4.348  0.00  0.00    +0.226 C 
ENDBRANCH  19  21
ENDBRANCH  13  19
BRANCH  14  22
ATOM     22  O   LIG    1       25.128 -20.999   7.563  0.00  0.00    -0.489 OA
BRANCH  22  23
ATOM     23  C   LIG    1       26.240 -20.786   8.441  0.00  0.00    +0.226 C 
ATOM     24  C   LIG    1       27.424 -20.315   7.612  0.00  0.00    +0.048 C 
ENDBRANCH  22  23
ENDBRANCH  14  22
ENDBRANCH   1  16
BRANCH   7  25
ATOM     25  O   LIG    1       27.550 -29.174  10.784  0.00  0.00    -0.489 OA
BRANCH  25  26
ATOM     26  C   LIG    1       27.178 -28.066  11.599  0.00  0.00    +0.226 C 
ATOM     27  C   LIG    1       25.991 -28.425  12.480  0.00  0.00    +0.048 C 
ENDBRANCH  25  26
ENDBRANCH   7  25
BRANCH   6  28
ATOM     28  O   LIG    1       26.750 -31.852   9.825  0.00  0.00    -0.489 OA
BRANCH  28  29
ATOM     29  C   LIG    1       25.634 -32.638  10.249  0.00  0.00    +0.226 C 
ATOM     30  C   LIG    1       25.118 -32.087  11.561  0.00  0.00    +0.048 C 
ENDBRANCH  28  29
ENDBRANCH   6  28
TORSDOF 9
ENDMDL
MODEL 2
REMARK VINA RESULT:      -6.7      4.446      9.855
REMARK  Name = *****
REMARK                            x       y       z     vdW  Elec       q    Type
REMARK                         _______ _______ _______ _____ _____    ______ ____
ROOT
ATOM      1  C   LIG    1       27.183 -20.501   8.348  0.00  0.00    +0.031 C 
ATOM      2  C   LIG    1       28.134 -19.966   7.559  0.00  0.00    +0.035 C 
ATOM      3  C   LIG    1       29.330 -19.244   8.126  0.00  0.00    +0.003 A 
ATOM      4  C   LIG    1       30.292 -18.704   7.227  0.00  0.00    -0.033 A 
ATOM      5  C   LIG    1       31.419 -18.044   7.712  0.00  0.00    +0.053 A 
ATOM      6  C   LIG    1       31.645 -17.864   9.075  0.00  0.00    +0.162 A 
ATOM      7  C   LIG    1       30.741 -18.426   9.990  0.00  0.00    +0.163 A 
ATOM      8  C   LIG    1       30.102 -18.761   5.737  0.00  0.00    +0.054 C 
ATOM      9  C   LIG    1       29.279 -19.963   5.329  0.00  0.00    +0.106 C 
ATOM     10  C   LIG    1       29.602 -19.092   9.496  0.00  0.00    +0.059 A 
ATOM     11  N   LIG    1       28.105 -20.034   6.170  0.00  0.00    -0.343 N 
ATOM     12  H   LIG    1       27.203 -20.184   5.737  0.00  0.00    +0.146 HD
ENDROOT
BRANCH   1  16
ATOM     13  C   LIG    1       24.191 -23.270   6.941  0.00  0.00    +0.162 A 
ATOM     14  C   LIG    1       23.899 -21.898   6.968  0.00  0.00    +0.162 A 
ATOM     15  C   LIG    1       24.860 -21.011   7.477  0.00  0.00    +0.057 A 
ATOM     16  C   LIG    1       26.102 -21.443   7.963  0.00  0.00    -0.020 A 
ATOM     17  C   LIG    1       26.388 -22.813   7.921  0.00  0.00    +0.012 A 
ATOM     18  C   LIG    1       25.438 -23.706   7.420  0.00  0.00    +0.050 A 
BRANCH  13  19
ATOM     19  O   LIG    1       23.443 -24.311   6.465  0.00  0.00    -0.489 OA
BRANCH  19  21
ATOM     20  C   LIG    1       24.200 -26.550   6.216  0.00  0.00    +0.048 C 
ATOM     21  C   LIG    1       23.982 -25.220   5.515  0.00  0.00    +0.226 C 
ENDBRANCH  19  21
ENDBRANCH  13  19
BRANCH  14  22
ATOM     22  O   LIG    1       22.676 -21.453   6.533  0.00  0.00    -0.489 OA
BRANCH  22  23
ATOM     23  C   LIG    1       22.567 -21.059   5.161  0.00  0.00    +0.226 C 
ATOM     24  C   LIG    1       22.486 -19.541   5.102  0.00  0.00    +0.048 C 
ENDBRANCH  22  23
ENDBRANCH  14  22
ENDBRANCH   1  16
BRANCH   7  25
ATOM     25  O   LIG    1       30.796 -18.405  11.360  0.00  0.00    -0.489 OA
BRANCH  25  26
ATOM     26  C   LIG    1       31.162 -17.208  12.044  0.00  0.00    +0.226 C 
ATOM     27  C   LIG    1       31.928 -17.533  13.316  0.00  0.00    +0.048 C 
ENDBRANCH  25  26
ENDBRANCH   7  25
BRANCH   6  28
ATOM     28  O   LIG    1       32.739 -17.166   9.509  0.00  0.00    -0.489 OA
BRANCH  28  29
ATOM     29  C   LIG    1       32.687 -15.752   9.311  0.00  0.00    +0.226 C 
ATOM     30  C   LIG    1       33.023 -15.062  10.616  0.00  0.00    +0.048 C 
ENDBRANCH  28  29
ENDBRANCH   6  28
TORSDOF 9
ENDMDL
MODEL 3
REMARK VINA RESULT:      -6.3      3.896      8.870
REMARK  Name = *****
REMARK                            x       y       z     vdW  Elec       q    Type
REMARK                         _______ _______ _______ _____ _____    ______ ____
ROOT
ATOM      1  C   LIG    1       27.153 -22.479   7.478  0.00  0.00    +0.031 C 
ATOM      2  C   LIG    1       27.431 -21.336   6.823  0.00  0.00    +0.035 C 
ATOM      3  C   LIG    1       28.652 -20.510   7.140  0.00  0.00    +0.003 A 
ATOM      4  C   LIG    1       28.875 -19.313   6.405  0.00  0.00    -0.033 A 
ATOM      5  C   LIG    1       30.000 -18.530   6.656  0.00  0.00    +0.053 A 
ATOM      6  C   LIG    1       30.931 -18.862   7.637  0.00  0.00    +0.162 A 
ATOM      7  C   LIG    1       30.766 -20.061   8.347  0.00  0.00    +0.163 A 
ATOM      8  C   LIG    1       27.888 -18.812   5.387  0.00  0.00    +0.054 C 
ATOM      9  C   LIG    1       27.115 -19.951   4.758  0.00  0.00    +0.106 C 
ATOM     10  C   LIG    1       29.627 -20.850   8.091  0.00  0.00    +0.059 A 
ATOM     11  N   LIG    1       26.633 -20.824   5.806  0.00  0.00    -0.343 N 
ATOM     12  H   LIG    1       25.667 -21.122   5.786  0.00  0.00    +0.146 HD
ENDROOT
BRANCH   1  16
ATOM     13  C   LIG    1       24.311 -25.427   6.123  0.00  0.00    +0.162 A 
ATOM     14  C   LIG    1       23.846 -24.192   6.601  0.00  0.00    +0.162 A 
ATOM     15  C   LIG    1       24.776 -23.261   7.088  0.00  0.00    +0.057 A 
ATOM     16  C   LIG    1       26.154 -23.517   7.120  0.00  0.00    -0.020 A 
ATOM     17  C   LIG    1       26.608 -24.748   6.631  0.00  0.00    +0.012 A 
ATOM     18  C   LIG    1       25.692 -25.684   6.146  0.00  0.00    +0.050 A 
BRANCH  13  19
ATOM     19  O   LIG    1       23.614 -26.466   5.572  0.00  0.00    -0.489 OA
BRANCH  19  21
ATOM     20  C   LIG    1       24.117 -28.670   6.308  0.00  0.00    +0.048 C 
ATOM     21  C   LIG    1       24.277 -27.662   5.183  0.00  0.00    +0.226 C 
ENDBRANCH  19  21
ENDBRANCH  13  19
BRANCH  14  22
ATOM     22  O   LIG    1       22.499 -23.931   6.615  0.00  0.00    -0.489 OA
BRANCH  22  23
ATOM     23  C   LIG    1       22.092 -22.572   6.815  0.00  0.00    +0.226 C 
ATOM     24  C   LIG    1       22.381 -21.792   5.541  0.00  0.00    +0.048 C 
ENDBRANCH  22  23
ENDBRANCH  14  22
ENDBRANCH   1  16
BRANCH   7  25
ATOM     25  O   LIG    1       31.579 -20.594   9.315  0.00  0.00    -0.489 OA
BRANCH  25  26
ATOM     26  C   LIG    1       31.446 -21.963   9.688  0.00  0.00    +0.226 C 
ATOM     27  C   LIG    1       31.949 -22.872   8.577  0.00  0.00    +0.048 C 
ENDBRANCH  25  26
ENDBRANCH   7  25
BRANCH   6  28
ATOM     28  O   LIG    1       31.997 -18.040   7.887  0.00  0.00    -0.489 OA
BRANCH  28  29
ATOM     29  C   LIG    1       31.744 -16.963   8.792  0.00  0.00    +0.226 C 
ATOM     30  C   LIG    1       32.098 -17.408  10.195  0.00  0.00    +0.048 C 
ENDBRANCH  28  29
ENDBRANCH   6  28
TORSDOF 9
ENDMDL
MODEL 4
REMARK VINA RESULT:      -6.2      2.062      2.481
REMARK  Name = *****
REMARK                            x       y       z     vdW  Elec       q    Type
REMARK                         _______ _______ _______ _____ _____    ______ ____
ROOT
ATOM      1  C   LIG    1       25.129 -25.388   7.212  0.00  0.00    +0.031 C 
ATOM      2  C   LIG    1       25.377 -26.347   6.300  0.00  0.00    +0.035 C 
ATOM      3  C   LIG    1       25.310 -27.814   6.643  0.00  0.00    +0.003 A 
ATOM      4  C   LIG    1       25.587 -28.767   5.624  0.00  0.00    -0.033 A 
ATOM      5  C   LIG    1       25.520 -30.132   5.897  0.00  0.00    +0.053 A 
ATOM      6  C   LIG    1       25.207 -30.621   7.163  0.00  0.00    +0.162 A 
ATOM      7  C   LIG    1       24.882 -29.709   8.178  0.00  0.00    +0.163 A 
ATOM      8  C   LIG    1       26.023 -28.350   4.247  0.00  0.00    +0.054 C 
ATOM      9  C   LIG    1       25.471 -26.990   3.879  0.00  0.00    +0.106 C 
ATOM     10  C   LIG    1       24.951 -28.329   7.899  0.00  0.00    +0.059 A 
ATOM     11  N   LIG    1       25.705 -26.077   4.975  0.00  0.00    -0.343 N 
ATOM     12  H   LIG    1       26.095 -25.165   4.776  0.00  0.00    +0.146 HD
ENDROOT
BRANCH   1  16
ATOM     13  C   LIG    1       24.443 -21.250   6.210  0.00  0.00    +0.162 A 
ATOM     14  C   LIG    1       25.755 -21.694   6.439  0.00  0.00    +0.162 A 
ATOM     15  C   LIG    1       25.962 -23.029   6.816  0.00  0.00    +0.057 A 
ATOM     16  C   LIG    1       24.907 -23.940   6.976  0.00  0.00    -0.020 A 
ATOM     17  C   LIG    1       23.604 -23.490   6.734  0.00  0.00    +0.012 A 
ATOM     18  C   LIG    1       23.385 -22.161   6.362  0.00  0.00    +0.050 A 
BRANCH  13  19
ATOM     19  O   LIG    1       23.997 -20.024   5.804  0.00  0.00    -0.489 OA
BRANCH  19  21
ATOM     20  C   LIG    1       22.296 -18.881   4.599  0.00  0.00    +0.048 C 
ATOM     21  C   LIG    1       23.473 -19.835   4.496  0.00  0.00    +0.226 C 
ENDBRANCH  19  21
ENDBRANCH  13  19
BRANCH  14  22
ATOM     22  O   LIG    1       26.801 -20.813   6.326  0.00  0.00    -0.489 OA
BRANCH  22  23
ATOM     23  C   LIG    1       27.459 -20.411   7.533  0.00  0.00    +0.226 C 
ATOM     24  C   LIG    1       28.924 -20.810   7.437  0.00  0.00    +0.048 C 
ENDBRANCH  22  23
ENDBRANCH  14  22
ENDBRANCH   1  16
BRANCH   7  25
ATOM     25  O   LIG    1       24.507 -29.974   9.470  0.00  0.00    -0.489 OA
BRANCH  25  26
ATOM     26  C   LIG    1       23.178 -30.403   9.756  0.00  0.00    +0.226 C 
ATOM     27  C   LIG    1       22.771 -29.987  11.161  0.00  0.00    +0.048 C 
ENDBRANCH  25  26
ENDBRANCH   7  25
BRANCH   6  28
ATOM     28  O   LIG    1       25.200 -31.968   7.403  0.00  0.00    -0.489 OA
BRANCH  28  29
ATOM     29  C   LIG    1       24.733 -32.784   6.326  0.00  0.00    +0.226 C 
ATOM     30  C   LIG    1       23.253 -33.042   6.513  0.00  0.00    +0.048 C 
ENDBRANCH  28  29
ENDBRANCH   6  28
TORSDOF 9
ENDMDL
MODEL 5
REMARK VINA RESULT:      -6.1      2.428      8.709
REMARK  Name = *****
REMARK                            x       y       z     vdW  Elec       q    Type
REMARK                         _______ _______ _______ _____ _____    ______ ____
ROOT
ATOM      1  C   LIG    1       25.933 -25.143   7.122  0.00  0.00    +0.031 C 
ATOM      2  C   LIG    1       25.591 -23.992   6.511  0.00  0.00    +0.035 C 
ATOM      3  C   LIG    1       26.328 -22.703   6.767  0.00  0.00    +0.003 A 
ATOM      4  C   LIG    1       25.906 -21.528   6.085  0.00  0.00    -0.033 A 
ATOM      5  C   LIG    1       26.571 -20.319   6.282  0.00  0.00    +0.053 A 
ATOM      6  C   LIG    1       27.647 -20.199   7.157  0.00  0.00    +0.162 A 
ATOM      7  C   LIG    1       28.119 -21.348   7.810  0.00  0.00    +0.163 A 
ATOM      8  C   LIG    1       24.700 -21.524   5.187  0.00  0.00    +0.054 C 
ATOM      9  C   LIG    1       24.469 -22.883   4.564  0.00  0.00    +0.106 C 
ATOM     10  C   LIG    1       27.444 -22.569   7.609  0.00  0.00    +0.059 A 
ATOM     11  N   LIG    1       24.548 -23.891   5.597  0.00  0.00    -0.343 N 
ATOM     12  H   LIG    1       23.826 -24.599   5.644  0.00  0.00    +0.146 HD
ENDROOT
BRANCH   1  16
ATOM     13  C   LIG    1       24.334 -29.061   6.286  0.00  0.00    +0.162 A 
ATOM     14  C   LIG    1       25.164 -28.880   7.403  0.00  0.00    +0.162 A 
ATOM     15  C   LIG    1       25.721 -27.614   7.636  0.00  0.00    +0.057 A 
ATOM     16  C   LIG    1       25.483 -26.519   6.793  0.00  0.00    -0.020 A 
ATOM     17  C   LIG    1       24.644 -26.707   5.688  0.00  0.00    +0.012 A 
ATOM     18  C   LIG    1       24.087 -27.964   5.444  0.00  0.00    +0.050 A 
BRANCH  13  19
ATOM     19  O   LIG    1       23.655 -30.174   5.876  0.00  0.00    -0.489 OA
BRANCH  19  21
ATOM     20  C   LIG    1       25.303 -31.709   5.116  0.00  0.00    +0.048 C 
ATOM     21  C   LIG    1       24.178 -31.475   6.110  0.00  0.00    +0.226 C 
ENDBRANCH  19  21
ENDBRANCH  13  19
BRANCH  14  22
ATOM     22  O   LIG    1       25.443 -29.945   8.223  0.00  0.00    -0.489 OA
BRANCH  22  23
ATOM     23  C   LIG    1       24.980 -29.874   9.577  0.00  0.00    +0.226 C 
ATOM     24  C   LIG    1       23.500 -30.225   9.597  0.00  0.00    +0.048 C 
ENDBRANCH  22  23
ENDBRANCH  14  22
ENDBRANCH   1  16
BRANCH   7  25
ATOM     25  O   LIG    1       29.181 -21.460   8.671  0.00  0.00    -0.489 OA
BRANCH  25  26
ATOM     26  C   LIG    1       30.511 -21.537   8.162  0.00  0.00    +0.226 C 
ATOM     27  C   LIG    1       31.449 -22.123   9.205  0.00  0.00    +0.048 C 
ENDBRANCH  25  26
ENDBRANCH   7  25
BRANCH   6  28
ATOM     28  O   LIG    1       28.242 -18.983   7.361  0.00  0.00    -0.489 OA
BRANCH  28  29
ATOM     29  C   LIG    1       29.475 -18.777   6.668  0.00  0.00    +0.226 C 
ATOM     30  C   LIG    1       29.176 -18.256   5.278  0.00  0.00    +0.048 C 
ENDBRANCH  28  29
ENDBRANCH   6  28
TORSDOF 9
ENDMDL
MODEL 6
REMARK VINA RESULT:      -6.0      1.067      8.763
REMARK  Name = *****
REMARK                            x       y       z     vdW  Elec       q    Type
REMARK                         _______ _______ _______ _____ _____    ______ ____
ROOT
ATOM      1  C   LIG    1       25.744 -27.036   8.168  0.00  0.00    +0.031 C 
ATOM      2  C   LIG    1       25.556 -26.557   6.924  0.00  0.00    +0.035 C 
ATOM      3  C   LIG    1       25.372 -25.085   6.654  0.00  0.00    +0.003 A 
ATOM      4  C   LIG    1       25.176 -24.657   5.312  0.00  0.00    -0.033 A 
ATOM      5  C   LIG    1       25.019 -23.303   5.018  0.00  0.00    +0.053 A 
ATOM      6  C   LIG    1       25.024 -22.324   6.008  0.00  0.00    +0.162 A 
ATOM      7  C   LIG    1       25.262 -22.708   7.337  0.00  0.00    +0.163 A 
ATOM      8  C   LIG    1       25.063 -25.636   4.177  0.00  0.00    +0.054 C 
ATOM      9  C   LIG    1       25.840 -26.903   4.458  0.00  0.00    +0.106 C 
ATOM     10  C   LIG    1       25.421 -24.077   7.630  0.00  0.00    +0.059 A 
ATOM     11  N   LIG    1       25.519 -27.363   5.791  0.00  0.00    -0.343 N 
ATOM     12  H   LIG    1       25.292 -28.339   5.929  0.00  0.00    +0.146 HD
ENDROOT
BRANCH   1  16
ATOM     13  C   LIG    1       26.753 -31.015   9.494  0.00  0.00    +0.162 A 
ATOM     14  C   LIG    1       27.373 -29.910  10.099  0.00  0.00    +0.162 A 
ATOM     15  C   LIG    1       27.077 -28.624   9.624  0.00  0.00    +0.057 A 
ATOM     16  C   LIG    1       26.187 -28.397   8.565  0.00  0.00    -0.020 A 
ATOM     17  C   LIG    1       25.565 -29.505   7.977  0.00  0.00    +0.012 A 
ATOM     18  C   LIG    1       25.854 -30.791   8.438  0.00  0.00    +0.050 A 
BRANCH  13  19
ATOM     19  O   LIG    1       26.849 -32.343   9.800  0.00  0.00    -0.489 OA
BRANCH  19  21
ATOM     20  C   LIG    1       25.191 -32.909  11.406  0.00  0.00    +0.048 C 
ATOM     21  C   LIG    1       25.683 -33.135   9.987  0.00  0.00    +0.226 C 
ENDBRANCH  19  21
ENDBRANCH  13  19
BRANCH  14  22
ATOM     22  O   LIG    1       28.277 -30.108  11.112  0.00  0.00    -0.489 OA
BRANCH  22  23
ATOM     23  C   LIG    1       28.093 -29.354  12.316  0.00  0.00    +0.226 C 
ATOM     24  C   LIG    1       26.929 -29.957  13.087  0.00  0.00    +0.048 C 
ENDBRANCH  22  23
ENDBRANCH  14  22
ENDBRANCH   1  16
BRANCH   7  25
ATOM     25  O   LIG    1       25.351 -21.909   8.449  0.00  0.00    -0.489 OA
BRANCH  25  26
ATOM     26  C   LIG    1       26.154 -20.732   8.423  0.00  0.00    +0.226 C 
ATOM     27  C   LIG    1       27.575 -21.063   7.994  0.00  0.00    +0.048 C 
ENDBRANCH  25  26
ENDBRANCH   7  25
BRANCH   6  28
ATOM     28  O   LIG    1       24.816 -21.011   5.685  0.00  0.00    -0.489 OA
BRANCH  28  29
ATOM     29  C   LIG    1       23.791 -20.769   4.719  0.00  0.00    +0.226 C 
ATOM     30  C   LIG    1       22.672 -19.989   5.377  0.00  0.00    +0.048 C 
ENDBRANCH  28  29
ENDBRANCH   6  28
TORSDOF 9
ENDMDL
MODEL 7
REMARK VINA RESULT:      -5.9      4.826      8.219
REMARK  Name = *****
REMARK                            x       y       z     vdW  Elec       q    Type
REMARK                         _______ _______ _______ _____ _____    ______ ____
ROOT
ATOM      1  C   LIG    1       23.386 -30.116  10.343  0.00  0.00    +0.031 C 
ATOM      2  C   LIG    1       22.184 -30.511  10.805  0.00  0.00    +0.035 C 
ATOM      3  C   LIG    1       21.494 -29.804  11.944  0.00  0.00    +0.003 A 
ATOM      4  C   LIG    1       20.226 -30.283  12.376  0.00  0.00    -0.033 A 
ATOM      5  C   LIG    1       19.548 -29.647  13.415  0.00  0.00    +0.053 A 
ATOM      6  C   LIG    1       20.079 -28.547  14.084  0.00  0.00    +0.162 A 
ATOM      7  C   LIG    1       21.306 -28.021  13.651  0.00  0.00    +0.163 A 
ATOM      8  C   LIG    1       19.602 -31.516  11.786  0.00  0.00    +0.054 C 
ATOM      9  C   LIG    1       20.040 -31.728  10.353  0.00  0.00    +0.106 C 
ATOM     10  C   LIG    1       21.989 -28.666  12.600  0.00  0.00    +0.059 A 
ATOM     11  N   LIG    1       21.477 -31.586  10.278  0.00  0.00    -0.343 N 
ATOM     12  H   LIG    1       22.010 -32.285   9.776  0.00  0.00    +0.146 HD
ENDROOT
BRANCH   1  16
ATOM     13  C   LIG    1       25.641 -31.235   6.842  0.00  0.00    +0.162 A 
ATOM     14  C   LIG    1       24.892 -30.048   6.827  0.00  0.00    +0.162 A 
ATOM     15  C   LIG    1       24.120 -29.721   7.952  0.00  0.00    +0.057 A 
ATOM     16  C   LIG    1       24.066 -30.535   9.092  0.00  0.00    -0.020 A 
ATOM     17  C   LIG    1       24.826 -31.711   9.101  0.00  0.00    +0.012 A 
ATOM     18  C   LIG    1       25.596 -32.050   7.985  0.00  0.00    +0.050 A 
BRANCH  13  19
ATOM     19  O   LIG    1       26.487 -31.743   5.896  0.00  0.00    -0.489 OA
BRANCH  19  21
ATOM     20  C   LIG    1       26.312 -32.716   3.734  0.00  0.00    +0.048 C 
ATOM     21  C   LIG    1       26.186 -32.961   5.228  0.00  0.00    +0.226 C 
ENDBRANCH  19  21
ENDBRANCH  13  19
BRANCH  14  22
ATOM     22  O   LIG    1       24.899 -29.253   5.709  0.00  0.00    -0.489 OA
BRANCH  22  23
ATOM     23  C   LIG    1       24.516 -27.883   5.872  0.00  0.00    +0.226 C 
ATOM     24  C   LIG    1       25.778 -27.042   5.995  0.00  0.00    +0.048 C 
ENDBRANCH  22  23
ENDBRANCH  14  22
ENDBRANCH   1  16
BRANCH   7  25
ATOM     25  O   LIG    1       21.980 -26.929  14.136  0.00  0.00    -0.489 OA
BRANCH  25  26
ATOM     26  C   LIG    1       22.966 -26.282  13.335  0.00  0.00    +0.226 C 
ATOM     27  C   LIG    1       24.147 -25.846  14.188  0.00  0.00    +0.048 C 
ENDBRANCH  25  26
ENDBRANCH   7  25
BRANCH   6  28
ATOM     28  O   LIG    1       19.405 -27.982  15.132  0.00  0.00    -0.489 OA
BRANCH  28  29
ATOM     29  C   LIG    1       18.094 -27.498  14.832  0.00  0.00    +0.226 C 
ATOM     30  C   LIG    1       18.215 -26.179  14.099  0.00  0.00    +0.048 C 
ENDBRANCH  28  29
ENDBRANCH   6  28
TORSDOF 9
ENDMDL
MODEL 8
REMARK VINA RESULT:      -5.9      3.825      6.828
REMARK  Name = *****
REMARK                            x       y       z     vdW  Elec       q    Type
REMARK                         _______ _______ _______ _____ _____    ______ ____
ROOT
ATOM      1  C   LIG    1       27.770 -21.641   6.867  0.00  0.00    +0.031 C 
ATOM      2  C   LIG    1       26.431 -21.779   6.885  0.00  0.00    +0.035 C 
ATOM      3  C   LIG    1       25.764 -23.121   6.717  0.00  0.00    +0.003 A 
ATOM      4  C   LIG    1       24.343 -23.185   6.744  0.00  0.00    -0.033 A 
ATOM      5  C   LIG    1       23.689 -24.408   6.609  0.00  0.00    +0.053 A 
ATOM      6  C   LIG    1       24.380 -25.602   6.420  0.00  0.00    +0.162 A 
ATOM      7  C   LIG    1       25.783 -25.581   6.435  0.00  0.00    +0.163 A 
ATOM      8  C   LIG    1       23.496 -21.948   6.852  0.00  0.00    +0.054 C 
ATOM      9  C   LIG    1       24.217 -20.846   7.598  0.00  0.00    +0.106 C 
ATOM     10  C   LIG    1       26.442 -24.342   6.572  0.00  0.00    +0.059 A 
ATOM     11  N   LIG    1       25.554 -20.715   7.063  0.00  0.00    -0.343 N 
ATOM     12  H   LIG    1       25.901 -19.791   6.838  0.00  0.00    +0.146 HD
ENDROOT
BRANCH   1  16
ATOM     13  C   LIG    1       30.355 -18.342   7.889  0.00  0.00    +0.162 A 
ATOM     14  C   LIG    1       29.995 -19.267   8.881  0.00  0.00    +0.162 A 
ATOM     15  C   LIG    1       29.111 -20.306   8.551  0.00  0.00    +0.057 A 
ATOM     16  C   LIG    1       28.571 -20.455   7.266  0.00  0.00    -0.020 A 
ATOM     17  C   LIG    1       28.945 -19.534   6.281  0.00  0.00    +0.012 A 
ATOM     18  C   LIG    1       29.821 -18.494   6.598  0.00  0.00    +0.050 A 
BRANCH  13  19
ATOM     19  O   LIG    1       31.215 -17.283   7.957  0.00  0.00    -0.489 OA
BRANCH  19  21
ATOM     20  C   LIG    1       32.709 -16.048   9.333  0.00  0.00    +0.048 C 
ATOM     21  C   LIG    1       32.444 -17.386   8.664  0.00  0.00    +0.226 C 
ENDBRANCH  19  21
ENDBRANCH  13  19
BRANCH  14  22
ATOM     22  O   LIG    1       30.481 -19.122  10.157  0.00  0.00    -0.489 OA
BRANCH  22  23
ATOM     23  C   LIG    1       29.990 -18.019  10.928  0.00  0.00    +0.226 C 
ATOM     24  C   LIG    1       31.089 -17.571  11.879  0.00  0.00    +0.048 C 
ENDBRANCH  22  23
ENDBRANCH  14  22
ENDBRANCH   1  16
BRANCH   7  25
ATOM     25  O   LIG    1       26.650 -26.636   6.312  0.00  0.00    -0.489 OA
BRANCH  25  26
ATOM     26  C   LIG    1       27.084 -27.061   5.022  0.00  0.00    +0.226 C 
ATOM     27  C   LIG    1       26.014 -26.780   3.979  0.00  0.00    +0.048 C 
ENDBRANCH  25  26
ENDBRANCH   7  25
BRANCH   6  28
ATOM     28  O   LIG    1       23.699 -26.776   6.241  0.00  0.00    -0.489 OA
BRANCH  28  29
ATOM     29  C   LIG    1       24.239 -27.911   6.920  0.00  0.00    +0.226 C 
ATOM     30  C   LIG    1       24.096 -29.128   6.032  0.00  0.00    +0.048 C 
ENDBRANCH  28  29
ENDBRANCH   6  28
TORSDOF 9
ENDMDL
MODEL 9
REMARK VINA RESULT:      -5.8      1.519      2.374
REMARK  Name = *****
REMARK                            x       y       z     vdW  Elec       q    Type
REMARK                         _______ _______ _______ _____ _____    ______ ____
ROOT
ATOM      1  C   LIG    1       25.678 -25.986   7.371  0.00  0.00    +0.031 C 
ATOM      2  C   LIG    1       25.401 -27.114   6.689  0.00  0.00    +0.035 C 
ATOM      3  C   LIG    1       25.394 -28.467   7.353  0.00  0.00    +0.003 A 
ATOM      4  C   LIG    1       25.094 -29.613   6.565  0.00  0.00    -0.033 A 
ATOM      5  C   LIG    1       25.061 -30.880   7.144  0.00  0.00    +0.053 A 
ATOM      6  C   LIG    1       25.339 -31.086   8.493  0.00  0.00    +0.162 A 
ATOM      7  C   LIG    1       25.592 -29.973   9.309  0.00  0.00    +0.163 A 
ATOM      8  C   LIG    1       24.868 -29.516   5.082  0.00  0.00    +0.054 C 
ATOM      9  C   LIG    1       24.310 -28.165   4.692  0.00  0.00    +0.106 C 
ATOM     10  C   LIG    1       25.624 -28.693   8.720  0.00  0.00    +0.059 A 
ATOM     11  N   LIG    1       25.094 -27.133   5.333  0.00  0.00    -0.343 N 
ATOM     12  H   LIG    1       25.411 -26.347   4.779  0.00  0.00    +0.146 HD
ENDROOT
BRANCH   1  16
ATOM     13  C   LIG    1       25.139 -21.817   6.407  0.00  0.00    +0.162 A 
ATOM     14  C   LIG    1       24.016 -22.655   6.488  0.00  0.00    +0.162 A 
ATOM     15  C   LIG    1       24.207 -24.020   6.750  0.00  0.00    +0.057 A 
ATOM     16  C   LIG    1       25.479 -24.582   6.932  0.00  0.00    -0.020 A 
ATOM     17  C   LIG    1       26.592 -23.735   6.860  0.00  0.00    +0.012 A 
ATOM     18  C   LIG    1       26.415 -22.375   6.597  0.00  0.00    +0.050 A 
BRANCH  13  19
ATOM     19  O   LIG    1       25.206 -20.467   6.202  0.00  0.00    -0.489 OA
BRANCH  19  21
ATOM     20  C   LIG    1       25.443 -19.817   3.928  0.00  0.00    +0.048 C 
ATOM     21  C   LIG    1       26.134 -19.915   5.277  0.00  0.00    +0.226 C 
ENDBRANCH  19  21
ENDBRANCH  13  19
BRANCH  14  22
ATOM     22  O   LIG    1       22.763 -22.136   6.276  0.00  0.00    -0.489 OA
BRANCH  22  23
ATOM     23  C   LIG    1       22.463 -21.651   4.963  0.00  0.00    +0.226 C 
ATOM     24  C   LIG    1       22.147 -20.166   5.060  0.00  0.00    +0.048 C 
ENDBRANCH  22  23
ENDBRANCH  14  22
ENDBRANCH   1  16
BRANCH   7  25
ATOM     25  O   LIG    1       25.843 -29.947  10.657  0.00  0.00    -0.489 OA
BRANCH  25  26
ATOM     26  C   LIG    1       24.963 -29.253  11.537  0.00  0.00    +0.226 C 
ATOM     27  C   LIG    1       23.558 -29.830  11.453  0.00  0.00    +0.048 C 
ENDBRANCH  25  26
ENDBRANCH   7  25
BRANCH   6  28
ATOM     28  O   LIG    1       25.346 -32.352   9.013  0.00  0.00    -0.489 OA
BRANCH  28  29
ATOM     29  C   LIG    1       25.978 -33.346   8.205  0.00  0.00    +0.226 C 
ATOM     30  C   LIG    1       27.471 -33.306   8.457  0.00  0.00    +0.048 C 
ENDBRANCH  28  29
ENDBRANCH   6  28
TORSDOF 9
ENDMDL
