MODEL 1
REMARK VINA RESULT:      -5.9      0.000      0.000
REMARK  Name = *****
REMARK                            x       y       z     vdW  Elec       q    Type
REMARK                         _______ _______ _______ _____ _____    ______ ____
ROOT
ATOM      1  C   LIG    1       25.050 -30.510   9.234  0.00  0.00    +0.129 C 
ATOM      2  C   LIG    1       24.756 -31.439  10.457  0.00  0.00    +0.009 C 
ATOM      3  C   LIG    1       23.515 -30.768  11.113  0.00  0.00    +0.005 C 
ATOM      4  C   LIG    1       23.827 -29.544  12.019  0.00  0.00    +0.034 C 
ATOM      5  C   LIG    1       24.942 -29.828  13.061  0.00  0.00    +0.153 C 
ATOM      6  C   LIG    1       26.202 -30.406  12.378  0.00  0.00    +0.154 C 
ATOM      7  F   LIG    1       24.467 -30.871  13.842  0.00  0.00    -0.238 F 
ATOM      8  C   LIG    1       25.186 -28.573  14.034  0.00  0.00    +0.044 C 
ATOM      9  C   LIG    1       24.216 -27.418  13.668  0.00  0.00    -0.050 C 
ATOM     10  C   LIG    1       24.648 -26.174  13.378  0.00  0.00    +0.051 C 
ATOM     11  C   LIG    1       26.075 -25.793  13.393  0.00  0.00    +0.179 C 
ATOM     12  C   LIG    1       27.041 -26.834  13.770  0.00  0.00    +0.047 C 
ATOM     13  O   LIG    1       26.435 -24.659  13.105  0.00  0.00    -0.288 OA
ATOM     14  C   LIG    1       22.741 -27.808  13.593  0.00  0.00    +0.013 C 
ATOM     15  C   LIG    1       21.790 -26.730  13.044  0.00  0.00    +0.012 C 
ATOM     16  C   LIG    1       24.900 -28.991  15.500  0.00  0.00    +0.023 C 
ATOM     17  C   LIG    1       26.631 -28.074  14.058  0.00  0.00    -0.009 C 
ATOM     18  C   LIG    1       22.553 -29.107  12.782  0.00  0.00    +0.014 C 
ATOM     19  C   LIG    1       22.667 -30.371   9.896  0.00  0.00    +0.008 C 
ATOM     20  C   LIG    1       24.366 -32.865   9.974  0.00  0.00    +0.015 C 
ATOM     21  C   LIG    1       25.890 -31.606  11.481  0.00  0.00    +0.044 C 
ATOM     22  C   LIG    1       23.651 -30.033   8.772  0.00  0.00    +0.043 C 
ENDROOT
BRANCH   1  24
ATOM     23  C   LIG    1       25.199 -31.240   6.719  0.00  0.00    +0.089 C 
ATOM     24  C   LIG    1       25.840 -31.189   8.083  0.00  0.00    +0.162 C 
ATOM     25  O   LIG    1       26.974 -31.648   8.243  0.00  0.00    -0.295 OA
ENDBRANCH   1  24
BRANCH   6  26
ATOM     26  O   LIG    1       27.127 -30.897  13.366  0.00  0.00    -0.389 OA
ATOM     27  H   LIG    1       26.606 -31.452  13.979  0.00  0.00    +0.210 HD
ENDBRANCH   6  26
BRANCH   1  28
ATOM     28  O   LIG    1       25.774 -29.351   9.651  0.00  0.00    -0.381 OA
ATOM     29  H   LIG    1       25.293 -28.951  10.400  0.00  0.00    +0.211 HD
ENDBRANCH   1  28
TORSDOF 3
ENDMDL
MODEL 2
REMARK VINA RESULT:      -5.7      3.569      6.063
REMARK  Name = *****
REMARK                            x       y       z     vdW  Elec       q    Type
REMARK                         _______ _______ _______ _____ _____    ______ ____
ROOT
ATOM      1  C   LIG    1       21.377 -31.506  11.070  0.00  0.00    +0.129 C 
ATOM      2  C   LIG    1       22.387 -32.686  10.892  0.00  0.00    +0.009 C 
ATOM      3  C   LIG    1       23.750 -32.036  11.262  0.00  0.00    +0.005 C 
ATOM      4  C   LIG    1       24.412 -31.198  10.133  0.00  0.00    +0.034 C 
ATOM      5  C   LIG    1       24.486 -31.954   8.779  0.00  0.00    +0.153 C 
ATOM      6  C   LIG    1       23.102 -32.511   8.381  0.00  0.00    +0.154 C 
ATOM      7  F   LIG    1       25.253 -33.083   9.025  0.00  0.00    -0.238 F 
ATOM      8  C   LIG    1       25.246 -31.094   7.655  0.00  0.00    +0.044 C 
ATOM      9  C   LIG    1       25.714 -29.737   8.246  0.00  0.00    -0.050 C 
ATOM     10  C   LIG    1       25.379 -28.553   7.694  0.00  0.00    +0.051 C 
ATOM     11  C   LIG    1       24.551 -28.437   6.476  0.00  0.00    +0.179 C 
ATOM     12  C   LIG    1       24.109 -29.689   5.847  0.00  0.00    +0.047 C 
ATOM     13  O   LIG    1       24.249 -27.346   6.012  0.00  0.00    -0.288 OA
ATOM     14  C   LIG    1       26.524 -29.836   9.537  0.00  0.00    +0.013 C 
ATOM     15  C   LIG    1       26.828 -28.502  10.240  0.00  0.00    +0.012 C 
ATOM     16  C   LIG    1       26.504 -31.865   7.175  0.00  0.00    +0.023 C 
ATOM     17  C   LIG    1       24.430 -30.872   6.382  0.00  0.00    -0.009 C 
ATOM     18  C   LIG    1       25.849 -30.794  10.541  0.00  0.00    +0.014 C 
ATOM     19  C   LIG    1       23.389 -31.167  12.476  0.00  0.00    +0.008 C 
ATOM     20  C   LIG    1       22.074 -33.824  11.905  0.00  0.00    +0.015 C 
ATOM     21  C   LIG    1       22.451 -33.330   9.498  0.00  0.00    +0.044 C 
ATOM     22  C   LIG    1       21.951 -30.688  12.253  0.00  0.00    +0.043 C 
ENDROOT
BRANCH   1  24
ATOM     23  C   LIG    1       19.309 -31.651  12.678  0.00  0.00    +0.089 C 
ATOM     24  C   LIG    1       19.910 -31.944  11.326  0.00  0.00    +0.162 C 
ATOM     25  O   LIG    1       19.222 -32.485  10.457  0.00  0.00    -0.295 OA
ENDBRANCH   1  24
BRANCH   6  26
ATOM     26  O   LIG    1       23.228 -33.415   7.267  0.00  0.00    -0.389 OA
ATOM     27  H   LIG    1       23.249 -34.317   7.645  0.00  0.00    +0.210 HD
ENDBRANCH   6  26
BRANCH   1  28
ATOM     28  O   LIG    1       21.395 -30.656   9.922  0.00  0.00    -0.381 OA
ATOM     29  H   LIG    1       21.266 -29.738  10.227  0.00  0.00    +0.211 HD
ENDBRANCH   1  28
TORSDOF 3
ENDMDL
MODEL 3
REMARK VINA RESULT:      -5.4      3.339      6.082
REMARK  Name = *****
REMARK                            x       y       z     vdW  Elec       q    Type
REMARK                         _______ _______ _______ _____ _____    ______ ____
ROOT
ATOM      1  C   LIG    1       21.176 -30.688  11.626  0.00  0.00    +0.129 C 
ATOM      2  C   LIG    1       22.178 -31.861  11.881  0.00  0.00    +0.009 C 
ATOM      3  C   LIG    1       23.545 -31.130  12.006  0.00  0.00    +0.005 C 
ATOM      4  C   LIG    1       24.217 -30.747  10.658  0.00  0.00    +0.034 C 
ATOM      5  C   LIG    1       24.291 -31.932   9.658  0.00  0.00    +0.153 C 
ATOM      6  C   LIG    1       22.903 -32.586   9.473  0.00  0.00    +0.154 C 
ATOM      7  F   LIG    1       25.048 -32.906  10.290  0.00  0.00    -0.238 F 
ATOM      8  C   LIG    1       25.061 -31.527   8.307  0.00  0.00    +0.044 C 
ATOM      9  C   LIG    1       25.536 -30.052   8.385  0.00  0.00    -0.050 C 
ATOM     10  C   LIG    1       25.212 -29.136   7.450  0.00  0.00    +0.051 C 
ATOM     11  C   LIG    1       24.389 -29.452   6.264  0.00  0.00    +0.179 C 
ATOM     12  C   LIG    1       23.940 -30.843   6.113  0.00  0.00    +0.047 C 
ATOM     13  O   LIG    1       24.097 -28.592   5.444  0.00  0.00    -0.288 OA
ATOM     14  C   LIG    1       26.341 -29.694   9.633  0.00  0.00    +0.013 C 
ATOM     15  C   LIG    1       26.653 -28.200   9.823  0.00  0.00    +0.012 C 
ATOM     16  C   LIG    1       26.314 -32.425   8.137  0.00  0.00    +0.023 C 
ATOM     17  C   LIG    1       24.250 -31.764   7.033  0.00  0.00    -0.009 C 
ATOM     18  C   LIG    1       25.656 -30.233  10.906  0.00  0.00    +0.014 C 
ATOM     19  C   LIG    1       23.186 -29.888  12.834  0.00  0.00    +0.008 C 
ATOM     20  C   LIG    1       21.854 -32.568  13.227  0.00  0.00    +0.015 C 
ATOM     21  C   LIG    1       22.243 -32.955  10.802  0.00  0.00    +0.044 C 
ATOM     22  C   LIG    1       21.752 -29.509  12.448  0.00  0.00    +0.043 C 
ENDROOT
BRANCH   1  24
ATOM     23  C   LIG    1       19.143 -30.344  13.247  0.00  0.00    +0.089 C 
ATOM     24  C   LIG    1       19.705 -31.000  12.011  0.00  0.00    +0.162 C 
ATOM     25  O   LIG    1       18.985 -31.730  11.326  0.00  0.00    -0.295 OA
ENDBRANCH   1  24
BRANCH   6  26
ATOM     26  O   LIG    1       23.027 -33.825   8.750  0.00  0.00    -0.389 OA
ATOM     27  H   LIG    1       23.304 -34.498   9.402  0.00  0.00    +0.210 HD
ENDBRANCH   6  26
BRANCH   1  28
ATOM     28  O   LIG    1       21.205 -30.297  10.252  0.00  0.00    -0.381 OA
ATOM     29  H   LIG    1       21.109 -29.327  10.215  0.00  0.00    +0.211 HD
ENDBRANCH   1  28
TORSDOF 3
ENDMDL
MODEL 4
REMARK VINA RESULT:      -5.3      2.166      3.374
REMARK  Name = *****
REMARK                            x       y       z     vdW  Elec       q    Type
REMARK                         _______ _______ _______ _____ _____    ______ ____
ROOT
ATOM      1  C   LIG    1       24.434 -30.791   7.930  0.00  0.00    +0.129 C 
ATOM      2  C   LIG    1       25.695 -31.065   8.812  0.00  0.00    +0.009 C 
ATOM      3  C   LIG    1       25.163 -32.062   9.881  0.00  0.00    +0.005 C 
ATOM      4  C   LIG    1       24.384 -31.414  11.060  0.00  0.00    +0.034 C 
ATOM      5  C   LIG    1       25.145 -30.228  11.711  0.00  0.00    +0.153 C 
ATOM      6  C   LIG    1       25.583 -29.200  10.644  0.00  0.00    +0.154 C 
ATOM      7  F   LIG    1       26.335 -30.762  12.182  0.00  0.00    -0.238 F 
ATOM      8  C   LIG    1       24.353 -29.632  12.975  0.00  0.00    +0.044 C 
ATOM      9  C   LIG    1       23.040 -30.427  13.207  0.00  0.00    -0.050 C 
ATOM     10  C   LIG    1       21.833 -29.830  13.263  0.00  0.00    +0.051 C 
ATOM     11  C   LIG    1       21.648 -28.371  13.124  0.00  0.00    +0.179 C 
ATOM     12  C   LIG    1       22.858 -27.558  12.942  0.00  0.00    +0.047 C 
ATOM     13  O   LIG    1       20.535 -27.863  13.161  0.00  0.00    -0.288 OA
ATOM     14  C   LIG    1       23.206 -31.943  13.297  0.00  0.00    +0.013 C 
ATOM     15  C   LIG    1       21.903 -32.758  13.330  0.00  0.00    +0.012 C 
ATOM     16  C   LIG    1       25.228 -29.774  14.248  0.00  0.00    +0.023 C 
ATOM     17  C   LIG    1       24.064 -28.134  12.880  0.00  0.00    -0.009 C 
ATOM     18  C   LIG    1       24.104 -32.469  12.157  0.00  0.00    +0.014 C 
ATOM     19  C   LIG    1       24.266 -32.994   9.052  0.00  0.00    +0.008 C 
ATOM     20  C   LIG    1       26.802 -31.763   7.972  0.00  0.00    +0.015 C 
ATOM     21  C   LIG    1       26.343 -29.843   9.482  0.00  0.00    +0.044 C 
ATOM     22  C   LIG    1       23.667 -32.136   7.933  0.00  0.00    +0.043 C 
ENDROOT
BRANCH   1  24
ATOM     23  C   LIG    1       24.902 -28.822   6.260  0.00  0.00    +0.089 C 
ATOM     24  C   LIG    1       24.746 -30.305   6.489  0.00  0.00    +0.162 C 
ATOM     25  O   LIG    1       24.901 -31.088   5.549  0.00  0.00    -0.295 OA
ENDBRANCH   1  24
BRANCH   6  26
ATOM     26  O   LIG    1       26.495 -28.244  11.215  0.00  0.00    -0.389 OA
ATOM     27  H   LIG    1       26.925 -27.790  10.464  0.00  0.00    +0.210 HD
ENDBRANCH   6  26
BRANCH   1  28
ATOM     28  O   LIG    1       23.589 -29.823   8.555  0.00  0.00    -0.381 OA
ATOM     29  H   LIG    1       22.700 -29.903   8.160  0.00  0.00    +0.211 HD
ENDBRANCH   1  28
TORSDOF 3
ENDMDL
MODEL 5
REMARK VINA RESULT:      -5.3      2.709      6.032
REMARK  Name = *****
REMARK                            x       y       z     vdW  Elec       q    Type
REMARK                         _______ _______ _______ _____ _____    ______ ____
ROOT
ATOM      1  C   LIG    1       21.801 -29.489  12.709  0.00  0.00    +0.129 C 
ATOM      2  C   LIG    1       22.982 -30.344  13.273  0.00  0.00    +0.009 C 
ATOM      3  C   LIG    1       24.238 -29.586  12.756  0.00  0.00    +0.005 C 
ATOM      4  C   LIG    1       24.627 -29.881  11.281  0.00  0.00    +0.034 C 
ATOM      5  C   LIG    1       24.704 -31.398  10.964  0.00  0.00    +0.153 C 
ATOM      6  C   LIG    1       23.408 -32.119  11.399  0.00  0.00    +0.154 C 
ATOM      7  F   LIG    1       25.679 -31.907  11.809  0.00  0.00    -0.238 F 
ATOM      8  C   LIG    1       25.186 -31.671   9.456  0.00  0.00    +0.044 C 
ATOM      9  C   LIG    1       25.460 -30.327   8.731  0.00  0.00    -0.050 C 
ATOM     10  C   LIG    1       24.868 -29.999   7.565  0.00  0.00    +0.051 C 
ATOM     11  C   LIG    1       23.919 -30.889   6.865  0.00  0.00    +0.179 C 
ATOM     12  C   LIG    1       23.648 -32.194   7.482  0.00  0.00    +0.047 C 
ATOM     13  O   LIG    1       23.384 -30.552   5.817  0.00  0.00    -0.288 OA
ATOM     14  C   LIG    1       26.396 -29.370   9.469  0.00  0.00    +0.013 C 
ATOM     15  C   LIG    1       26.525 -27.962   8.865  0.00  0.00    +0.012 C 
ATOM     16  C   LIG    1       26.508 -32.483   9.475  0.00  0.00    +0.023 C 
ATOM     17  C   LIG    1       24.224 -32.535   8.640  0.00  0.00    -0.009 C 
ATOM     18  C   LIG    1       26.003 -29.249  10.956  0.00  0.00    +0.014 C 
ATOM     19  C   LIG    1       23.847 -28.114  12.956  0.00  0.00    +0.008 C 
ATOM     20  C   LIG    1       22.977 -30.317  14.828  0.00  0.00    +0.015 C 
ATOM     21  C   LIG    1       23.024 -31.821  12.849  0.00  0.00    +0.044 C 
ATOM     22  C   LIG    1       22.332 -28.035  12.742  0.00  0.00    +0.043 C 
ENDROOT
BRANCH   1  24
ATOM     23  C   LIG    1       19.944 -28.433  14.232  0.00  0.00    +0.089 C 
ATOM     24  C   LIG    1       20.467 -29.637  13.489  0.00  0.00    +0.162 C 
ATOM     25  O   LIG    1       19.815 -30.684  13.489  0.00  0.00    -0.295 OA
ENDBRANCH   1  24
BRANCH   6  26
ATOM     26  O   LIG    1       23.584 -33.547  11.335  0.00  0.00    -0.389 OA
ATOM     27  H   LIG    1       24.542 -33.702  11.219  0.00  0.00    +0.210 HD
ENDBRANCH   6  26
BRANCH   1  28
ATOM     28  O   LIG    1       21.557 -29.818  11.340  0.00  0.00    -0.381 OA
ATOM     29  H   LIG    1       21.006 -30.622  11.319  0.00  0.00    +0.211 HD
ENDBRANCH   1  28
TORSDOF 3
ENDMDL
MODEL 6
REMARK VINA RESULT:      -5.3      2.678      6.093
REMARK  Name = *****
REMARK                            x       y       z     vdW  Elec       q    Type
REMARK                         _______ _______ _______ _____ _____    ______ ____
ROOT
ATOM      1  C   LIG    1       21.129 -28.299  13.121  0.00  0.00    +0.129 C 
ATOM      2  C   LIG    1       22.008 -29.260  13.986  0.00  0.00    +0.009 C 
ATOM      3  C   LIG    1       23.457 -28.833  13.618  0.00  0.00    +0.005 C 
ATOM      4  C   LIG    1       23.999 -29.414  12.282  0.00  0.00    +0.034 C 
ATOM      5  C   LIG    1       23.809 -30.950  12.166  0.00  0.00    +0.153 C 
ATOM      6  C   LIG    1       22.341 -31.346  12.441  0.00  0.00    +0.154 C 
ATOM      7  F   LIG    1       24.516 -31.495  13.227  0.00  0.00    -0.238 F 
ATOM      8  C   LIG    1       24.450 -31.531  10.813  0.00  0.00    +0.044 C 
ATOM      9  C   LIG    1       25.104 -30.385   9.996  0.00  0.00    -0.050 C 
ATOM     10  C   LIG    1       24.778 -30.135   8.711  0.00  0.00    +0.051 C 
ATOM     11  C   LIG    1       23.785 -30.931   7.962  0.00  0.00    +0.179 C 
ATOM     12  C   LIG    1       23.159 -32.056   8.669  0.00  0.00    +0.047 C 
ATOM     13  O   LIG    1       23.499 -30.664   6.802  0.00  0.00    -0.288 OA
ATOM     14  C   LIG    1       26.092 -29.517  10.772  0.00  0.00    +0.013 C 
ATOM     15  C   LIG    1       26.601 -28.263  10.039  0.00  0.00    +0.012 C 
ATOM     16  C   LIG    1       25.557 -32.559  11.165  0.00  0.00    +0.023 C 
ATOM     17  C   LIG    1       23.467 -32.317   9.944  0.00  0.00    -0.009 C 
ATOM     18  C   LIG    1       25.509 -29.102  12.139  0.00  0.00    +0.014 C 
ATOM     19  C   LIG    1       23.352 -27.301  13.569  0.00  0.00    +0.008 C 
ATOM     20  C   LIG    1       21.769 -28.998  15.500  0.00  0.00    +0.015 C 
ATOM     21  C   LIG    1       21.809 -30.767  13.754  0.00  0.00    +0.044 C 
ATOM     22  C   LIG    1       21.938 -26.979  13.077  0.00  0.00    +0.043 C 
ENDROOT
BRANCH   1  24
ATOM     23  C   LIG    1       19.279 -26.676  14.030  0.00  0.00    +0.089 C 
ATOM     24  C   LIG    1       19.690 -28.079  13.659  0.00  0.00    +0.162 C 
ATOM     25  O   LIG    1       18.875 -29.000  13.758  0.00  0.00    -0.295 OA
ENDBRANCH   1  24
BRANCH   6  26
ATOM     26  O   LIG    1       22.226 -32.775  12.580  0.00  0.00    -0.389 OA
ATOM     27  H   LIG    1       21.993 -32.944  13.514  0.00  0.00    +0.210 HD
ENDBRANCH   6  26
BRANCH   1  28
ATOM     28  O   LIG    1       21.036 -28.780  11.779  0.00  0.00    -0.381 OA
ATOM     29  H   LIG    1       21.914 -28.684  11.365  0.00  0.00    +0.211 HD
ENDBRANCH   1  28
TORSDOF 3
ENDMDL
MODEL 7
REMARK VINA RESULT:      -4.7      1.066      1.182
REMARK  Name = *****
REMARK                            x       y       z     vdW  Elec       q    Type
REMARK                         _______ _______ _______ _____ _____    ______ ____
ROOT
ATOM      1  C   LIG    1       25.405 -31.008   9.223  0.00  0.00    +0.129 C 
ATOM      2  C   LIG    1       24.598 -31.959  10.166  0.00  0.00    +0.009 C 
ATOM      3  C   LIG    1       23.441 -31.051  10.670  0.00  0.00    +0.005 C 
ATOM      4  C   LIG    1       23.813 -30.089  11.832  0.00  0.00    +0.034 C 
ATOM      5  C   LIG    1       24.532 -30.805  13.007  0.00  0.00    +0.153 C 
ATOM      6  C   LIG    1       25.737 -31.626  12.498  0.00  0.00    +0.154 C 
ATOM      7  F   LIG    1       23.636 -31.758  13.467  0.00  0.00    -0.238 F 
ATOM      8  C   LIG    1       24.832 -29.801  14.225  0.00  0.00    +0.044 C 
ATOM      9  C   LIG    1       24.299 -28.382  13.892  0.00  0.00    -0.050 C 
ATOM     10  C   LIG    1       25.083 -27.287  13.933  0.00  0.00    +0.051 C 
ATOM     11  C   LIG    1       26.511 -27.331  14.308  0.00  0.00    +0.179 C 
ATOM     12  C   LIG    1       27.066 -28.641  14.672  0.00  0.00    +0.047 C 
ATOM     13  O   LIG    1       27.200 -26.319  14.315  0.00  0.00    -0.288 OA
ATOM     14  C   LIG    1       22.838 -28.325  13.448  0.00  0.00    +0.013 C 
ATOM     15  C   LIG    1       22.349 -26.962  12.928  0.00  0.00    +0.012 C 
ATOM     16  C   LIG    1       24.099 -30.301  15.498  0.00  0.00    +0.023 C 
ATOM     17  C   LIG    1       26.303 -29.740  14.635  0.00  0.00    -0.009 C 
ATOM     18  C   LIG    1       22.540 -29.407  12.388  0.00  0.00    +0.014 C 
ATOM     19  C   LIG    1       23.043 -30.281   9.402  0.00  0.00    +0.008 C 
ATOM     20  C   LIG    1       23.999 -33.144   9.356  0.00  0.00    +0.015 C 
ATOM     21  C   LIG    1       25.368 -32.567  11.350  0.00  0.00    +0.044 C 
ATOM     22  C   LIG    1       24.326 -30.100   8.584  0.00  0.00    +0.043 C 
ENDROOT
BRANCH   1  24
ATOM     23  C   LIG    1       25.841 -31.609   6.707  0.00  0.00    +0.089 C 
ATOM     24  C   LIG    1       26.260 -31.734   8.151  0.00  0.00    +0.162 C 
ATOM     25  O   LIG    1       27.276 -32.371   8.439  0.00  0.00    -0.295 OA
ENDBRANCH   1  24
BRANCH   6  26
ATOM     26  O   LIG    1       26.239 -32.479  13.544  0.00  0.00    -0.389 OA
ATOM     27  H   LIG    1       27.214 -32.462  13.471  0.00  0.00    +0.210 HD
ENDBRANCH   6  26
BRANCH   1  28
ATOM     28  O   LIG    1       26.268 -30.163   9.987  0.00  0.00    -0.381 OA
ATOM     29  H   LIG    1       25.727 -29.721  10.668  0.00  0.00    +0.211 HD
ENDBRANCH   1  28
TORSDOF 3
ENDMDL
MODEL 8
REMARK VINA RESULT:      -4.6      2.214      5.861
REMARK  Name = *****
REMARK                            x       y       z     vdW  Elec       q    Type
REMARK                         _______ _______ _______ _____ _____    ______ ____
ROOT
ATOM      1  C   LIG    1       22.635 -27.565  13.886  0.00  0.00    +0.129 C 
ATOM      2  C   LIG    1       22.648 -29.111  14.118  0.00  0.00    +0.009 C 
ATOM      3  C   LIG    1       24.166 -29.446  14.149  0.00  0.00    +0.005 C 
ATOM      4  C   LIG    1       24.845 -29.572  12.756  0.00  0.00    +0.034 C 
ATOM      5  C   LIG    1       24.072 -30.506  11.787  0.00  0.00    +0.153 C 
ATOM      6  C   LIG    1       22.585 -30.099  11.696  0.00  0.00    +0.154 C 
ATOM      7  F   LIG    1       24.051 -31.748  12.403  0.00  0.00    -0.238 F 
ATOM      8  C   LIG    1       24.839 -30.680  10.386  0.00  0.00    +0.044 C 
ATOM      9  C   LIG    1       26.162 -29.869  10.397  0.00  0.00    -0.050 C 
ATOM     10  C   LIG    1       26.455 -28.949   9.456  0.00  0.00    +0.051 C 
ATOM     11  C   LIG    1       25.557 -28.637   8.325  0.00  0.00    +0.179 C 
ATOM     12  C   LIG    1       24.304 -29.400   8.238  0.00  0.00    +0.047 C 
ATOM     13  O   LIG    1       25.845 -27.782   7.499  0.00  0.00    -0.288 OA
ATOM     14  C   LIG    1       27.078 -30.138  11.589  0.00  0.00    +0.013 C 
ATOM     15  C   LIG    1       28.296 -29.208  11.721  0.00  0.00    +0.012 C 
ATOM     16  C   LIG    1       25.196 -32.174  10.173  0.00  0.00    +0.023 C 
ATOM     17  C   LIG    1       23.995 -30.314   9.164  0.00  0.00    -0.009 C 
ATOM     18  C   LIG    1       26.284 -30.121  12.912  0.00  0.00    +0.014 C 
ATOM     19  C   LIG    1       24.750 -28.280  14.961  0.00  0.00    +0.008 C 
ATOM     20  C   LIG    1       22.023 -29.457  15.499  0.00  0.00    +0.015 C 
ATOM     21  C   LIG    1       21.923 -29.969  13.069  0.00  0.00    +0.044 C 
ATOM     22  C   LIG    1       23.886 -27.055  14.643  0.00  0.00    +0.043 C 
ENDROOT
BRANCH   1  24
ATOM     23  C   LIG    1       20.158 -26.836  13.422  0.00  0.00    +0.089 C 
ATOM     24  C   LIG    1       21.341 -26.851  14.359  0.00  0.00    +0.162 C 
ATOM     25  O   LIG    1       21.243 -26.335  15.474  0.00  0.00    -0.295 OA
ENDBRANCH   1  24
BRANCH   6  26
ATOM     26  O   LIG    1       21.830 -31.110  11.001  0.00  0.00    -0.389 OA
ATOM     27  H   LIG    1       20.899 -30.994  11.272  0.00  0.00    +0.210 HD
ENDBRANCH   6  26
BRANCH   1  28
ATOM     28  O   LIG    1       22.830 -27.267  12.502  0.00  0.00    -0.381 OA
ATOM     29  H   LIG    1       21.990 -27.440  12.038  0.00  0.00    +0.211 HD
ENDBRANCH   1  28
TORSDOF 3
ENDMDL
MODEL 9
REMARK VINA RESULT:      -4.5      1.666      1.987
REMARK  Name = *****
REMARK                            x       y       z     vdW  Elec       q    Type
REMARK                         _______ _______ _______ _____ _____    ______ ____
ROOT
ATOM      1  C   LIG    1       24.165 -30.508   9.274  0.00  0.00    +0.129 C 
ATOM      2  C   LIG    1       25.250 -31.357  10.014  0.00  0.00    +0.009 C 
ATOM      3  C   LIG    1       24.651 -31.520  11.440  0.00  0.00    +0.005 C 
ATOM      4  C   LIG    1       24.851 -30.301  12.384  0.00  0.00    +0.034 C 
ATOM      5  C   LIG    1       26.320 -29.805  12.433  0.00  0.00    +0.153 C 
ATOM      6  C   LIG    1       26.867 -29.557  11.010  0.00  0.00    +0.154 C 
ATOM      7  F   LIG    1       27.061 -30.879  12.904  0.00  0.00    -0.238 F 
ATOM      8  C   LIG    1       26.510 -28.598  13.477  0.00  0.00    +0.044 C 
ATOM      9  C   LIG    1       25.158 -28.271  14.166  0.00  0.00    -0.050 C 
ATOM     10  C   LIG    1       24.623 -27.033  14.158  0.00  0.00    +0.051 C 
ATOM     11  C   LIG    1       25.274 -25.877  13.509  0.00  0.00    +0.179 C 
ATOM     12  C   LIG    1       26.576 -26.115  12.872  0.00  0.00    +0.047 C 
ATOM     13  O   LIG    1       24.751 -24.771  13.504  0.00  0.00    -0.288 OA
ATOM     14  C   LIG    1       24.444 -29.466  14.794  0.00  0.00    +0.013 C 
ATOM     15  C   LIG    1       23.019 -29.199  15.308  0.00  0.00    +0.012 C 
ATOM     16  C   LIG    1       27.518 -29.020  14.578  0.00  0.00    +0.023 C 
ATOM     17  C   LIG    1       27.121 -27.337  12.867  0.00  0.00    -0.009 C 
ATOM     18  C   LIG    1       24.415 -30.666  13.824  0.00  0.00    +0.014 C 
ATOM     19  C   LIG    1       23.165 -31.777  11.153  0.00  0.00    +0.008 C 
ATOM     20  C   LIG    1       25.382 -32.759   9.355  0.00  0.00    +0.015 C 
ATOM     21  C   LIG    1       26.663 -30.756  10.082  0.00  0.00    +0.044 C 
ATOM     22  C   LIG    1       22.825 -30.984   9.886  0.00  0.00    +0.043 C 
ENDROOT
BRANCH   1  24
ATOM     23  C   LIG    1       25.110 -29.757   6.945  0.00  0.00    +0.089 C 
ATOM     24  C   LIG    1       24.179 -30.647   7.729  0.00  0.00    +0.162 C 
ATOM     25  O   LIG    1       23.485 -31.477   7.136  0.00  0.00    -0.295 OA
ENDBRANCH   1  24
BRANCH   6  26
ATOM     26  O   LIG    1       28.291 -29.344  11.051  0.00  0.00    -0.389 OA
ATOM     27  H   LIG    1       28.512 -28.809  10.263  0.00  0.00    +0.210 HD
ENDBRANCH   6  26
BRANCH   1  28
ATOM     28  O   LIG    1       24.308 -29.123   9.600  0.00  0.00    -0.381 OA
ATOM     29  H   LIG    1       23.551 -28.646   9.211  0.00  0.00    +0.211 HD
ENDBRANCH   1  28
TORSDOF 3
ENDMDL
