MODEL 1
REMARK VINA RESULT:     -10.4      0.000      0.000
REMARK  Name = *****
REMARK                            x       y       z     vdW  Elec       q    Type
REMARK                         _______ _______ _______ _____ _____    ______ ____
ROOT
ATOM      1  N   LIG    1       27.148 -20.534   5.292  0.00  0.00    -0.311 NA
ATOM      2  H   LIG    1       27.622 -21.079   4.572  0.00  0.00    +0.122 HD
ENDROOT
BRANCH   1   3
ATOM      3  C   LIG    1       25.958 -19.888   4.701  0.00  0.00    +0.115 C 
BRANCH   3   4
ATOM      4  C   LIG    1       24.656 -20.590   5.145  0.00  0.00    +0.169 C 
BRANCH   4   5
ATOM      5  C   LIG    1       24.652 -20.843   6.674  0.00  0.00    +0.203 C 
ATOM      6  O   LIG    1       25.585 -21.879   7.032  0.00  0.00    -0.486 OA
ATOM      7  C   LIG    1       25.142 -23.160   6.830  0.00  0.00    +0.124 A 
ATOM      8  C   LIG    1       23.792 -23.494   6.678  0.00  0.00    -0.003 A 
ATOM      9  C   LIG    1       23.450 -24.833   6.425  0.00  0.00    +0.045 A 
ATOM     10  C   LIG    1       24.447 -25.799   6.360  0.00  0.00    +0.124 A 
ATOM     11  C   LIG    1       25.781 -25.475   6.550  0.00  0.00    +0.042 A 
ATOM     12  F   LIG    1       24.109 -27.075   6.108  0.00  0.00    -0.205 F 
ATOM     13  C   LIG    1       22.718 -22.449   6.753  0.00  0.00    +0.042 C 
ATOM     14  C   LIG    1       26.132 -24.143   6.791  0.00  0.00    +0.049 A 
ATOM     15  C   LIG    1       23.274 -21.132   7.275  0.00  0.00    +0.052 C 
ENDBRANCH   4   5
BRANCH   4  16
ATOM     16  O   LIG    1       23.528 -19.783   4.782  0.00  0.00    -0.387 OA
ATOM     17  H   LIG    1       23.895 -19.011   4.315  0.00  0.00    +0.210 HD
ENDBRANCH   4  16
ENDBRANCH   3   4
ENDBRANCH   1   3
BRANCH   1  18
ATOM     18  C   LIG    1       28.090 -19.506   5.770  0.00  0.00    +0.115 C 
BRANCH  18  19
ATOM     19  C   LIG    1       28.836 -19.967   7.048  0.00  0.00    +0.169 C 
BRANCH  19  20
ATOM     20  C   LIG    1       29.817 -18.898   7.573  0.00  0.00    +0.203 C 
ATOM     21  O   LIG    1       29.508 -18.643   8.953  0.00  0.00    -0.486 OA
ATOM     22  C   LIG    1       30.432 -17.896   9.631  0.00  0.00    +0.124 A 
ATOM     23  C   LIG    1       31.728 -17.648   9.158  0.00  0.00    -0.003 A 
ATOM     24  C   LIG    1       32.599 -16.871   9.931  0.00  0.00    +0.045 A 
ATOM     25  C   LIG    1       32.181 -16.382  11.164  0.00  0.00    +0.124 A 
ATOM     26  C   LIG    1       30.906 -16.648  11.646  0.00  0.00    +0.042 A 
ATOM     27  F   LIG    1       33.025 -15.647  11.899  0.00  0.00    -0.205 F 
ATOM     28  C   LIG    1       32.180 -18.180   7.831  0.00  0.00    +0.042 C 
ATOM     29  C   LIG    1       30.027 -17.409  10.877  0.00  0.00    +0.049 A 
ATOM     30  C   LIG    1       31.279 -19.321   7.392  0.00  0.00    +0.052 C 
ENDBRANCH  19  20
BRANCH  19  31
ATOM     31  O   LIG    1       27.918 -20.315   8.094  0.00  0.00    -0.387 OA
ATOM     32  H   LIG    1       28.436 -20.399   8.915  0.00  0.00    +0.210 HD
ENDBRANCH  19  31
ENDBRANCH  18  19
ENDBRANCH   1  18
TORSDOF 8
ENDMDL
MODEL 2
REMARK VINA RESULT:      -9.5      2.167      3.330
REMARK  Name = *****
REMARK                            x       y       z     vdW  Elec       q    Type
REMARK                         _______ _______ _______ _____ _____    ______ ____
ROOT
ATOM      1  N   LIG    1       26.805 -20.280   8.218  0.00  0.00    -0.311 NA
ATOM      2  H   LIG    1       27.208 -21.017   8.797  0.00  0.00    +0.122 HD
ENDROOT
BRANCH   1   3
ATOM      3  C   LIG    1       25.467 -20.705   7.760  0.00  0.00    +0.115 C 
BRANCH   3   4
ATOM      4  C   LIG    1       25.203 -22.191   8.092  0.00  0.00    +0.169 C 
BRANCH   4   5
ATOM      5  C   LIG    1       24.964 -23.017   6.804  0.00  0.00    +0.203 C 
ATOM      6  O   LIG    1       25.304 -22.259   5.629  0.00  0.00    -0.486 OA
ATOM      7  C   LIG    1       24.353 -21.361   5.217  0.00  0.00    +0.124 A 
ATOM      8  C   LIG    1       23.012 -21.421   5.615  0.00  0.00    -0.003 A 
ATOM      9  C   LIG    1       22.130 -20.421   5.174  0.00  0.00    +0.045 A 
ATOM     10  C   LIG    1       22.593 -19.415   4.334  0.00  0.00    +0.124 A 
ATOM     11  C   LIG    1       23.911 -19.378   3.908  0.00  0.00    +0.042 A 
ATOM     12  F   LIG    1       21.741 -18.458   3.925  0.00  0.00    -0.205 F 
ATOM     13  C   LIG    1       22.516 -22.511   6.519  0.00  0.00    +0.042 C 
ATOM     14  C   LIG    1       24.799 -20.363   4.350  0.00  0.00    +0.049 A 
ATOM     15  C   LIG    1       23.559 -23.610   6.671  0.00  0.00    +0.052 C 
ENDBRANCH   4   5
BRANCH   4  16
ATOM     16  O   LIG    1       26.321 -22.727   8.814  0.00  0.00    -0.387 OA
ATOM     17  H   LIG    1       25.938 -23.246   9.544  0.00  0.00    +0.210 HD
ENDBRANCH   4  16
ENDBRANCH   3   4
ENDBRANCH   1   3
BRANCH   1  18
ATOM     18  C   LIG    1       27.693 -20.085   7.057  0.00  0.00    +0.115 C 
BRANCH  18  19
ATOM     19  C   LIG    1       29.157 -20.468   7.390  0.00  0.00    +0.169 C 
BRANCH  19  20
ATOM     20  C   LIG    1       30.012 -19.244   7.776  0.00  0.00    +0.203 C 
ATOM     21  O   LIG    1       29.767 -18.941   9.158  0.00  0.00    -0.486 OA
ATOM     22  C   LIG    1       30.622 -18.032   9.719  0.00  0.00    +0.124 A 
ATOM     23  C   LIG    1       31.834 -17.642   9.133  0.00  0.00    -0.003 A 
ATOM     24  C   LIG    1       32.639 -16.705   9.791  0.00  0.00    +0.045 A 
ATOM     25  C   LIG    1       32.244 -16.195  11.023  0.00  0.00    +0.124 A 
ATOM     26  C   LIG    1       31.055 -16.599  11.617  0.00  0.00    +0.042 A 
ATOM     27  F   LIG    1       33.025 -15.305  11.647  0.00  0.00    -0.205 F 
ATOM     28  C   LIG    1       32.263 -18.196   7.808  0.00  0.00    +0.042 C 
ATOM     29  C   LIG    1       30.240 -17.522  10.963  0.00  0.00    +0.049 A 
ATOM     30  C   LIG    1       31.503 -19.475   7.506  0.00  0.00    +0.052 C 
ENDBRANCH  19  20
BRANCH  19  31
ATOM     31  O   LIG    1       29.218 -21.434   8.449  0.00  0.00    -0.387 OA
ATOM     32  H   LIG    1       29.667 -21.009   9.201  0.00  0.00    +0.210 HD
ENDBRANCH  19  31
ENDBRANCH  18  19
ENDBRANCH   1  18
TORSDOF 8
ENDMDL
MODEL 3
REMARK VINA RESULT:      -9.3      2.654      9.183
REMARK  Name = *****
REMARK                            x       y       z     vdW  Elec       q    Type
REMARK                         _______ _______ _______ _____ _____    ______ ____
ROOT
ATOM      1  N   LIG    1       29.491 -21.911   7.649  0.00  0.00    -0.311 NA
ATOM      2  H   LIG    1       29.197 -22.730   8.182  0.00  0.00    +0.122 HD
ENDROOT
BRANCH   1   3
ATOM      3  C   LIG    1       30.004 -20.888   8.582  0.00  0.00    +0.115 C 
BRANCH   3   4
ATOM      4  C   LIG    1       31.393 -20.373   8.146  0.00  0.00    +0.169 C 
BRANCH   4   5
ATOM      5  C   LIG    1       31.286 -18.980   7.475  0.00  0.00    +0.203 C 
ATOM      6  O   LIG    1       32.271 -18.072   8.001  0.00  0.00    -0.486 OA
ATOM      7  C   LIG    1       31.956 -17.503   9.208  0.00  0.00    +0.124 A 
ATOM      8  C   LIG    1       30.655 -17.457   9.723  0.00  0.00    -0.003 A 
ATOM      9  C   LIG    1       30.449 -16.895  10.993  0.00  0.00    +0.045 A 
ATOM     10  C   LIG    1       31.526 -16.372  11.698  0.00  0.00    +0.124 A 
ATOM     11  C   LIG    1       32.808 -16.381  11.172  0.00  0.00    +0.042 A 
ATOM     12  F   LIG    1       31.319 -15.844  12.917  0.00  0.00    -0.205 F 
ATOM     13  C   LIG    1       29.494 -18.021   8.956  0.00  0.00    +0.042 C 
ATOM     14  C   LIG    1       33.025 -16.949   9.913  0.00  0.00    +0.049 A 
ATOM     15  C   LIG    1       29.893 -18.347   7.524  0.00  0.00    +0.052 C 
ENDBRANCH   4   5
BRANCH   4  16
ATOM     16  O   LIG    1       32.258 -20.298   9.287  0.00  0.00    -0.387 OA
ATOM     17  H   LIG    1       31.704 -20.534  10.053  0.00  0.00    +0.210 HD
ENDBRANCH   4  16
ENDBRANCH   3   4
ENDBRANCH   1   3
BRANCH   1  18
ATOM     18  C   LIG    1       28.309 -21.392   6.937  0.00  0.00    +0.115 C 
BRANCH  18  19
ATOM     19  C   LIG    1       27.004 -22.061   7.436  0.00  0.00    +0.169 C 
BRANCH  19  20
ATOM     20  C   LIG    1       25.757 -21.195   7.159  0.00  0.00    +0.203 C 
ATOM     21  O   LIG    1       25.813 -20.748   5.795  0.00  0.00    -0.486 OA
ATOM     22  C   LIG    1       24.667 -20.168   5.322  0.00  0.00    +0.124 A 
ATOM     23  C   LIG    1       23.426 -20.263   5.966  0.00  0.00    -0.003 A 
ATOM     24  C   LIG    1       22.313 -19.633   5.397  0.00  0.00    +0.045 A 
ATOM     25  C   LIG    1       22.444 -18.949   4.193  0.00  0.00    +0.124 A 
ATOM     26  C   LIG    1       23.669 -18.875   3.540  0.00  0.00    +0.042 A 
ATOM     27  F   LIG    1       21.372 -18.357   3.653  0.00  0.00    -0.205 F 
ATOM     28  C   LIG    1       23.283 -21.005   7.261  0.00  0.00    +0.042 C 
ATOM     29  C   LIG    1       24.785 -19.488   4.107  0.00  0.00    +0.049 A 
ATOM     30  C   LIG    1       24.456 -21.950   7.452  0.00  0.00    +0.052 C 
ENDBRANCH  19  20
BRANCH  19  31
ATOM     31  O   LIG    1       26.817 -23.354   6.843  0.00  0.00    -0.387 OA
ATOM     32  H   LIG    1       26.806 -23.229   5.877  0.00  0.00    +0.210 HD
ENDBRANCH  19  31
ENDBRANCH  18  19
ENDBRANCH   1  18
TORSDOF 8
ENDMDL
MODEL 4
REMARK VINA RESULT:      -8.9      6.542      8.927
REMARK  Name = *****
REMARK                            x       y       z     vdW  Elec       q    Type
REMARK                         _______ _______ _______ _____ _____    ______ ____
ROOT
ATOM      1  N   LIG    1       24.067 -26.967   6.191  0.00  0.00    -0.311 NA
ATOM      2  H   LIG    1       24.797 -26.981   6.904  0.00  0.00    +0.122 HD
ENDROOT
BRANCH   1   3
ATOM      3  C   LIG    1       24.096 -28.243   5.447  0.00  0.00    +0.115 C 
BRANCH   3   4
ATOM      4  C   LIG    1       25.062 -29.255   6.103  0.00  0.00    +0.169 C 
BRANCH   4   5
ATOM      5  C   LIG    1       24.353 -30.606   6.373  0.00  0.00    +0.203 C 
ATOM      6  O   LIG    1       23.503 -30.526   7.531  0.00  0.00    -0.486 OA
ATOM      7  C   LIG    1       24.147 -30.635   8.737  0.00  0.00    +0.124 A 
ATOM      8  C   LIG    1       25.430 -31.173   8.880  0.00  0.00    -0.003 A 
ATOM      9  C   LIG    1       26.018 -31.192  10.156  0.00  0.00    +0.045 A 
ATOM     10  C   LIG    1       25.310 -30.706  11.249  0.00  0.00    +0.124 A 
ATOM     11  C   LIG    1       24.023 -30.209  11.113  0.00  0.00    +0.042 A 
ATOM     12  F   LIG    1       25.886 -30.720  12.463  0.00  0.00    -0.205 F 
ATOM     13  C   LIG    1       26.190 -31.700   7.698  0.00  0.00    +0.042 C 
ATOM     14  C   LIG    1       23.434 -30.176   9.846  0.00  0.00    +0.049 A 
ATOM     15  C   LIG    1       25.288 -31.814   6.477  0.00  0.00    +0.052 C 
ENDBRANCH   4   5
BRANCH   4  16
ATOM     16  O   LIG    1       26.194 -29.461   5.248  0.00  0.00    -0.387 OA
ATOM     17  H   LIG    1       26.014 -28.943   4.442  0.00  0.00    +0.210 HD
ENDBRANCH   4  16
ENDBRANCH   3   4
ENDBRANCH   1   3
BRANCH   1  18
ATOM     18  C   LIG    1       24.354 -25.847   5.276  0.00  0.00    +0.115 C 
BRANCH  18  19
ATOM     19  C   LIG    1       25.431 -24.897   5.859  0.00  0.00    +0.169 C 
BRANCH  19  20
ATOM     20  C   LIG    1       24.886 -23.476   6.111  0.00  0.00    +0.203 C 
ATOM     21  O   LIG    1       24.871 -22.771   4.859  0.00  0.00    -0.486 OA
ATOM     22  C   LIG    1       24.196 -21.581   4.865  0.00  0.00    +0.124 A 
ATOM     23  C   LIG    1       23.317 -21.192   5.885  0.00  0.00    -0.003 A 
ATOM     24  C   LIG    1       22.675 -19.952   5.795  0.00  0.00    +0.045 A 
ATOM     25  C   LIG    1       22.893 -19.137   4.689  0.00  0.00    +0.124 A 
ATOM     26  C   LIG    1       23.745 -19.532   3.665  0.00  0.00    +0.042 A 
ATOM     27  F   LIG    1       22.267 -17.957   4.610  0.00  0.00    -0.205 F 
ATOM     28  C   LIG    1       23.078 -22.073   7.074  0.00  0.00    +0.042 C 
ATOM     29  C   LIG    1       24.399 -20.760   3.753  0.00  0.00    +0.049 A 
ATOM     30  C   LIG    1       23.499 -23.498   6.761  0.00  0.00    +0.052 C 
ENDBRANCH  19  20
BRANCH  19  31
ATOM     31  O   LIG    1       25.977 -25.412   7.082  0.00  0.00    -0.387 OA
ATOM     32  H   LIG    1       25.430 -26.173   7.345  0.00  0.00    +0.210 HD
ENDBRANCH  19  31
ENDBRANCH  18  19
ENDBRANCH   1  18
TORSDOF 8
ENDMDL
MODEL 5
REMARK VINA RESULT:      -8.8      6.285      9.548
REMARK  Name = *****
REMARK                            x       y       z     vdW  Elec       q    Type
REMARK                         _______ _______ _______ _____ _____    ______ ____
ROOT
ATOM      1  N   LIG    1       24.396 -29.765   8.002  0.00  0.00    -0.311 NA
ATOM      2  H   LIG    1       23.920 -29.119   8.633  0.00  0.00    +0.122 HD
ENDROOT
BRANCH   1   3
ATOM      3  C   LIG    1       25.390 -30.541   8.771  0.00  0.00    +0.115 C 
BRANCH   3   4
ATOM      4  C   LIG    1       26.085 -29.668   9.838  0.00  0.00    +0.169 C 
BRANCH   4   5
ATOM      5  C   LIG    1       26.020 -30.335  11.235  0.00  0.00    +0.203 C 
ATOM      6  O   LIG    1       24.658 -30.502  11.668  0.00  0.00    -0.486 OA
ATOM      7  C   LIG    1       24.070 -29.379  12.190  0.00  0.00    +0.124 A 
ATOM      8  C   LIG    1       24.792 -28.272  12.651  0.00  0.00    -0.003 A 
ATOM      9  C   LIG    1       24.088 -27.152  13.121  0.00  0.00    +0.045 A 
ATOM     10  C   LIG    1       22.699 -27.171  13.147  0.00  0.00    +0.124 A 
ATOM     11  C   LIG    1       21.984 -28.281  12.728  0.00  0.00    +0.042 A 
ATOM     12  F   LIG    1       22.036 -26.089  13.590  0.00  0.00    -0.205 F 
ATOM     13  C   LIG    1       26.293 -28.257  12.624  0.00  0.00    +0.042 C 
ATOM     14  C   LIG    1       22.675 -29.398  12.248  0.00  0.00    +0.049 A 
ATOM     15  C   LIG    1       26.847 -29.642  12.320  0.00  0.00    +0.052 C 
ENDBRANCH   4   5
BRANCH   4  16
ATOM     16  O   LIG    1       27.453 -29.451   9.466  0.00  0.00    -0.387 OA
ATOM     17  H   LIG    1       27.946 -30.214   9.820  0.00  0.00    +0.210 HD
ENDBRANCH   4  16
ENDBRANCH   3   4
ENDBRANCH   1   3
BRANCH   1  18
ATOM     18  C   LIG    1       25.077 -28.963   6.969  0.00  0.00    +0.115 C 
BRANCH  18  19
ATOM     19  C   LIG    1       24.074 -28.094   6.169  0.00  0.00    +0.169 C 
BRANCH  19  20
ATOM     20  C   LIG    1       24.558 -26.639   6.004  0.00  0.00    +0.203 C 
ATOM     21  O   LIG    1       23.512 -25.762   6.451  0.00  0.00    -0.486 OA
ATOM     22  C   LIG    1       23.869 -24.449   6.592  0.00  0.00    +0.124 A 
ATOM     23  C   LIG    1       25.198 -24.004   6.616  0.00  0.00    -0.003 A 
ATOM     24  C   LIG    1       25.456 -22.637   6.767  0.00  0.00    +0.045 A 
ATOM     25  C   LIG    1       24.400 -21.744   6.918  0.00  0.00    +0.124 A 
ATOM     26  C   LIG    1       23.082 -22.187   6.920  0.00  0.00    +0.042 A 
ATOM     27  F   LIG    1       24.658 -20.440   7.070  0.00  0.00    -0.205 F 
ATOM     28  C   LIG    1       26.336 -24.967   6.459  0.00  0.00    +0.042 C 
ATOM     29  C   LIG    1       22.816 -23.545   6.757  0.00  0.00    +0.049 A 
ATOM     30  C   LIG    1       25.869 -26.381   6.755  0.00  0.00    +0.052 C 
ENDBRANCH  19  20
BRANCH  19  31
ATOM     31  O   LIG    1       23.815 -28.652   4.872  0.00  0.00    -0.387 OA
ATOM     32  H   LIG    1       23.325 -29.482   5.008  0.00  0.00    +0.210 HD
ENDBRANCH  19  31
ENDBRANCH  18  19
ENDBRANCH   1  18
TORSDOF 8
ENDMDL
MODEL 6
REMARK VINA RESULT:      -8.8      6.581      8.831
REMARK  Name = *****
REMARK                            x       y       z     vdW  Elec       q    Type
REMARK                         _______ _______ _______ _____ _____    ______ ____
ROOT
ATOM      1  N   LIG    1       24.786 -27.288   5.139  0.00  0.00    -0.311 NA
ATOM      2  H   LIG    1       24.585 -27.381   4.143  0.00  0.00    +0.122 HD
ENDROOT
BRANCH   1   3
ATOM      3  C   LIG    1       24.120 -28.385   5.869  0.00  0.00    +0.115 C 
BRANCH   3   4
ATOM      4  C   LIG    1       24.803 -28.654   7.228  0.00  0.00    +0.169 C 
BRANCH   4   5
ATOM      5  C   LIG    1       24.792 -30.166   7.569  0.00  0.00    +0.203 C 
ATOM      6  O   LIG    1       23.599 -30.529   8.287  0.00  0.00    -0.486 OA
ATOM      7  C   LIG    1       23.613 -30.239   9.627  0.00  0.00    +0.124 A 
ATOM      8  C   LIG    1       24.785 -29.990  10.350  0.00  0.00    -0.003 A 
ATOM      9  C   LIG    1       24.683 -29.652  11.710  0.00  0.00    +0.045 A 
ATOM     10  C   LIG    1       23.433 -29.600  12.315  0.00  0.00    +0.124 A 
ATOM     11  C   LIG    1       22.275 -29.885  11.609  0.00  0.00    +0.042 A 
ATOM     12  F   LIG    1       23.346 -29.267  13.615  0.00  0.00    -0.205 F 
ATOM     13  C   LIG    1       26.133 -30.050   9.693  0.00  0.00    +0.042 C 
ATOM     14  C   LIG    1       22.366 -30.212  10.253  0.00  0.00    +0.049 A 
ATOM     15  C   LIG    1       26.036 -30.669   8.306  0.00  0.00    +0.052 C 
ENDBRANCH   4   5
BRANCH   4  16
ATOM     16  O   LIG    1       26.153 -28.173   7.191  0.00  0.00    -0.387 OA
ATOM     17  H   LIG    1       26.151 -27.343   7.702  0.00  0.00    +0.210 HD
ENDBRANCH   4  16
ENDBRANCH   3   4
ENDBRANCH   1   3
BRANCH   1  18
ATOM     18  C   LIG    1       24.248 -25.990   5.586  0.00  0.00    +0.115 C 
BRANCH  18  19
ATOM     19  C   LIG    1       25.371 -24.938   5.765  0.00  0.00    +0.169 C 
BRANCH  19  20
ATOM     20  C   LIG    1       24.816 -23.529   6.056  0.00  0.00    +0.203 C 
ATOM     21  O   LIG    1       24.840 -22.773   4.835  0.00  0.00    -0.486 OA
ATOM     22  C   LIG    1       24.163 -21.584   4.868  0.00  0.00    +0.124 A 
ATOM     23  C   LIG    1       23.250 -21.239   5.873  0.00  0.00    -0.003 A 
ATOM     24  C   LIG    1       22.608 -19.997   5.814  0.00  0.00    +0.045 A 
ATOM     25  C   LIG    1       22.861 -19.136   4.750  0.00  0.00    +0.124 A 
ATOM     26  C   LIG    1       23.747 -19.488   3.739  0.00  0.00    +0.042 A 
ATOM     27  F   LIG    1       22.235 -17.954   4.698  0.00  0.00    -0.205 F 
ATOM     28  C   LIG    1       22.974 -22.169   7.017  0.00  0.00    +0.042 C 
ATOM     29  C   LIG    1       24.401 -20.718   3.798  0.00  0.00    +0.049 A 
ATOM     30  C   LIG    1       23.408 -23.579   6.659  0.00  0.00    +0.052 C 
ENDBRANCH  19  20
BRANCH  19  31
ATOM     31  O   LIG    1       26.276 -25.310   6.814  0.00  0.00    -0.387 OA
ATOM     32  H   LIG    1       26.574 -26.219   6.629  0.00  0.00    +0.210 HD
ENDBRANCH  19  31
ENDBRANCH  18  19
ENDBRANCH   1  18
TORSDOF 8
ENDMDL
MODEL 7
REMARK VINA RESULT:      -8.7      5.398      9.676
REMARK  Name = *****
REMARK                            x       y       z     vdW  Elec       q    Type
REMARK                         _______ _______ _______ _____ _____    ______ ____
ROOT
ATOM      1  N   LIG    1       24.336 -26.853   6.151  0.00  0.00    -0.311 NA
ATOM      2  H   LIG    1       23.418 -27.265   6.321  0.00  0.00    +0.122 HD
ENDROOT
BRANCH   1   3
ATOM      3  C   LIG    1       24.163 -25.574   5.432  0.00  0.00    +0.115 C 
BRANCH   3   4
ATOM      4  C   LIG    1       25.189 -24.520   5.902  0.00  0.00    +0.169 C 
BRANCH   4   5
ATOM      5  C   LIG    1       24.545 -23.517   6.891  0.00  0.00    +0.203 C 
ATOM      6  O   LIG    1       23.617 -22.646   6.218  0.00  0.00    -0.486 OA
ATOM      7  C   LIG    1       24.185 -21.598   5.542  0.00  0.00    +0.124 A 
ATOM      8  C   LIG    1       25.485 -21.140   5.780  0.00  0.00    -0.003 A 
ATOM      9  C   LIG    1       25.987 -20.089   4.995  0.00  0.00    +0.045 A 
ATOM     10  C   LIG    1       25.182 -19.509   4.023  0.00  0.00    +0.124 A 
ATOM     11  C   LIG    1       23.880 -19.936   3.813  0.00  0.00    +0.042 A 
ATOM     12  F   LIG    1       25.676 -18.510   3.270  0.00  0.00    -0.205 F 
ATOM     13  C   LIG    1       26.351 -21.767   6.833  0.00  0.00    +0.042 C 
ATOM     14  C   LIG    1       23.375 -20.988   4.583  0.00  0.00    +0.049 A 
ATOM     15  C   LIG    1       25.540 -22.701   7.721  0.00  0.00    +0.052 C 
ENDBRANCH   4   5
BRANCH   4  16
ATOM     16  O   LIG    1       26.299 -25.177   6.529  0.00  0.00    -0.387 OA
ATOM     17  H   LIG    1       26.986 -25.248   5.841  0.00  0.00    +0.210 HD
ENDBRANCH   4  16
ENDBRANCH   3   4
ENDBRANCH   1   3
BRANCH   1  18
ATOM     18  C   LIG    1       25.103 -27.797   5.318  0.00  0.00    +0.115 C 
BRANCH  18  19
ATOM     19  C   LIG    1       24.605 -29.252   5.499  0.00  0.00    +0.169 C 
BRANCH  19  20
ATOM     20  C   LIG    1       25.093 -29.880   6.821  0.00  0.00    +0.203 C 
ATOM     21  O   LIG    1       25.642 -28.836   7.640  0.00  0.00    -0.486 OA
ATOM     22  C   LIG    1       25.903 -29.185   8.937  0.00  0.00    +0.124 A 
ATOM     23  C   LIG    1       25.404 -30.346   9.543  0.00  0.00    -0.003 A 
ATOM     24  C   LIG    1       25.729 -30.611  10.879  0.00  0.00    +0.045 A 
ATOM     25  C   LIG    1       26.514 -29.711  11.593  0.00  0.00    +0.124 A 
ATOM     26  C   LIG    1       26.988 -28.547  11.001  0.00  0.00    +0.042 A 
ATOM     27  F   LIG    1       26.812 -29.970  12.872  0.00  0.00    -0.205 F 
ATOM     28  C   LIG    1       24.554 -31.313   8.776  0.00  0.00    +0.042 C 
ATOM     29  C   LIG    1       26.680 -28.282   9.667  0.00  0.00    +0.049 A 
ATOM     30  C   LIG    1       23.975 -30.636   7.546  0.00  0.00    +0.052 C 
ENDBRANCH  19  20
BRANCH  19  31
ATOM     31  O   LIG    1       23.173 -29.326   5.447  0.00  0.00    -0.387 OA
ATOM     32  H   LIG    1       22.897 -30.021   6.072  0.00  0.00    +0.210 HD
ENDBRANCH  19  31
ENDBRANCH  18  19
ENDBRANCH   1  18
TORSDOF 8
ENDMDL
MODEL 8
REMARK VINA RESULT:      -8.7      3.924     10.005
REMARK  Name = *****
REMARK                            x       y       z     vdW  Elec       q    Type
REMARK                         _______ _______ _______ _____ _____    ______ ____
ROOT
ATOM      1  N   LIG    1       24.488 -25.180   4.694  0.00  0.00    -0.311 NA
ATOM      2  H   LIG    1       24.272 -24.911   3.734  0.00  0.00    +0.122 HD
ENDROOT
BRANCH   1   3
ATOM      3  C   LIG    1       25.103 -24.030   5.388  0.00  0.00    +0.115 C 
BRANCH   3   4
ATOM      4  C   LIG    1       24.148 -23.432   6.444  0.00  0.00    +0.169 C 
BRANCH   4   5
ATOM      5  C   LIG    1       23.773 -21.970   6.093  0.00  0.00    +0.203 C 
ATOM      6  O   LIG    1       24.838 -21.317   5.379  0.00  0.00    -0.486 OA
ATOM      7  C   LIG    1       25.866 -20.854   6.159  0.00  0.00    +0.124 A 
ATOM      8  C   LIG    1       25.755 -20.648   7.539  0.00  0.00    -0.003 A 
ATOM      9  C   LIG    1       26.886 -20.219   8.253  0.00  0.00    +0.045 A 
ATOM     10  C   LIG    1       28.077 -19.979   7.578  0.00  0.00    +0.124 A 
ATOM     11  C   LIG    1       28.176 -20.145   6.206  0.00  0.00    +0.042 A 
ATOM     12  F   LIG    1       29.155 -19.577   8.273  0.00  0.00    -0.205 F 
ATOM     13  C   LIG    1       24.466 -20.905   8.263  0.00  0.00    +0.042 C 
ATOM     14  C   LIG    1       27.059 -20.583   5.488  0.00  0.00    +0.049 A 
ATOM     15  C   LIG    1       23.322 -21.117   7.281  0.00  0.00    +0.052 C 
ENDBRANCH   4   5
BRANCH   4  16
ATOM     16  O   LIG    1       22.961 -24.233   6.526  0.00  0.00    -0.387 OA
ATOM     17  H   LIG    1       22.278 -23.743   6.034  0.00  0.00    +0.210 HD
ENDBRANCH   4  16
ENDBRANCH   3   4
ENDBRANCH   1   3
BRANCH   1  18
ATOM     18  C   LIG    1       25.442 -26.302   4.642  0.00  0.00    +0.115 C 
BRANCH  18  19
ATOM     19  C   LIG    1       26.182 -26.484   5.991  0.00  0.00    +0.169 C 
BRANCH  19  20
ATOM     20  C   LIG    1       25.512 -27.542   6.891  0.00  0.00    +0.203 C 
ATOM     21  O   LIG    1       25.171 -28.675   6.077  0.00  0.00    -0.486 OA
ATOM     22  C   LIG    1       24.784 -29.794   6.764  0.00  0.00    +0.124 A 
ATOM     23  C   LIG    1       24.990 -29.970   8.139  0.00  0.00    -0.003 A 
ATOM     24  C   LIG    1       24.558 -31.155   8.746  0.00  0.00    +0.045 A 
ATOM     25  C   LIG    1       23.959 -32.149   7.979  0.00  0.00    +0.124 A 
ATOM     26  C   LIG    1       23.777 -31.986   6.611  0.00  0.00    +0.042 A 
ATOM     27  F   LIG    1       23.557 -33.281   8.568  0.00  0.00    -0.205 F 
ATOM     28  C   LIG    1       25.640 -28.901   8.965  0.00  0.00    +0.042 C 
ATOM     29  C   LIG    1       24.193 -30.804   6.000  0.00  0.00    +0.049 A 
ATOM     30  C   LIG    1       26.405 -27.943   8.070  0.00  0.00    +0.052 C 
ENDBRANCH  19  20
BRANCH  19  31
ATOM     31  O   LIG    1       27.557 -26.843   5.791  0.00  0.00    -0.387 OA
ATOM     32  H   LIG    1       27.746 -26.742   4.841  0.00  0.00    +0.210 HD
ENDBRANCH  19  31
ENDBRANCH  18  19
ENDBRANCH   1  18
TORSDOF 8
ENDMDL
MODEL 9
REMARK VINA RESULT:      -8.7      2.726      4.079
REMARK  Name = *****
REMARK                            x       y       z     vdW  Elec       q    Type
REMARK                         _______ _______ _______ _____ _____    ______ ____
ROOT
ATOM      1  N   LIG    1       26.545 -21.709   6.429  0.00  0.00    -0.311 NA
ATOM      2  H   LIG    1       26.202 -21.421   5.513  0.00  0.00    +0.122 HD
ENDROOT
BRANCH   1   3
ATOM      3  C   LIG    1       25.400 -22.124   7.264  0.00  0.00    +0.115 C 
BRANCH   3   4
ATOM      4  C   LIG    1       24.127 -21.321   6.914  0.00  0.00    +0.169 C 
BRANCH   4   5
ATOM      5  C   LIG    1       23.644 -21.640   5.477  0.00  0.00    +0.203 C 
ATOM      6  O   LIG    1       24.632 -21.266   4.500  0.00  0.00    -0.486 OA
ATOM      7  C   LIG    1       24.664 -19.933   4.182  0.00  0.00    +0.124 A 
ATOM      8  C   LIG    1       23.607 -19.052   4.442  0.00  0.00    -0.003 A 
ATOM      9  C   LIG    1       23.763 -17.694   4.120  0.00  0.00    +0.045 A 
ATOM     10  C   LIG    1       24.941 -17.256   3.528  0.00  0.00    +0.124 A 
ATOM     11  C   LIG    1       25.972 -18.134   3.235  0.00  0.00    +0.042 A 
ATOM     12  F   LIG    1       25.083 -15.952   3.234  0.00  0.00    -0.205 F 
ATOM     13  C   LIG    1       22.334 -19.530   5.078  0.00  0.00    +0.042 C 
ATOM     14  C   LIG    1       25.831 -19.487   3.561  0.00  0.00    +0.049 A 
ATOM     15  C   LIG    1       22.279 -21.051   5.111  0.00  0.00    +0.052 C 
ENDBRANCH   4   5
BRANCH   4  16
ATOM     16  O   LIG    1       23.091 -21.629   7.856  0.00  0.00    -0.387 OA
ATOM     17  H   LIG    1       23.497 -21.532   8.736  0.00  0.00    +0.210 HD
ENDBRANCH   4  16
ENDBRANCH   3   4
ENDBRANCH   1   3
BRANCH   1  18
ATOM     18  C   LIG    1       27.217 -20.549   7.042  0.00  0.00    +0.115 C 
BRANCH  18  19
ATOM     19  C   LIG    1       28.660 -20.895   7.486  0.00  0.00    +0.169 C 
BRANCH  19  20
ATOM     20  C   LIG    1       29.536 -19.638   7.671  0.00  0.00    +0.203 C 
ATOM     21  O   LIG    1       29.398 -19.189   9.028  0.00  0.00    -0.486 OA
ATOM     22  C   LIG    1       30.289 -18.227   9.420  0.00  0.00    +0.124 A 
ATOM     23  C   LIG    1       31.449 -17.906   8.702  0.00  0.00    -0.003 A 
ATOM     24  C   LIG    1       32.298 -16.906   9.190  0.00  0.00    +0.045 A 
ATOM     25  C   LIG    1       31.997 -16.266  10.388  0.00  0.00    +0.124 A 
ATOM     26  C   LIG    1       30.861 -16.600  11.114  0.00  0.00    +0.042 A 
ATOM     27  F   LIG    1       32.820 -15.316  10.851  0.00  0.00    -0.205 F 
ATOM     28  C   LIG    1       31.776 -18.599   7.414  0.00  0.00    +0.042 C 
ATOM     29  C   LIG    1       30.003 -17.586  10.628  0.00  0.00    +0.049 A 
ATOM     30  C   LIG    1       31.002 -19.901   7.311  0.00  0.00    +0.052 C 
ENDBRANCH  19  20
BRANCH  19  31
ATOM     31  O   LIG    1       28.666 -21.653   8.705  0.00  0.00    -0.387 OA
ATOM     32  H   LIG    1       29.416 -22.272   8.656  0.00  0.00    +0.210 HD
ENDBRANCH  19  31
ENDBRANCH  18  19
ENDBRANCH   1  18
TORSDOF 8
ENDMDL
