MODEL 1
REMARK VINA RESULT:      -8.8      0.000      0.000
REMARK  Name = *****
REMARK                            x       y       z     vdW  Elec       q    Type
REMARK                         _______ _______ _______ _____ _____    ______ ____
ROOT
ATOM      1  N   LIG    1       28.600 -20.688   6.774  0.00  0.00    -0.297 NA
ATOM      2  C   LIG    1       28.071 -21.838   7.534  0.00  0.00    +0.100 C 
ATOM      3  C   LIG    1       26.618 -21.671   8.035  0.00  0.00    +0.100 C 
ATOM      4  N   LIG    1       25.650 -21.369   6.965  0.00  0.00    -0.299 NA
ATOM      5  C   LIG    1       26.132 -20.157   6.256  0.00  0.00    +0.100 C 
ATOM      6  C   LIG    1       27.606 -20.240   5.766  0.00  0.00    +0.100 C 
ENDROOT
BRANCH   1   7
ATOM      7  C   LIG    1       28.975 -19.566   7.653  0.00  0.00    +0.120 C 
BRANCH   7   8
ATOM      8  C   LIG    1       30.461 -19.065   7.624  0.00  0.00    +0.162 C 
BRANCH   8   9
ATOM      9  C   LIG    1       30.848 -18.080   8.726  0.00  0.00    -0.018 A 
ATOM     10  C   LIG    1       30.019 -17.837   9.833  0.00  0.00    +0.006 A 
ATOM     11  C   LIG    1       30.418 -16.980  10.863  0.00  0.00    +0.000 A 
ATOM     12  C   LIG    1       31.659 -16.354  10.814  0.00  0.00    +0.000 A 
ATOM     13  C   LIG    1       32.495 -16.570   9.722  0.00  0.00    +0.000 A 
ATOM     14  C   LIG    1       32.093 -17.424   8.686  0.00  0.00    +0.006 A 
ENDBRANCH   8   9
BRANCH   8  15
ATOM     15  O   LIG    1       31.366 -20.186   7.742  0.00  0.00    -0.371 OA
BRANCH  15  17
ATOM     16  C   LIG    1       31.323 -22.235   8.995  0.00  0.00    +0.034 C 
ATOM     17  C   LIG    1       31.436 -20.728   9.060  0.00  0.00    +0.157 C 
ENDBRANCH  15  17
ENDBRANCH   8  15
ENDBRANCH   7   8
ENDBRANCH   1   7
BRANCH   4  18
ATOM     18  C   LIG    1       25.460 -22.493   6.011  0.00  0.00    +0.095 C 
BRANCH  18  19
ATOM     19  C   LIG    1       24.746 -23.742   6.607  0.00  0.00    +0.071 C 
ATOM     20  C   LIG    1       23.274 -23.454   6.831  0.00  0.00    +0.017 C 
BRANCH  19  21
ATOM     21  C   LIG    1       24.941 -24.929   5.671  0.00  0.00    +0.167 C 
ATOM     22  O   LIG    1       25.041 -24.779   4.443  0.00  0.00    -0.292 OA
BRANCH  21  23
ATOM     23  C   LIG    1       25.083 -26.315   6.250  0.00  0.00    +0.018 A 
ATOM     24  C   LIG    1       25.974 -26.607   7.272  0.00  0.00    +0.011 A 
ATOM     25  C   LIG    1       26.034 -27.900   7.810  0.00  0.00    +0.001 A 
ATOM     26  C   LIG    1       25.216 -28.906   7.298  0.00  0.00    +0.000 A 
ATOM     27  C   LIG    1       24.335 -28.626   6.261  0.00  0.00    +0.001 A 
ATOM     28  C   LIG    1       24.248 -27.319   5.740  0.00  0.00    +0.011 A 
ENDBRANCH  21  23
ENDBRANCH  19  21
ENDBRANCH  18  19
ENDBRANCH   4  18
TORSDOF 9
ENDMDL
MODEL 2
REMARK VINA RESULT:      -8.7      3.722      6.662
REMARK  Name = *****
REMARK                            x       y       z     vdW  Elec       q    Type
REMARK                         _______ _______ _______ _____ _____    ______ ____
ROOT
ATOM      1  N   LIG    1       24.836 -24.123   6.765  0.00  0.00    -0.297 NA
ATOM      2  C   LIG    1       23.727 -25.039   6.432  0.00  0.00    +0.100 C 
ATOM      3  C   LIG    1       24.072 -26.122   5.384  0.00  0.00    +0.100 C 
ATOM      4  N   LIG    1       25.233 -26.955   5.748  0.00  0.00    -0.299 NA
ATOM      5  C   LIG    1       26.376 -26.041   5.995  0.00  0.00    +0.100 C 
ATOM      6  C   LIG    1       26.081 -24.896   7.006  0.00  0.00    +0.100 C 
ENDROOT
BRANCH   1   7
ATOM      7  C   LIG    1       25.058 -23.114   5.714  0.00  0.00    +0.120 C 
BRANCH   7   8
ATOM      8  C   LIG    1       25.318 -21.631   6.155  0.00  0.00    +0.162 C 
BRANCH   8   9
ATOM      9  C   LIG    1       24.504 -20.570   5.415  0.00  0.00    -0.018 A 
ATOM     10  C   LIG    1       25.007 -19.893   4.293  0.00  0.00    +0.006 A 
ATOM     11  C   LIG    1       24.224 -18.971   3.591  0.00  0.00    +0.000 A 
ATOM     12  C   LIG    1       22.917 -18.713   3.991  0.00  0.00    +0.000 A 
ATOM     13  C   LIG    1       22.398 -19.364   5.107  0.00  0.00    +0.000 A 
ATOM     14  C   LIG    1       23.185 -20.283   5.814  0.00  0.00    +0.006 A 
ENDBRANCH   8   9
BRANCH   8  15
ATOM     15  O   LIG    1       25.020 -21.470   7.559  0.00  0.00    -0.371 OA
BRANCH  15  17
ATOM     16  C   LIG    1       27.348 -20.911   7.759  0.00  0.00    +0.034 C 
ATOM     17  C   LIG    1       25.944 -20.627   8.247  0.00  0.00    +0.157 C 
ENDBRANCH  15  17
ENDBRANCH   8  15
ENDBRANCH   7   8
ENDBRANCH   1   7
BRANCH   4  18
ATOM     18  C   LIG    1       24.987 -27.818   6.933  0.00  0.00    +0.095 C 
BRANCH  18  19
ATOM     19  C   LIG    1       24.639 -29.299   6.600  0.00  0.00    +0.071 C 
ATOM     20  C   LIG    1       25.237 -29.696   5.263  0.00  0.00    +0.017 C 
BRANCH  19  21
ATOM     21  C   LIG    1       25.144 -30.199   7.720  0.00  0.00    +0.167 C 
ATOM     22  O   LIG    1       25.992 -31.082   7.513  0.00  0.00    -0.292 OA
BRANCH  21  23
ATOM     23  C   LIG    1       24.657 -29.974   9.130  0.00  0.00    +0.018 A 
ATOM     24  C   LIG    1       23.359 -30.257   9.524  0.00  0.00    +0.011 A 
ATOM     25  C   LIG    1       22.968 -30.076  10.858  0.00  0.00    +0.001 A 
ATOM     26  C   LIG    1       23.879 -29.583  11.789  0.00  0.00    +0.000 A 
ATOM     27  C   LIG    1       25.177 -29.277  11.399  0.00  0.00    +0.001 A 
ATOM     28  C   LIG    1       25.583 -29.489  10.065  0.00  0.00    +0.011 A 
ENDBRANCH  21  23
ENDBRANCH  19  21
ENDBRANCH  18  19
ENDBRANCH   4  18
TORSDOF 9
ENDMDL
MODEL 3
REMARK VINA RESULT:      -8.6      5.242     10.613
REMARK  Name = *****
REMARK                            x       y       z     vdW  Elec       q    Type
REMARK                         _______ _______ _______ _____ _____    ______ ____
ROOT
ATOM      1  N   LIG    1       24.901 -28.070   6.543  0.00  0.00    -0.297 NA
ATOM      2  C   LIG    1       26.065 -27.415   7.172  0.00  0.00    +0.100 C 
ATOM      3  C   LIG    1       26.851 -26.462   6.244  0.00  0.00    +0.100 C 
ATOM      4  N   LIG    1       26.025 -25.400   5.641  0.00  0.00    -0.299 NA
ATOM      5  C   LIG    1       24.902 -26.061   4.930  0.00  0.00    +0.100 C 
ATOM      6  C   LIG    1       24.096 -27.072   5.794  0.00  0.00    +0.100 C 
ENDROOT
BRANCH   1   7
ATOM      7  C   LIG    1       25.298 -29.176   5.653  0.00  0.00    +0.120 C 
BRANCH   7   8
ATOM      8  C   LIG    1       25.045 -30.646   6.138  0.00  0.00    +0.162 C 
BRANCH   8   9
ATOM      9  C   LIG    1       25.990 -31.702   5.568  0.00  0.00    -0.018 A 
ATOM     10  C   LIG    1       26.957 -32.342   6.360  0.00  0.00    +0.006 A 
ATOM     11  C   LIG    1       27.771 -33.351   5.836  0.00  0.00    +0.000 A 
ATOM     12  C   LIG    1       27.630 -33.749   4.511  0.00  0.00    +0.000 A 
ATOM     13  C   LIG    1       26.687 -33.122   3.701  0.00  0.00    +0.000 A 
ATOM     14  C   LIG    1       25.875 -32.106   4.224  0.00  0.00    +0.006 A 
ENDBRANCH   8   9
BRANCH   8  15
ATOM     15  O   LIG    1       25.165 -30.723   7.576  0.00  0.00    -0.371 OA
BRANCH  15  17
ATOM     16  C   LIG    1       23.590 -30.288   9.337  0.00  0.00    +0.034 C 
ATOM     17  C   LIG    1       23.996 -31.226   8.221  0.00  0.00    +0.157 C 
ENDBRANCH  15  17
ENDBRANCH   8  15
ENDBRANCH   7   8
ENDBRANCH   1   7
BRANCH   4  18
ATOM     18  C   LIG    1       25.511 -24.421   6.635  0.00  0.00    +0.095 C 
BRANCH  18  19
ATOM     19  C   LIG    1       24.422 -23.450   6.091  0.00  0.00    +0.071 C 
ATOM     20  C   LIG    1       23.093 -23.708   6.775  0.00  0.00    +0.017 C 
BRANCH  19  21
ATOM     21  C   LIG    1       24.880 -22.011   6.299  0.00  0.00    +0.167 C 
ATOM     22  O   LIG    1       25.804 -21.729   7.077  0.00  0.00    -0.292 OA
BRANCH  21  23
ATOM     23  C   LIG    1       24.243 -20.906   5.494  0.00  0.00    +0.018 A 
ATOM     24  C   LIG    1       23.018 -20.349   5.830  0.00  0.00    +0.011 A 
ATOM     25  C   LIG    1       22.491 -19.291   5.078  0.00  0.00    +0.001 A 
ATOM     26  C   LIG    1       23.185 -18.812   3.969  0.00  0.00    +0.000 A 
ATOM     27  C   LIG    1       24.403 -19.377   3.612  0.00  0.00    +0.001 A 
ATOM     28  C   LIG    1       24.952 -20.421   4.386  0.00  0.00    +0.011 A 
ENDBRANCH  21  23
ENDBRANCH  19  21
ENDBRANCH  18  19
ENDBRANCH   4  18
TORSDOF 9
ENDMDL
MODEL 4
REMARK VINA RESULT:      -8.6      2.002      4.237
REMARK  Name = *****
REMARK                            x       y       z     vdW  Elec       q    Type
REMARK                         _______ _______ _______ _____ _____    ______ ____
ROOT
ATOM      1  N   LIG    1       28.897 -20.740   7.445  0.00  0.00    -0.297 NA
ATOM      2  C   LIG    1       28.064 -21.520   8.381  0.00  0.00    +0.100 C 
ATOM      3  C   LIG    1       26.562 -21.155   8.370  0.00  0.00    +0.100 C 
ATOM      4  N   LIG    1       25.934 -21.253   7.040  0.00  0.00    -0.299 NA
ATOM      5  C   LIG    1       26.717 -20.396   6.114  0.00  0.00    +0.100 C 
ATOM      6  C   LIG    1       28.247 -20.679   6.111  0.00  0.00    +0.100 C 
ENDROOT
BRANCH   1   7
ATOM      7  C   LIG    1       29.169 -19.380   7.942  0.00  0.00    +0.120 C 
BRANCH   7   8
ATOM      8  C   LIG    1       30.646 -18.854   7.895  0.00  0.00    +0.162 C 
BRANCH   8   9
ATOM      9  C   LIG    1       31.037 -17.884   9.009  0.00  0.00    -0.018 A 
ATOM     10  C   LIG    1       30.206 -17.645  10.115  0.00  0.00    +0.006 A 
ATOM     11  C   LIG    1       30.608 -16.802  11.156  0.00  0.00    +0.000 A 
ATOM     12  C   LIG    1       31.856 -16.188  11.119  0.00  0.00    +0.000 A 
ATOM     13  C   LIG    1       32.695 -16.401  10.028  0.00  0.00    +0.000 A 
ATOM     14  C   LIG    1       32.289 -17.240   8.982  0.00  0.00    +0.006 A 
ENDBRANCH   8   9
BRANCH   8  15
ATOM     15  O   LIG    1       31.571 -19.961   7.973  0.00  0.00    -0.371 OA
BRANCH  15  17
ATOM     16  C   LIG    1       31.573 -22.130   9.006  0.00  0.00    +0.034 C 
ATOM     17  C   LIG    1       31.552 -20.634   9.231  0.00  0.00    +0.157 C 
ENDBRANCH  15  17
ENDBRANCH   8  15
ENDBRANCH   7   8
ENDBRANCH   1   7
BRANCH   4  18
ATOM     18  C   LIG    1       25.860 -22.646   6.527  0.00  0.00    +0.095 C 
BRANCH  18  19
ATOM     19  C   LIG    1       24.477 -23.051   5.936  0.00  0.00    +0.071 C 
ATOM     20  C   LIG    1       24.047 -24.404   6.472  0.00  0.00    +0.017 C 
BRANCH  19  21
ATOM     21  C   LIG    1       23.452 -21.974   6.270  0.00  0.00    +0.167 C 
ATOM     22  O   LIG    1       22.787 -22.010   7.317  0.00  0.00    -0.292 OA
BRANCH  21  23
ATOM     23  C   LIG    1       23.285 -20.796   5.341  0.00  0.00    +0.018 A 
ATOM     24  C   LIG    1       22.492 -19.704   5.659  0.00  0.00    +0.011 A 
ATOM     25  C   LIG    1       22.408 -18.612   4.785  0.00  0.00    +0.001 A 
ATOM     26  C   LIG    1       23.101 -18.633   3.576  0.00  0.00    +0.000 A 
ATOM     27  C   LIG    1       23.881 -19.732   3.240  0.00  0.00    +0.001 A 
ATOM     28  C   LIG    1       23.994 -20.818   4.132  0.00  0.00    +0.011 A 
ENDBRANCH  21  23
ENDBRANCH  19  21
ENDBRANCH  18  19
ENDBRANCH   4  18
TORSDOF 9
ENDMDL
MODEL 5
REMARK VINA RESULT:      -8.4      3.255      5.940
REMARK  Name = *****
REMARK                            x       y       z     vdW  Elec       q    Type
REMARK                         _______ _______ _______ _____ _____    ______ ____
ROOT
ATOM      1  N   LIG    1       24.626 -23.775   6.834  0.00  0.00    -0.297 NA
ATOM      2  C   LIG    1       23.584 -24.771   6.516  0.00  0.00    +0.100 C 
ATOM      3  C   LIG    1       23.994 -25.824   5.461  0.00  0.00    +0.100 C 
ATOM      4  N   LIG    1       25.219 -26.567   5.806  0.00  0.00    -0.299 NA
ATOM      5  C   LIG    1       26.294 -25.570   6.037  0.00  0.00    +0.100 C 
ATOM      6  C   LIG    1       25.930 -24.452   7.054  0.00  0.00    +0.100 C 
ENDROOT
BRANCH   1   7
ATOM      7  C   LIG    1       24.756 -22.751   5.783  0.00  0.00    +0.120 C 
BRANCH   7   8
ATOM      8  C   LIG    1       24.778 -21.243   6.215  0.00  0.00    +0.162 C 
BRANCH   8   9
ATOM      9  C   LIG    1       26.162 -20.649   6.470  0.00  0.00    -0.018 A 
ATOM     10  C   LIG    1       26.765 -20.683   7.738  0.00  0.00    +0.006 A 
ATOM     11  C   LIG    1       28.058 -20.192   7.940  0.00  0.00    +0.000 A 
ATOM     12  C   LIG    1       28.782 -19.665   6.875  0.00  0.00    +0.000 A 
ATOM     13  C   LIG    1       28.203 -19.610   5.610  0.00  0.00    +0.000 A 
ATOM     14  C   LIG    1       26.904 -20.097   5.410  0.00  0.00    +0.006 A 
ENDBRANCH   8   9
BRANCH   8  15
ATOM     15  O   LIG    1       24.164 -20.424   5.194  0.00  0.00    -0.371 OA
BRANCH  15  17
ATOM     16  C   LIG    1       22.375 -18.900   4.696  0.00  0.00    +0.034 C 
ATOM     17  C   LIG    1       22.781 -20.160   5.428  0.00  0.00    +0.157 C 
ENDBRANCH  15  17
ENDBRANCH   8  15
ENDBRANCH   7   8
ENDBRANCH   1   7
BRANCH   4  18
ATOM     18  C   LIG    1       25.057 -27.448   6.993  0.00  0.00    +0.095 C 
BRANCH  18  19
ATOM     19  C   LIG    1       24.642 -28.913   6.666  0.00  0.00    +0.071 C 
ATOM     20  C   LIG    1       24.997 -29.257   5.232  0.00  0.00    +0.017 C 
BRANCH  19  21
ATOM     21  C   LIG    1       25.324 -29.860   7.646  0.00  0.00    +0.167 C 
ATOM     22  O   LIG    1       25.810 -30.940   7.276  0.00  0.00    -0.292 OA
BRANCH  21  23
ATOM     23  C   LIG    1       25.476 -29.450   9.090  0.00  0.00    +0.018 A 
ATOM     24  C   LIG    1       24.560 -29.808  10.067  0.00  0.00    +0.011 A 
ATOM     25  C   LIG    1       24.771 -29.444  11.404  0.00  0.00    +0.001 A 
ATOM     26  C   LIG    1       25.893 -28.694  11.752  0.00  0.00    +0.000 A 
ATOM     27  C   LIG    1       26.806 -28.314  10.777  0.00  0.00    +0.001 A 
ATOM     28  C   LIG    1       26.614 -28.706   9.436  0.00  0.00    +0.011 A 
ENDBRANCH  21  23
ENDBRANCH  19  21
ENDBRANCH  18  19
ENDBRANCH   4  18
TORSDOF 9
ENDMDL
MODEL 6
REMARK VINA RESULT:      -8.3      1.973      8.867
REMARK  Name = *****
REMARK                            x       y       z     vdW  Elec       q    Type
REMARK                         _______ _______ _______ _____ _____    ______ ____
ROOT
ATOM      1  N   LIG    1       25.201 -20.693   7.496  0.00  0.00    -0.297 NA
ATOM      2  C   LIG    1       25.878 -20.696   8.809  0.00  0.00    +0.100 C 
ATOM      3  C   LIG    1       27.122 -21.609   8.894  0.00  0.00    +0.100 C 
ATOM      4  N   LIG    1       28.146 -21.317   7.875  0.00  0.00    -0.299 NA
ATOM      5  C   LIG    1       27.489 -21.404   6.546  0.00  0.00    +0.100 C 
ATOM      6  C   LIG    1       26.200 -20.545   6.407  0.00  0.00    +0.100 C 
ENDROOT
BRANCH   1   7
ATOM      7  C   LIG    1       24.393 -21.907   7.284  0.00  0.00    +0.120 C 
BRANCH   7   8
ATOM      8  C   LIG    1       23.693 -22.098   5.893  0.00  0.00    +0.162 C 
BRANCH   8   9
ATOM      9  C   LIG    1       23.455 -20.820   5.092  0.00  0.00    -0.018 A 
ATOM     10  C   LIG    1       22.521 -19.851   5.495  0.00  0.00    +0.006 A 
ATOM     11  C   LIG    1       22.362 -18.658   4.783  0.00  0.00    +0.000 A 
ATOM     12  C   LIG    1       23.140 -18.402   3.659  0.00  0.00    +0.000 A 
ATOM     13  C   LIG    1       24.066 -19.351   3.233  0.00  0.00    +0.000 A 
ATOM     14  C   LIG    1       24.221 -20.550   3.942  0.00  0.00    +0.006 A 
ENDBRANCH   8   9
BRANCH   8  15
ATOM     15  O   LIG    1       24.487 -22.966   5.053  0.00  0.00    -0.371 OA
BRANCH  15  17
ATOM     16  C   LIG    1       25.119 -25.274   4.841  0.00  0.00    +0.034 C 
ATOM     17  C   LIG    1       25.064 -24.067   5.753  0.00  0.00    +0.157 C 
ENDBRANCH  15  17
ENDBRANCH   8  15
ENDBRANCH   7   8
ENDBRANCH   1   7
BRANCH   4  18
ATOM     18  C   LIG    1       28.792 -19.991   8.054  0.00  0.00    +0.095 C 
BRANCH  18  19
ATOM     19  C   LIG    1       30.249 -19.897   7.513  0.00  0.00    +0.071 C 
ATOM     20  C   LIG    1       30.382 -18.733   6.547  0.00  0.00    +0.017 C 
BRANCH  19  21
ATOM     21  C   LIG    1       31.214 -19.754   8.684  0.00  0.00    +0.167 C 
ATOM     22  O   LIG    1       31.953 -20.687   9.035  0.00  0.00    -0.292 OA
BRANCH  21  23
ATOM     23  C   LIG    1       31.326 -18.429   9.396  0.00  0.00    +0.018 A 
ATOM     24  C   LIG    1       30.522 -18.091  10.474  0.00  0.00    +0.011 A 
ATOM     25  C   LIG    1       30.698 -16.867  11.133  0.00  0.00    +0.001 A 
ATOM     26  C   LIG    1       31.666 -15.969  10.687  0.00  0.00    +0.000 A 
ATOM     27  C   LIG    1       32.463 -16.290   9.595  0.00  0.00    +0.001 A 
ATOM     28  C   LIG    1       32.311 -17.535   8.950  0.00  0.00    +0.011 A 
ENDBRANCH  21  23
ENDBRANCH  19  21
ENDBRANCH  18  19
ENDBRANCH   4  18
TORSDOF 9
ENDMDL
MODEL 7
REMARK VINA RESULT:      -8.3      3.803      6.815
REMARK  Name = *****
REMARK                            x       y       z     vdW  Elec       q    Type
REMARK                         _______ _______ _______ _____ _____    ______ ____
ROOT
ATOM      1  N   LIG    1       24.734 -24.262   6.728  0.00  0.00    -0.297 NA
ATOM      2  C   LIG    1       23.708 -25.216   6.261  0.00  0.00    +0.100 C 
ATOM      3  C   LIG    1       24.210 -26.256   5.233  0.00  0.00    +0.100 C 
ATOM      4  N   LIG    1       25.364 -27.047   5.700  0.00  0.00    -0.299 NA
ATOM      5  C   LIG    1       26.432 -26.090   6.084  0.00  0.00    +0.100 C 
ATOM      6  C   LIG    1       25.982 -24.985   7.082  0.00  0.00    +0.100 C 
ENDROOT
BRANCH   1   7
ATOM      7  C   LIG    1       25.018 -23.217   5.728  0.00  0.00    +0.120 C 
BRANCH   7   8
ATOM      8  C   LIG    1       25.238 -21.748   6.232  0.00  0.00    +0.162 C 
BRANCH   8   9
ATOM      9  C   LIG    1       24.470 -20.667   5.473  0.00  0.00    -0.018 A 
ATOM     10  C   LIG    1       24.998 -20.040   4.333  0.00  0.00    +0.006 A 
ATOM     11  C   LIG    1       24.255 -19.099   3.613  0.00  0.00    +0.000 A 
ATOM     12  C   LIG    1       22.964 -18.771   4.013  0.00  0.00    +0.000 A 
ATOM     13  C   LIG    1       22.421 -19.371   5.146  0.00  0.00    +0.000 A 
ATOM     14  C   LIG    1       23.168 -20.310   5.870  0.00  0.00    +0.006 A 
ENDBRANCH   8   9
BRANCH   8  15
ATOM     15  O   LIG    1       24.842 -21.634   7.617  0.00  0.00    -0.371 OA
BRANCH  15  17
ATOM     16  C   LIG    1       26.926 -20.462   7.858  0.00  0.00    +0.034 C 
ATOM     17  C   LIG    1       25.935 -21.404   8.506  0.00  0.00    +0.157 C 
ENDBRANCH  15  17
ENDBRANCH   8  15
ENDBRANCH   7   8
ENDBRANCH   1   7
BRANCH   4  18
ATOM     18  C   LIG    1       25.036 -27.950   6.834  0.00  0.00    +0.095 C 
BRANCH  18  19
ATOM     19  C   LIG    1       24.425 -29.321   6.421  0.00  0.00    +0.071 C 
ATOM     20  C   LIG    1       25.277 -29.981   5.353  0.00  0.00    +0.017 C 
BRANCH  19  21
ATOM     21  C   LIG    1       24.299 -30.208   7.653  0.00  0.00    +0.167 C 
ATOM     22  O   LIG    1       23.492 -29.951   8.560  0.00  0.00    -0.292 OA
BRANCH  21  23
ATOM     23  C   LIG    1       25.123 -31.469   7.747  0.00  0.00    +0.018 A 
ATOM     24  C   LIG    1       24.713 -32.670   7.188  0.00  0.00    +0.011 A 
ATOM     25  C   LIG    1       25.537 -33.802   7.259  0.00  0.00    +0.001 A 
ATOM     26  C   LIG    1       26.762 -33.730   7.919  0.00  0.00    +0.000 A 
ATOM     27  C   LIG    1       27.172 -32.536   8.499  0.00  0.00    +0.001 A 
ATOM     28  C   LIG    1       26.360 -31.387   8.401  0.00  0.00    +0.011 A 
ENDBRANCH  21  23
ENDBRANCH  19  21
ENDBRANCH  18  19
ENDBRANCH   4  18
TORSDOF 9
ENDMDL
MODEL 8
REMARK VINA RESULT:      -8.3      1.449      9.214
REMARK  Name = *****
REMARK                            x       y       z     vdW  Elec       q    Type
REMARK                         _______ _______ _______ _____ _____    ______ ____
ROOT
ATOM      1  N   LIG    1       25.254 -20.667   7.745  0.00  0.00    -0.297 NA
ATOM      2  C   LIG    1       26.122 -21.076   8.867  0.00  0.00    +0.100 C 
ATOM      3  C   LIG    1       27.338 -21.941   8.463  0.00  0.00    +0.100 C 
ATOM      4  N   LIG    1       28.203 -21.315   7.446  0.00  0.00    -0.299 NA
ATOM      5  C   LIG    1       27.348 -20.985   6.277  0.00  0.00    +0.100 C 
ATOM      6  C   LIG    1       26.078 -20.155   6.621  0.00  0.00    +0.100 C 
ENDROOT
BRANCH   1   7
ATOM      7  C   LIG    1       24.388 -21.766   7.282  0.00  0.00    +0.120 C 
BRANCH   7   8
ATOM      8  C   LIG    1       24.638 -22.354   5.850  0.00  0.00    +0.162 C 
BRANCH   8   9
ATOM      9  C   LIG    1       24.976 -23.843   5.797  0.00  0.00    -0.018 A 
ATOM     10  C   LIG    1       24.859 -24.592   4.615  0.00  0.00    +0.006 A 
ATOM     11  C   LIG    1       25.233 -25.938   4.570  0.00  0.00    +0.000 A 
ATOM     12  C   LIG    1       25.741 -26.563   5.704  0.00  0.00    +0.000 A 
ATOM     13  C   LIG    1       25.857 -25.845   6.891  0.00  0.00    +0.000 A 
ATOM     14  C   LIG    1       25.476 -24.498   6.938  0.00  0.00    +0.006 A 
ENDBRANCH   8   9
BRANCH   8  15
ATOM     15  O   LIG    1       23.465 -22.171   5.026  0.00  0.00    -0.371 OA
BRANCH  15  17
ATOM     16  C   LIG    1       22.787 -19.881   4.769  0.00  0.00    +0.034 C 
ATOM     17  C   LIG    1       22.569 -21.176   5.519  0.00  0.00    +0.157 C 
ENDBRANCH  15  17
ENDBRANCH   8  15
ENDBRANCH   7   8
ENDBRANCH   1   7
BRANCH   4  18
ATOM     18  C   LIG    1       28.907 -20.102   7.939  0.00  0.00    +0.095 C 
BRANCH  18  19
ATOM     19  C   LIG    1       30.386 -19.972   7.472  0.00  0.00    +0.071 C 
ATOM     20  C   LIG    1       30.542 -18.796   6.526  0.00  0.00    +0.017 C 
BRANCH  19  21
ATOM     21  C   LIG    1       31.288 -19.823   8.692  0.00  0.00    +0.167 C 
ATOM     22  O   LIG    1       32.008 -20.753   9.087  0.00  0.00    -0.292 OA
BRANCH  21  23
ATOM     23  C   LIG    1       31.363 -18.492   9.400  0.00  0.00    +0.018 A 
ATOM     24  C   LIG    1       30.522 -18.159  10.450  0.00  0.00    +0.011 A 
ATOM     25  C   LIG    1       30.663 -16.929  11.108  0.00  0.00    +0.001 A 
ATOM     26  C   LIG    1       31.636 -16.024  10.689  0.00  0.00    +0.000 A 
ATOM     27  C   LIG    1       32.470 -16.341   9.624  0.00  0.00    +0.001 A 
ATOM     28  C   LIG    1       32.352 -17.591   8.981  0.00  0.00    +0.011 A 
ENDBRANCH  21  23
ENDBRANCH  19  21
ENDBRANCH  18  19
ENDBRANCH   4  18
TORSDOF 9
ENDMDL
MODEL 9
REMARK VINA RESULT:      -8.3      5.162     10.115
REMARK  Name = *****
REMARK                            x       y       z     vdW  Elec       q    Type
REMARK                         _______ _______ _______ _____ _____    ______ ____
ROOT
ATOM      1  N   LIG    1       24.856 -27.922   6.745  0.00  0.00    -0.297 NA
ATOM      2  C   LIG    1       26.104 -27.299   7.229  0.00  0.00    +0.100 C 
ATOM      3  C   LIG    1       26.867 -26.470   6.171  0.00  0.00    +0.100 C 
ATOM      4  N   LIG    1       26.058 -25.404   5.552  0.00  0.00    -0.299 NA
ATOM      5  C   LIG    1       24.843 -26.041   4.983  0.00  0.00    +0.100 C 
ATOM      6  C   LIG    1       24.053 -26.932   5.984  0.00  0.00    +0.100 C 
ENDROOT
BRANCH   1   7
ATOM      7  C   LIG    1       25.113 -29.113   5.917  0.00  0.00    +0.120 C 
BRANCH   7   8
ATOM      8  C   LIG    1       24.883 -30.526   6.559  0.00  0.00    +0.162 C 
BRANCH   8   9
ATOM      9  C   LIG    1       25.008 -30.589   8.080  0.00  0.00    -0.018 A 
ATOM     10  C   LIG    1       26.228 -30.868   8.716  0.00  0.00    +0.006 A 
ATOM     11  C   LIG    1       26.338 -30.859  10.111  0.00  0.00    +0.000 A 
ATOM     12  C   LIG    1       25.231 -30.560  10.899  0.00  0.00    +0.000 A 
ATOM     13  C   LIG    1       24.008 -30.290  10.292  0.00  0.00    +0.000 A 
ATOM     14  C   LIG    1       23.897 -30.306   8.896  0.00  0.00    +0.006 A 
ENDBRANCH   8   9
BRANCH   8  15
ATOM     15  O   LIG    1       23.560 -31.009   6.237  0.00  0.00    -0.371 OA
BRANCH  15  17
ATOM     16  C   LIG    1       24.822 -32.761   5.184  0.00  0.00    +0.034 C 
ATOM     17  C   LIG    1       23.527 -32.388   5.873  0.00  0.00    +0.157 C 
ENDBRANCH  15  17
ENDBRANCH   8  15
ENDBRANCH   7   8
ENDBRANCH   1   7
BRANCH   4  18
ATOM     18  C   LIG    1       25.686 -24.323   6.501  0.00  0.00    +0.095 C 
BRANCH  18  19
ATOM     19  C   LIG    1       24.579 -23.355   5.988  0.00  0.00    +0.071 C 
ATOM     20  C   LIG    1       23.304 -23.536   6.790  0.00  0.00    +0.017 C 
BRANCH  19  21
ATOM     21  C   LIG    1       25.085 -21.921   6.071  0.00  0.00    +0.167 C 
ATOM     22  O   LIG    1       26.142 -21.636   6.657  0.00  0.00    -0.292 OA
BRANCH  21  23
ATOM     23  C   LIG    1       24.324 -20.823   5.369  0.00  0.00    +0.018 A 
ATOM     24  C   LIG    1       23.092 -20.369   5.814  0.00  0.00    +0.011 A 
ATOM     25  C   LIG    1       22.446 -19.314   5.155  0.00  0.00    +0.001 A 
ATOM     26  C   LIG    1       23.030 -18.734   4.031  0.00  0.00    +0.000 A 
ATOM     27  C   LIG    1       24.255 -19.196   3.566  0.00  0.00    +0.001 A 
ATOM     28  C   LIG    1       24.923 -20.236   4.245  0.00  0.00    +0.011 A 
ENDBRANCH  21  23
ENDBRANCH  19  21
ENDBRANCH  18  19
ENDBRANCH   4  18
TORSDOF 9
ENDMDL
