MODEL 1
REMARK VINA RESULT:      -4.6      0.000      0.000
REMARK  Name = *****
REMARK                            x       y       z     vdW  Elec       q    Type
REMARK                         _______ _______ _______ _____ _____    ______ ____
ROOT
ATOM      1  C   LIG    1       24.601 -15.452   3.902  0.00  0.00    +0.135 A 
ATOM      2  C   LIG    1       25.893 -15.831   3.522  0.00  0.00    -0.005 A 
ATOM      3  C   LIG    1       27.033 -14.867   3.344  0.00  0.00    +0.048 C 
ATOM      4  C   LIG    1       26.142 -17.203   3.312  0.00  0.00    +0.052 A 
ATOM      5  C   LIG    1       25.155 -18.186   3.513  0.00  0.00    +0.124 A 
ATOM      6  C   LIG    1       23.855 -17.792   3.868  0.00  0.00    +0.000 A 
ATOM      7  C   LIG    1       23.615 -16.430   4.090  0.00  0.00    +0.054 A 
ENDROOT
BRANCH   6   8
ATOM      8  C   LIG    1       22.713 -18.782   4.062  0.00  0.00    +0.017 C 
ATOM      9  C   LIG    1       21.324 -18.204   3.729  0.00  0.00    +0.012 C 
ATOM     10  C   LIG    1       22.715 -19.329   5.491  0.00  0.00    +0.012 C 
ENDBRANCH   6   8
BRANCH   1  11
ATOM     11  O   LIG    1       24.300 -14.112   4.242  0.00  0.00    -0.426 OA
BRANCH  11  13
ATOM     12  C   LIG    1       23.850 -11.824   3.762  0.00  0.00    +0.136 C 
ATOM     13  C   LIG    1       24.150 -13.183   3.209  0.00  0.00    +0.309 C 
ATOM     14  O   LIG    1       24.228 -13.410   1.994  0.00  0.00    -0.251 OA
ENDBRANCH  11  13
ENDBRANCH   1  11
BRANCH   5  15
ATOM     15  O   LIG    1       25.391 -19.535   3.348  0.00  0.00    -0.490 OA
BRANCH  15  16
ATOM     16  C   LIG    1       25.652 -20.268   4.556  0.00  0.00    +0.244 C 
BRANCH  16  17
ATOM     17  C   LIG    1       26.984 -19.807   5.193  0.00  0.00    +0.124 C 
BRANCH  17  18
ATOM     18  N   LIG    1       27.224 -20.364   6.545  0.00  0.00    -0.305 NA
ATOM     19  C   LIG    1       28.613 -20.815   6.691  0.00  0.00    +0.104 C 
ATOM     20  C   LIG    1       26.324 -21.487   6.824  0.00  0.00    +0.104 C 
ENDBRANCH  17  18
ENDBRANCH  16  17
ENDBRANCH  15  16
ENDBRANCH   5  15
TORSDOF 7
ENDMDL
MODEL 2
REMARK VINA RESULT:      -4.4      1.149      1.756
REMARK  Name = *****
REMARK                            x       y       z     vdW  Elec       q    Type
REMARK                         _______ _______ _______ _____ _____    ______ ____
ROOT
ATOM      1  C   LIG    1       24.749 -14.892   4.013  0.00  0.00    +0.135 A 
ATOM      2  C   LIG    1       25.872 -15.574   3.531  0.00  0.00    -0.005 A 
ATOM      3  C   LIG    1       27.182 -14.910   3.204  0.00  0.00    +0.048 C 
ATOM      4  C   LIG    1       25.772 -16.970   3.359  0.00  0.00    +0.052 A 
ATOM      5  C   LIG    1       24.609 -17.687   3.696  0.00  0.00    +0.124 A 
ATOM      6  C   LIG    1       23.479 -16.990   4.154  0.00  0.00    +0.000 A 
ATOM      7  C   LIG    1       23.588 -15.606   4.337  0.00  0.00    +0.054 A 
ENDROOT
BRANCH   6   8
ATOM      8  C   LIG    1       22.164 -17.678   4.498  0.00  0.00    +0.017 C 
ATOM      9  C   LIG    1       22.333 -18.962   5.333  0.00  0.00    +0.012 C 
ATOM     10  C   LIG    1       21.375 -17.992   3.225  0.00  0.00    +0.012 C 
ENDBRANCH   6   8
BRANCH   1  11
ATOM     11  O   LIG    1       24.806 -13.512   4.321  0.00  0.00    -0.426 OA
BRANCH  11  13
ATOM     12  C   LIG    1       24.540 -12.965   2.021  0.00  0.00    +0.136 C 
ATOM     13  C   LIG    1       24.208 -12.610   3.437  0.00  0.00    +0.309 C 
ATOM     14  O   LIG    1       23.509 -11.633   3.737  0.00  0.00    -0.251 OA
ENDBRANCH  11  13
ENDBRANCH   1  11
BRANCH   5  15
ATOM     15  O   LIG    1       24.506 -19.057   3.568  0.00  0.00    -0.490 OA
BRANCH  15  16
ATOM     16  C   LIG    1       25.561 -19.815   4.182  0.00  0.00    +0.244 C 
BRANCH  16  17
ATOM     17  C   LIG    1       25.028 -21.176   4.688  0.00  0.00    +0.124 C 
BRANCH  17  18
ATOM     18  N   LIG    1       25.485 -21.527   6.053  0.00  0.00    -0.305 NA
ATOM     19  C   LIG    1       24.358 -21.572   6.992  0.00  0.00    +0.104 C 
ATOM     20  C   LIG    1       26.478 -20.567   6.544  0.00  0.00    +0.104 C 
ENDBRANCH  17  18
ENDBRANCH  16  17
ENDBRANCH  15  16
ENDBRANCH   5  15
TORSDOF 7
ENDMDL
MODEL 3
REMARK VINA RESULT:      -4.4      2.851      6.430
REMARK  Name = *****
REMARK                            x       y       z     vdW  Elec       q    Type
REMARK                         _______ _______ _______ _____ _____    ______ ____
ROOT
ATOM      1  C   LIG    1       24.958 -20.515   4.566  0.00  0.00    +0.135 A 
ATOM      2  C   LIG    1       24.534 -19.431   3.790  0.00  0.00    -0.005 A 
ATOM      3  C   LIG    1       23.171 -19.330   3.161  0.00  0.00    +0.048 C 
ATOM      4  C   LIG    1       25.434 -18.362   3.603  0.00  0.00    +0.052 A 
ATOM      5  C   LIG    1       26.707 -18.337   4.202  0.00  0.00    +0.124 A 
ATOM      6  C   LIG    1       27.133 -19.442   4.956  0.00  0.00    +0.000 A 
ATOM      7  C   LIG    1       26.231 -20.496   5.151  0.00  0.00    +0.054 A 
ENDROOT
BRANCH   6   8
ATOM      8  C   LIG    1       28.511 -19.523   5.602  0.00  0.00    +0.017 C 
ATOM      9  C   LIG    1       28.488 -20.038   7.054  0.00  0.00    +0.012 C 
ATOM     10  C   LIG    1       29.208 -18.162   5.550  0.00  0.00    +0.012 C 
ENDBRANCH   6   8
BRANCH   1  11
ATOM     11  O   LIG    1       24.076 -21.571   4.895  0.00  0.00    -0.426 OA
BRANCH  11  13
ATOM     12  C   LIG    1       23.399 -20.820   7.049  0.00  0.00    +0.136 C 
ATOM     13  C   LIG    1       22.965 -21.283   5.693  0.00  0.00    +0.309 C 
ATOM     14  O   LIG    1       21.775 -21.396   5.372  0.00  0.00    -0.251 OA
ENDBRANCH  11  13
ENDBRANCH   1  11
BRANCH   5  15
ATOM     15  O   LIG    1       27.586 -17.284   4.060  0.00  0.00    -0.490 OA
BRANCH  15  16
ATOM     16  C   LIG    1       27.043 -16.106   3.441  0.00  0.00    +0.244 C 
BRANCH  16  17
ATOM     17  C   LIG    1       27.626 -14.831   4.095  0.00  0.00    +0.124 C 
BRANCH  17  18
ATOM     18  N   LIG    1       26.884 -13.594   3.758  0.00  0.00    -0.305 NA
ATOM     19  C   LIG    1       25.847 -13.313   4.758  0.00  0.00    +0.104 C 
ATOM     20  C   LIG    1       26.258 -13.693   2.436  0.00  0.00    +0.104 C 
ENDBRANCH  17  18
ENDBRANCH  16  17
ENDBRANCH  15  16
ENDBRANCH   5  15
TORSDOF 7
ENDMDL
MODEL 4
REMARK VINA RESULT:      -3.8      2.187      4.111
REMARK  Name = *****
REMARK                            x       y       z     vdW  Elec       q    Type
REMARK                         _______ _______ _______ _____ _____    ______ ____
ROOT
ATOM      1  C   LIG    1       27.364 -15.606   3.900  0.00  0.00    +0.135 A 
ATOM      2  C   LIG    1       26.114 -15.795   3.303  0.00  0.00    -0.005 A 
ATOM      3  C   LIG    1       25.324 -14.697   2.643  0.00  0.00    +0.048 C 
ATOM      4  C   LIG    1       25.571 -17.097   3.305  0.00  0.00    +0.052 A 
ATOM      5  C   LIG    1       26.262 -18.198   3.843  0.00  0.00    +0.124 A 
ATOM      6  C   LIG    1       27.505 -17.993   4.464  0.00  0.00    +0.000 A 
ATOM      7  C   LIG    1       28.047 -16.701   4.447  0.00  0.00    +0.054 A 
ENDROOT
BRANCH   6   8
ATOM      8  C   LIG    1       28.302 -19.117   5.113  0.00  0.00    +0.017 C 
ATOM      9  C   LIG    1       27.458 -20.041   6.012  0.00  0.00    +0.012 C 
ATOM     10  C   LIG    1       29.475 -18.550   5.916  0.00  0.00    +0.012 C 
ENDBRANCH   6   8
BRANCH   1  11
ATOM     11  O   LIG    1       28.026 -14.357   3.838  0.00  0.00    -0.426 OA
BRANCH  11  13
ATOM     12  C   LIG    1       28.700 -12.262   4.744  0.00  0.00    +0.136 C 
ATOM     13  C   LIG    1       27.731 -13.401   4.814  0.00  0.00    +0.309 C 
ATOM     14  O   LIG    1       26.819 -13.455   5.650  0.00  0.00    -0.251 OA
ENDBRANCH  11  13
ENDBRANCH   1  11
BRANCH   5  15
ATOM     15  O   LIG    1       25.764 -19.483   3.822  0.00  0.00    -0.490 OA
BRANCH  15  16
ATOM     16  C   LIG    1       24.397 -19.608   3.394  0.00  0.00    +0.244 C 
BRANCH  16  17
ATOM     17  C   LIG    1       23.742 -20.858   4.026  0.00  0.00    +0.124 C 
BRANCH  17  18
ATOM     18  N   LIG    1       22.798 -20.547   5.125  0.00  0.00    -0.305 NA
ATOM     19  C   LIG    1       22.357 -19.149   5.060  0.00  0.00    +0.104 C 
ATOM     20  C   LIG    1       23.407 -20.796   6.435  0.00  0.00    +0.104 C 
ENDBRANCH  17  18
ENDBRANCH  16  17
ENDBRANCH  15  16
ENDBRANCH   5  15
TORSDOF 7
ENDMDL
MODEL 5
REMARK VINA RESULT:      -3.4      2.706      5.817
REMARK  Name = *****
REMARK                            x       y       z     vdW  Elec       q    Type
REMARK                         _______ _______ _______ _____ _____    ______ ____
ROOT
ATOM      1  C   LIG    1       23.390 -18.101   4.108  0.00  0.00    +0.135 A 
ATOM      2  C   LIG    1       24.628 -18.552   3.637  0.00  0.00    -0.005 A 
ATOM      3  C   LIG    1       24.989 -20.005   3.482  0.00  0.00    +0.048 C 
ATOM      4  C   LIG    1       25.587 -17.585   3.271  0.00  0.00    +0.052 A 
ATOM      5  C   LIG    1       25.320 -16.205   3.322  0.00  0.00    +0.124 A 
ATOM      6  C   LIG    1       24.084 -15.761   3.821  0.00  0.00    +0.000 A 
ATOM      7  C   LIG    1       23.130 -16.725   4.171  0.00  0.00    +0.054 A 
ENDROOT
BRANCH   6   8
ATOM      8  C   LIG    1       23.726 -14.287   3.956  0.00  0.00    +0.017 C 
ATOM      9  C   LIG    1       24.186 -13.423   2.767  0.00  0.00    +0.012 C 
ATOM     10  C   LIG    1       24.293 -13.715   5.258  0.00  0.00    +0.012 C 
ENDBRANCH   6   8
BRANCH   1  11
ATOM     11  O   LIG    1       22.337 -19.004   4.386  0.00  0.00    -0.426 OA
BRANCH  11  13
ATOM     12  C   LIG    1       21.971 -21.287   4.950  0.00  0.00    +0.136 C 
ATOM     13  C   LIG    1       22.537 -19.969   5.378  0.00  0.00    +0.309 C 
ATOM     14  O   LIG    1       23.083 -19.798   6.477  0.00  0.00    -0.251 OA
ENDBRANCH  11  13
ENDBRANCH   1  11
BRANCH   5  15
ATOM     15  O   LIG    1       26.232 -15.246   2.934  0.00  0.00    -0.490 OA
BRANCH  15  16
ATOM     16  C   LIG    1       27.406 -15.143   3.756  0.00  0.00    +0.244 C 
BRANCH  16  17
ATOM     17  C   LIG    1       28.065 -13.753   3.589  0.00  0.00    +0.124 C 
BRANCH  17  18
ATOM     18  N   LIG    1       27.820 -12.835   4.726  0.00  0.00    -0.305 NA
ATOM     19  C   LIG    1       29.017 -12.041   5.030  0.00  0.00    +0.104 C 
ATOM     20  C   LIG    1       27.419 -13.573   5.928  0.00  0.00    +0.104 C 
ENDBRANCH  17  18
ENDBRANCH  16  17
ENDBRANCH  15  16
ENDBRANCH   5  15
TORSDOF 7
ENDMDL
MODEL 6
REMARK VINA RESULT:      -3.3      2.674      4.927
REMARK  Name = *****
REMARK                            x       y       z     vdW  Elec       q    Type
REMARK                         _______ _______ _______ _____ _____    ______ ____
ROOT
ATOM      1  C   LIG    1       27.013 -14.299   3.490  0.00  0.00    +0.135 A 
ATOM      2  C   LIG    1       26.614 -15.630   3.651  0.00  0.00    -0.005 A 
ATOM      3  C   LIG    1       27.567 -16.792   3.713  0.00  0.00    +0.048 C 
ATOM      4  C   LIG    1       25.234 -15.893   3.781  0.00  0.00    +0.052 A 
ATOM      5  C   LIG    1       24.272 -14.867   3.797  0.00  0.00    +0.124 A 
ATOM      6  C   LIG    1       24.681 -13.537   3.608  0.00  0.00    +0.000 A 
ATOM      7  C   LIG    1       26.053 -13.278   3.494  0.00  0.00    +0.054 A 
ENDROOT
BRANCH   6   8
ATOM      8  C   LIG    1       23.705 -12.368   3.566  0.00  0.00    +0.017 C 
ATOM      9  C   LIG    1       23.886 -11.450   2.342  0.00  0.00    +0.012 C 
ATOM     10  C   LIG    1       23.803 -11.540   4.849  0.00  0.00    +0.012 C 
ENDBRANCH   6   8
BRANCH   1  11
ATOM     11  O   LIG    1       28.383 -13.942   3.468  0.00  0.00    -0.426 OA
BRANCH  11  13
ATOM     12  C   LIG    1       28.244 -12.817   5.561  0.00  0.00    +0.136 C 
ATOM     13  C   LIG    1       28.780 -12.796   4.163  0.00  0.00    +0.309 C 
ATOM     14  O   LIG    1       29.463 -11.862   3.721  0.00  0.00    -0.251 OA
ENDBRANCH  11  13
ENDBRANCH   1  11
BRANCH   5  15
ATOM     15  O   LIG    1       22.923 -15.102   3.960  0.00  0.00    -0.490 OA
BRANCH  15  16
ATOM     16  C   LIG    1       22.586 -16.154   4.880  0.00  0.00    +0.244 C 
BRANCH  16  17
ATOM     17  C   LIG    1       22.177 -17.434   4.114  0.00  0.00    +0.124 C 
BRANCH  17  18
ATOM     18  N   LIG    1       22.891 -18.653   4.561  0.00  0.00    -0.305 NA
ATOM     19  C   LIG    1       23.950 -19.021   3.614  0.00  0.00    +0.104 C 
ATOM     20  C   LIG    1       21.970 -19.783   4.712  0.00  0.00    +0.104 C 
ENDBRANCH  17  18
ENDBRANCH  16  17
ENDBRANCH  15  16
ENDBRANCH   5  15
TORSDOF 7
ENDMDL
MODEL 7
REMARK VINA RESULT:      -3.0      1.901      3.545
REMARK  Name = *****
REMARK                            x       y       z     vdW  Elec       q    Type
REMARK                         _______ _______ _______ _____ _____    ______ ____
ROOT
ATOM      1  C   LIG    1       25.793 -15.360   3.483  0.00  0.00    +0.135 A 
ATOM      2  C   LIG    1       24.452 -15.095   3.781  0.00  0.00    -0.005 A 
ATOM      3  C   LIG    1       23.878 -13.710   3.912  0.00  0.00    +0.048 C 
ATOM      4  C   LIG    1       23.585 -16.194   3.951  0.00  0.00    +0.052 A 
ATOM      5  C   LIG    1       24.016 -17.524   3.788  0.00  0.00    +0.124 A 
ATOM      6  C   LIG    1       25.370 -17.779   3.516  0.00  0.00    +0.000 A 
ATOM      7  C   LIG    1       26.224 -16.684   3.333  0.00  0.00    +0.054 A 
ENDROOT
BRANCH   6   8
ATOM      8  C   LIG    1       25.934 -19.187   3.369  0.00  0.00    +0.017 C 
ATOM      9  C   LIG    1       24.921 -20.209   2.819  0.00  0.00    +0.012 C 
ATOM     10  C   LIG    1       26.492 -19.683   4.704  0.00  0.00    +0.012 C 
ENDBRANCH   6   8
BRANCH   1  11
ATOM     11  O   LIG    1       26.699 -14.313   3.185  0.00  0.00    -0.426 OA
BRANCH  11  13
ATOM     12  C   LIG    1       28.726 -13.192   3.728  0.00  0.00    +0.136 C 
ATOM     13  C   LIG    1       27.435 -13.755   4.234  0.00  0.00    +0.309 C 
ATOM     14  O   LIG    1       27.112 -13.724   5.429  0.00  0.00    -0.251 OA
ENDBRANCH  11  13
ENDBRANCH   1  11
BRANCH   5  15
ATOM     15  O   LIG    1       23.175 -18.609   3.915  0.00  0.00    -0.490 OA
BRANCH  15  16
ATOM     16  C   LIG    1       22.283 -18.569   5.041  0.00  0.00    +0.244 C 
BRANCH  16  17
ATOM     17  C   LIG    1       22.846 -19.413   6.209  0.00  0.00    +0.124 C 
BRANCH  17  18
ATOM     18  N   LIG    1       22.652 -20.872   6.040  0.00  0.00    -0.305 NA
ATOM     19  C   LIG    1       23.941 -21.572   5.978  0.00  0.00    +0.104 C 
ATOM     20  C   LIG    1       21.888 -21.169   4.825  0.00  0.00    +0.104 C 
ENDBRANCH  17  18
ENDBRANCH  16  17
ENDBRANCH  15  16
ENDBRANCH   5  15
TORSDOF 7
ENDMDL
MODEL 8
REMARK VINA RESULT:      -2.5      2.530      6.792
REMARK  Name = *****
REMARK                            x       y       z     vdW  Elec       q    Type
REMARK                         _______ _______ _______ _____ _____    ______ ____
ROOT
ATOM      1  C   LIG    1       24.394 -19.809   4.338  0.00  0.00    +0.135 A 
ATOM      2  C   LIG    1       23.194 -19.093   4.267  0.00  0.00    -0.005 A 
ATOM      3  C   LIG    1       21.841 -19.692   4.543  0.00  0.00    +0.048 C 
ATOM      4  C   LIG    1       23.261 -17.725   3.934  0.00  0.00    +0.052 A 
ATOM      5  C   LIG    1       24.484 -17.062   3.719  0.00  0.00    +0.124 A 
ATOM      6  C   LIG    1       25.681 -17.796   3.766  0.00  0.00    +0.000 A 
ATOM      7  C   LIG    1       25.611 -19.151   4.112  0.00  0.00    +0.054 A 
ENDROOT
BRANCH   6   8
ATOM      8  C   LIG    1       27.045 -17.172   3.501  0.00  0.00    +0.017 C 
ATOM      9  C   LIG    1       28.143 -17.639   4.476  0.00  0.00    +0.012 C 
ATOM     10  C   LIG    1       26.951 -15.645   3.526  0.00  0.00    +0.012 C 
ENDBRANCH   6   8
BRANCH   1  11
ATOM     11  O   LIG    1       24.421 -21.154   4.777  0.00  0.00    -0.426 OA
BRANCH  11  13
ATOM     12  C   LIG    1       23.740 -21.484   7.034  0.00  0.00    +0.136 C 
ATOM     13  C   LIG    1       24.883 -21.420   6.069  0.00  0.00    +0.309 C 
ATOM     14  O   LIG    1       26.062 -21.571   6.417  0.00  0.00    -0.251 OA
ENDBRANCH  11  13
ENDBRANCH   1  11
BRANCH   5  15
ATOM     15  O   LIG    1       24.571 -15.717   3.428  0.00  0.00    -0.490 OA
BRANCH  15  16
ATOM     16  C   LIG    1       23.573 -14.887   4.045  0.00  0.00    +0.244 C 
BRANCH  16  17
ATOM     17  C   LIG    1       24.238 -13.799   4.921  0.00  0.00    +0.124 C 
BRANCH  17  18
ATOM     18  N   LIG    1       24.438 -12.508   4.222  0.00  0.00    -0.305 NA
ATOM     19  C   LIG    1       23.630 -11.447   4.835  0.00  0.00    +0.104 C 
ATOM     20  C   LIG    1       24.089 -12.614   2.802  0.00  0.00    +0.104 C 
ENDBRANCH  17  18
ENDBRANCH  16  17
ENDBRANCH  15  16
ENDBRANCH   5  15
TORSDOF 7
ENDMDL
