MODEL 1
REMARK VINA RESULT:      -8.9      0.000      0.000
REMARK  Name = *****
REMARK                            x       y       z     vdW  Elec       q    Type
REMARK                         _______ _______ _______ _____ _____    ______ ____
ROOT
ATOM      1  N   LIG    1       27.809 -20.755   6.686  0.00  0.00    -0.266 N 
ATOM      2  C   LIG    1       27.873 -21.196   8.015  0.00  0.00    +0.271 C 
ATOM      3  O   LIG    1       28.951 -21.305   8.612  0.00  0.00    -0.270 OA
ATOM      4  C   LIG    1       26.531 -21.499   8.744  0.00  0.00    +0.320 C 
ATOM      5  N   LIG    1       26.066 -22.806   8.279  0.00  0.00    -0.243 NA
ATOM      6  C   LIG    1       25.682 -22.903   7.049  0.00  0.00    +0.081 C 
ATOM      7  C   LIG    1       25.562 -21.723   6.129  0.00  0.00    +0.024 A 
ATOM      8  C   LIG    1       24.330 -21.591   5.462  0.00  0.00    +0.032 A 
ATOM      9  C   LIG    1       24.162 -20.610   4.494  0.00  0.00    +0.042 A 
ATOM     10 CL   LIG    1       22.673 -20.493   3.644  0.00  0.00    -0.084 Cl
ATOM     11  C   LIG    1       25.194 -19.725   4.210  0.00  0.00    +0.022 A 
ATOM     12  C   LIG    1       26.391 -19.800   4.930  0.00  0.00    +0.025 A 
ATOM     13  C   LIG    1       26.600 -20.783   5.917  0.00  0.00    +0.046 A 
ENDROOT
BRANCH   6  14
ATOM     14  C   LIG    1       25.309 -24.275   6.545  0.00  0.00    +0.036 A 
ATOM     15  C   LIG    1       23.981 -24.715   6.522  0.00  0.00    +0.133 A 
ATOM     16  F   LIG    1       22.984 -23.928   6.951  0.00  0.00    -0.205 F 
ATOM     17  C   LIG    1       23.644 -25.980   6.038  0.00  0.00    +0.039 A 
ATOM     18  C   LIG    1       24.635 -26.824   5.544  0.00  0.00    +0.003 A 
ATOM     19  C   LIG    1       25.963 -26.400   5.544  0.00  0.00    +0.001 A 
ATOM     20  C   LIG    1       26.302 -25.134   6.042  0.00  0.00    +0.013 A 
ENDBRANCH   6  14
BRANCH   4  21
ATOM     21  O   LIG    1       25.562 -20.470   8.708  0.00  0.00    -0.364 OA
ATOM     22  H   LIG    1       25.924 -19.795   9.305  0.00  0.00    +0.212 HD
ENDBRANCH   4  21
BRANCH   1  23
ATOM     23  C   LIG    1       29.071 -20.288   6.079  0.00  0.00    +0.128 C 
BRANCH  23  24
ATOM     24  C   LIG    1       29.465 -18.860   6.484  0.00  0.00    +0.138 C 
BRANCH  24  26
ATOM     25  N   LIG    1       31.835 -18.832   7.625  0.00  0.00    -0.197 NA
ATOM     26  C   LIG    1       30.782 -18.845   7.121  0.00  0.00    +0.064 C 
ENDBRANCH  24  26
ENDBRANCH  23  24
ENDBRANCH   1  23
TORSDOF 5
ENDMDL
MODEL 2
REMARK VINA RESULT:      -7.2      3.102      5.555
REMARK  Name = *****
REMARK                            x       y       z     vdW  Elec       q    Type
REMARK                         _______ _______ _______ _____ _____    ______ ____
ROOT
ATOM      1  N   LIG    1       23.727 -21.392   5.146  0.00  0.00    -0.266 N 
ATOM      2  C   LIG    1       23.386 -20.442   6.119  0.00  0.00    +0.271 C 
ATOM      3  O   LIG    1       22.820 -19.383   5.822  0.00  0.00    -0.270 OA
ATOM      4  C   LIG    1       23.699 -20.782   7.606  0.00  0.00    +0.320 C 
ATOM      5  N   LIG    1       25.128 -20.559   7.816  0.00  0.00    -0.243 NA
ATOM      6  C   LIG    1       25.953 -21.358   7.222  0.00  0.00    +0.081 C 
ATOM      7  C   LIG    1       25.515 -22.570   6.454  0.00  0.00    +0.024 A 
ATOM      8  C   LIG    1       26.150 -23.777   6.803  0.00  0.00    +0.032 A 
ATOM      9  C   LIG    1       25.911 -24.930   6.066  0.00  0.00    +0.042 A 
ATOM     10 CL   LIG    1       26.733 -26.385   6.465  0.00  0.00    -0.084 Cl
ATOM     11  C   LIG    1       25.011 -24.908   5.010  0.00  0.00    +0.022 A 
ATOM     12  C   LIG    1       24.315 -23.732   4.712  0.00  0.00    +0.025 A 
ATOM     13  C   LIG    1       24.533 -22.542   5.434  0.00  0.00    +0.046 A 
ENDROOT
BRANCH   6  14
ATOM     14  C   LIG    1       27.426 -21.056   7.352  0.00  0.00    +0.036 A 
ATOM     15  C   LIG    1       28.086 -20.210   6.453  0.00  0.00    +0.133 A 
ATOM     16  F   LIG    1       27.430 -19.634   5.437  0.00  0.00    -0.205 F 
ATOM     17  C   LIG    1       29.445 -19.924   6.592  0.00  0.00    +0.039 A 
ATOM     18  C   LIG    1       30.167 -20.465   7.652  0.00  0.00    +0.003 A 
ATOM     19  C   LIG    1       29.526 -21.298   8.567  0.00  0.00    +0.001 A 
ATOM     20  C   LIG    1       28.164 -21.596   8.420  0.00  0.00    +0.013 A 
ENDBRANCH   6  14
BRANCH   4  21
ATOM     21  O   LIG    1       23.211 -22.025   8.071  0.00  0.00    -0.364 OA
ATOM     22  H   LIG    1       23.959 -22.630   7.932  0.00  0.00    +0.212 HD
ENDBRANCH   4  21
BRANCH   1  23
ATOM     23  C   LIG    1       23.249 -21.138   3.773  0.00  0.00    +0.128 C 
BRANCH  23  24
ATOM     24  C   LIG    1       24.349 -20.672   2.808  0.00  0.00    +0.138 C 
BRANCH  24  26
ATOM     25  N   LIG    1       25.260 -18.303   3.502  0.00  0.00    -0.197 NA
ATOM     26  C   LIG    1       24.857 -19.356   3.196  0.00  0.00    +0.064 C 
ENDBRANCH  24  26
ENDBRANCH  23  24
ENDBRANCH   1  23
TORSDOF 5
ENDMDL
MODEL 3
REMARK VINA RESULT:      -6.4      6.931      8.900
REMARK  Name = *****
REMARK                            x       y       z     vdW  Elec       q    Type
REMARK                         _______ _______ _______ _____ _____    ______ ____
ROOT
ATOM      1  N   LIG    1       26.456 -29.055  11.762  0.00  0.00    -0.266 N 
ATOM      2  C   LIG    1       27.539 -29.686  11.136  0.00  0.00    +0.271 C 
ATOM      3  O   LIG    1       28.705 -29.324  11.335  0.00  0.00    -0.270 OA
ATOM      4  C   LIG    1       27.236 -30.900  10.210  0.00  0.00    +0.320 C 
ATOM      5  N   LIG    1       26.744 -30.370   8.939  0.00  0.00    -0.243 NA
ATOM      6  C   LIG    1       25.589 -29.790   8.938  0.00  0.00    +0.081 C 
ATOM      7  C   LIG    1       24.682 -29.761  10.133  0.00  0.00    +0.024 A 
ATOM      8  C   LIG    1       23.360 -30.187   9.908  0.00  0.00    +0.032 A 
ATOM      9  C   LIG    1       22.410 -30.076  10.915  0.00  0.00    +0.042 A 
ATOM     10 CL   LIG    1       20.784 -30.546  10.612  0.00  0.00    -0.084 Cl
ATOM     11  C   LIG    1       22.770 -29.586  12.163  0.00  0.00    +0.022 A 
ATOM     12  C   LIG    1       24.101 -29.240  12.417  0.00  0.00    +0.025 A 
ATOM     13  C   LIG    1       25.092 -29.336  11.421  0.00  0.00    +0.046 A 
ENDROOT
BRANCH   6  14
ATOM     14  C   LIG    1       25.136 -29.148   7.650  0.00  0.00    +0.036 A 
ATOM     15  C   LIG    1       25.500 -27.840   7.312  0.00  0.00    +0.133 A 
ATOM     16  F   LIG    1       26.269 -27.103   8.126  0.00  0.00    -0.205 F 
ATOM     17  C   LIG    1       25.090 -27.260   6.110  0.00  0.00    +0.039 A 
ATOM     18  C   LIG    1       24.322 -27.993   5.210  0.00  0.00    +0.003 A 
ATOM     19  C   LIG    1       23.960 -29.303   5.520  0.00  0.00    +0.001 A 
ATOM     20  C   LIG    1       24.362 -29.880   6.733  0.00  0.00    +0.013 A 
ENDBRANCH   6  14
BRANCH   4  21
ATOM     21  O   LIG    1       26.446 -31.927  10.777  0.00  0.00    -0.364 OA
ATOM     22  H   LIG    1       26.649 -32.701  10.226  0.00  0.00    +0.212 HD
ENDBRANCH   4  21
BRANCH   1  23
ATOM     23  C   LIG    1       26.777 -28.037  12.782  0.00  0.00    +0.128 C 
BRANCH  23  24
ATOM     24  C   LIG    1       26.389 -26.607  12.377  0.00  0.00    +0.138 C 
BRANCH  24  26
ATOM     25  N   LIG    1       27.644 -24.837  13.864  0.00  0.00    -0.197 NA
ATOM     26  C   LIG    1       27.087 -25.625  13.206  0.00  0.00    +0.064 C 
ENDBRANCH  24  26
ENDBRANCH  23  24
ENDBRANCH   1  23
TORSDOF 5
ENDMDL
MODEL 4
REMARK VINA RESULT:      -6.0      2.122      2.759
REMARK  Name = *****
REMARK                            x       y       z     vdW  Elec       q    Type
REMARK                         _______ _______ _______ _____ _____    ______ ____
ROOT
ATOM      1  N   LIG    1       26.340 -20.353   5.928  0.00  0.00    -0.266 N 
ATOM      2  C   LIG    1       27.130 -20.664   7.043  0.00  0.00    +0.271 C 
ATOM      3  O   LIG    1       28.315 -20.318   7.118  0.00  0.00    -0.270 OA
ATOM      4  C   LIG    1       26.453 -21.425   8.222  0.00  0.00    +0.320 C 
ATOM      5  N   LIG    1       26.353 -22.832   7.836  0.00  0.00    -0.243 NA
ATOM      6  C   LIG    1       25.542 -23.134   6.876  0.00  0.00    +0.081 C 
ATOM      7  C   LIG    1       24.610 -22.142   6.245  0.00  0.00    +0.024 A 
ATOM      8  C   LIG    1       23.259 -22.532   6.174  0.00  0.00    +0.032 A 
ATOM      9  C   LIG    1       22.339 -21.744   5.494  0.00  0.00    +0.042 A 
ATOM     10 CL   LIG    1       20.704 -22.257   5.365  0.00  0.00    -0.084 Cl
ATOM     11  C   LIG    1       22.738 -20.546   4.918  0.00  0.00    +0.022 A 
ATOM     12  C   LIG    1       24.061 -20.114   5.057  0.00  0.00    +0.025 A 
ATOM     13  C   LIG    1       25.023 -20.886   5.737  0.00  0.00    +0.046 A 
ENDROOT
BRANCH   6  14
ATOM     14  C   LIG    1       25.525 -24.568   6.408  0.00  0.00    +0.036 A 
ATOM     15  C   LIG    1       25.228 -24.906   5.083  0.00  0.00    +0.133 A 
ATOM     16  F   LIG    1       24.946 -23.962   4.175  0.00  0.00    -0.205 F 
ATOM     17  C   LIG    1       25.232 -26.235   4.656  0.00  0.00    +0.039 A 
ATOM     18  C   LIG    1       25.556 -27.253   5.548  0.00  0.00    +0.003 A 
ATOM     19  C   LIG    1       25.868 -26.937   6.869  0.00  0.00    +0.001 A 
ATOM     20  C   LIG    1       25.852 -25.603   7.300  0.00  0.00    +0.013 A 
ENDBRANCH   6  14
BRANCH   4  21
ATOM     21  O   LIG    1       25.260 -20.853   8.721  0.00  0.00    -0.364 OA
ATOM     22  H   LIG    1       24.820 -20.511   7.926  0.00  0.00    +0.212 HD
ENDBRANCH   4  21
BRANCH   1  23
ATOM     23  C   LIG    1       26.943 -19.467   4.913  0.00  0.00    +0.128 C 
BRANCH  23  24
ATOM     24  C   LIG    1       26.015 -19.154   3.730  0.00  0.00    +0.138 C 
BRANCH  24  26
ATOM     25  N   LIG    1       26.101 -16.595   3.124  0.00  0.00    -0.197 NA
ATOM     26  C   LIG    1       26.062 -17.731   3.396  0.00  0.00    +0.064 C 
ENDBRANCH  24  26
ENDBRANCH  23  24
ENDBRANCH   1  23
TORSDOF 5
ENDMDL
MODEL 5
REMARK VINA RESULT:      -6.0      7.865     10.378
REMARK  Name = *****
REMARK                            x       y       z     vdW  Elec       q    Type
REMARK                         _______ _______ _______ _____ _____    ______ ____
ROOT
ATOM      1  N   LIG    1       24.419 -32.001   8.358  0.00  0.00    -0.266 N 
ATOM      2  C   LIG    1       25.409 -32.715   9.047  0.00  0.00    +0.271 C 
ATOM      3  O   LIG    1       25.183 -33.824   9.544  0.00  0.00    -0.270 OA
ATOM      4  C   LIG    1       26.832 -32.087   9.128  0.00  0.00    +0.320 C 
ATOM      5  N   LIG    1       26.795 -31.047  10.155  0.00  0.00    -0.243 NA
ATOM      6  C   LIG    1       26.094 -29.989   9.911  0.00  0.00    +0.081 C 
ATOM      7  C   LIG    1       25.442 -29.721   8.587  0.00  0.00    +0.024 A 
ATOM      8  C   LIG    1       25.712 -28.464   8.015  0.00  0.00    +0.032 A 
ATOM      9  C   LIG    1       25.056 -28.068   6.856  0.00  0.00    +0.042 A 
ATOM     10 CL   LIG    1       25.350 -26.508   6.198  0.00  0.00    -0.084 Cl
ATOM     11  C   LIG    1       24.164 -28.928   6.231  0.00  0.00    +0.022 A 
ATOM     12  C   LIG    1       23.955 -30.211   6.749  0.00  0.00    +0.025 A 
ATOM     13  C   LIG    1       24.599 -30.647   7.924  0.00  0.00    +0.046 A 
ENDROOT
BRANCH   6  14
ATOM     14  C   LIG    1       25.968 -28.970  11.017  0.00  0.00    +0.036 A 
ATOM     15  C   LIG    1       24.841 -28.916  11.844  0.00  0.00    +0.133 A 
ATOM     16  F   LIG    1       23.823 -29.773  11.683  0.00  0.00    -0.205 F 
ATOM     17  C   LIG    1       24.742 -27.981  12.875  0.00  0.00    +0.039 A 
ATOM     18  C   LIG    1       25.786 -27.091  13.112  0.00  0.00    +0.003 A 
ATOM     19  C   LIG    1       26.925 -27.137  12.310  0.00  0.00    +0.001 A 
ATOM     20  C   LIG    1       27.018 -28.069  11.266  0.00  0.00    +0.013 A 
ENDBRANCH   6  14
BRANCH   4  21
ATOM     21  O   LIG    1       27.405 -31.693   7.896  0.00  0.00    -0.364 OA
ATOM     22  H   LIG    1       28.087 -31.053   8.156  0.00  0.00    +0.212 HD
ENDBRANCH   4  21
BRANCH   1  23
ATOM     23  C   LIG    1       23.138 -32.697   8.125  0.00  0.00    +0.128 C 
BRANCH  23  24
ATOM     24  C   LIG    1       22.345 -32.985   9.409  0.00  0.00    +0.138 C 
BRANCH  24  26
ATOM     25  N   LIG    1       21.108 -30.821  10.250  0.00  0.00    -0.197 NA
ATOM     26  C   LIG    1       21.660 -31.780   9.877  0.00  0.00    +0.064 C 
ENDBRANCH  24  26
ENDBRANCH  23  24
ENDBRANCH   1  23
TORSDOF 5
ENDMDL
