MODEL 1
REMARK VINA RESULT:      41.9      0.000      0.000
REMARK  Name = *****
REMARK                            x       y       z     vdW  Elec       q    Type
REMARK                         _______ _______ _______ _____ _____    ______ ____
ROOT
ATOM      1  C   LIG    1       27.147 -14.103   5.414  0.00  0.00    +0.133 C 
ATOM      2  C   LIG    1       26.886 -15.263   4.418  0.00  0.00    +0.012 C 
ATOM      3  C   LIG    1       28.136 -16.145   4.152  0.00  0.00    +0.011 C 
ATOM      4  C   LIG    1       28.186 -17.410   5.037  0.00  0.00    +0.089 C 
ATOM      5  N   LIG    1       26.947 -18.188   5.056  0.00  0.00    -0.293 NA
ATOM      6  C   LIG    1       25.847 -17.573   4.288  0.00  0.00    +0.104 C 
ATOM      7  C   LIG    1       24.628 -18.426   4.403  0.00  0.00    +0.038 C 
ATOM      8  C   LIG    1       24.615 -19.770   4.720  0.00  0.00    -0.016 C 
ATOM      9  C   LIG    1       23.274 -20.228   4.606  0.00  0.00    +0.003 C 
ATOM     10  C   LIG    1       22.504 -19.131   4.212  0.00  0.00    +0.047 C 
ATOM     11  C   LIG    1       21.125 -19.214   3.988  0.00  0.00    +0.026 C 
ATOM     12  C   LIG    1       20.512 -20.456   4.175  0.00  0.00    +0.002 C 
ATOM     13  C   LIG    1       21.253 -21.568   4.568  0.00  0.00    +0.001 C 
ATOM     14  C   LIG    1       22.632 -21.470   4.788  0.00  0.00    +0.010 C 
ATOM     15  C   LIG    1       25.873 -20.479   5.098  0.00  0.00    +0.053 C 
ATOM     16  N   LIG    1       23.350 -18.051   4.098  0.00  0.00    -0.356 NA
ATOM     17  H   LIG    1       23.058 -17.128   3.811  0.00  0.00    +0.166 HD
ATOM     18  C   LIG    1       27.125 -19.623   4.751  0.00  0.00    +0.090 C 
ATOM     19  C   LIG    1       29.464 -15.381   4.227  0.00  0.00    +0.052 C 
ATOM     20  C   LIG    1       29.292 -13.881   4.004  0.00  0.00    +0.206 C 
ATOM     21  C   LIG    1       25.670 -16.141   4.811  0.00  0.00    +0.030 C 
ATOM     22  C   LIG    1       28.436 -13.281   5.138  0.00  0.00    +0.172 C 
ENDROOT
BRANCH   1  23
ATOM     23  C   LIG    1       25.951 -13.159   5.431  0.00  0.00    +0.313 C 
ATOM     24  O   LIG    1       26.013 -11.948   5.262  0.00  0.00    -0.250 OA
BRANCH  23  26
ATOM     25  C   LIG    1       23.842 -13.392   6.478  0.00  0.00    +0.280 C 
ATOM     26  O   LIG    1       24.798 -13.880   5.534  0.00  0.00    -0.468 OA
ENDBRANCH  23  26
ENDBRANCH   1  23
BRANCH  22  27
ATOM     27  O   LIG    1       29.166 -13.277   6.387  0.00  0.00    -0.375 OA
ATOM     28  C   LIG    1       29.246 -12.009   7.026  0.00  0.00    +0.194 C 
ENDBRANCH  22  27
BRANCH  20  29
ATOM     29  O   LIG    1       28.725 -13.667   2.704  0.00  0.00    -0.455 OA
BRANCH  29  30
ATOM     30  C   LIG    1       27.853 -12.649   2.615  0.00  0.00    +0.340 C 
ATOM     31  O   LIG    1       28.112 -11.486   2.296  0.00  0.00    -0.245 OA
BRANCH  30  32
ATOM     32  C   LIG    1       26.493 -13.188   2.711  0.00  0.00    +0.066 A 
ATOM     33  C   LIG    1       25.450 -12.308   3.010  0.00  0.00    +0.064 A 
ATOM     34  C   LIG    1       24.120 -12.722   2.957  0.00  0.00    +0.166 A 
ATOM     35  C   LIG    1       23.837 -14.081   2.662  0.00  0.00    +0.203 A 
ATOM     36  C   LIG    1       24.907 -14.972   2.360  0.00  0.00    +0.166 A 
ATOM     37  C   LIG    1       26.222 -14.513   2.393  0.00  0.00    +0.064 A 
BRANCH  34  38
ATOM     38  O   LIG    1       23.098 -11.822   3.167  0.00  0.00    -0.491 OA
ATOM     39  C   LIG    1       22.861 -11.448   4.533  0.00  0.00    +0.277 C 
ENDBRANCH  34  38
BRANCH  35  40
ATOM     40  O   LIG    1       22.586 -14.641   2.564  0.00  0.00    -0.488 OA
ATOM     41  C   LIG    1       21.962 -15.097   3.758  0.00  0.00    +0.277 C 
ENDBRANCH  35  40
BRANCH  36  42
ATOM     42  O   LIG    1       24.595 -16.273   2.024  0.00  0.00    -0.491 OA
ATOM     43  C   LIG    1       25.676 -17.206   1.937  0.00  0.00    +0.277 C 
ENDBRANCH  36  42
ENDBRANCH  30  32
ENDBRANCH  29  30
ENDBRANCH  20  29
TORSDOF 9
ENDMDL
