MODEL 1
REMARK VINA RESULT:      -5.0      0.000      0.000
REMARK  Name = *****
REMARK                            x       y       z     vdW  Elec       q    Type
REMARK                         _______ _______ _______ _____ _____    ______ ____
ROOT
ATOM      1  P   LIG    1       31.257 -18.956   8.514  0.00  0.00    +0.359 P 
ATOM      2  O   LIG    1       32.128 -19.914   9.317  0.00  0.00    -0.256 OA
ENDROOT
BRANCH   1   5
ATOM      3  C   LIG    1       32.430 -16.016   9.412  0.00  0.00    +0.041 C 
ATOM      4  C   LIG    1       31.475 -16.697  10.328  0.00  0.00    +0.157 C 
ATOM      5  C   LIG    1       30.899 -18.079  10.079  0.00  0.00    +0.260 C 
ATOM      6  O   LIG    1       32.031 -17.850  10.958  0.00  0.00    -0.356 OA
ENDBRANCH   1   5
BRANCH   1   7
ATOM      7  O   LIG    1       31.596 -19.785   7.035  0.00  0.00    -0.322 OA
ATOM      8  H   LIG    1       32.400 -19.358   6.679  0.00  0.00    +0.220 HD
ENDBRANCH   1   7
BRANCH   1   9
ATOM      9  O   LIG    1       29.788 -19.675   8.540  0.00  0.00    -0.322 OA
ATOM     10  H   LIG    1       29.090 -18.996   8.542  0.00  0.00    +0.220 HD
ENDBRANCH   1   9
TORSDOF 3
ENDMDL
MODEL 2
REMARK VINA RESULT:      -4.9      1.357      2.133
REMARK  Name = *****
REMARK                            x       y       z     vdW  Elec       q    Type
REMARK                         _______ _______ _______ _____ _____    ______ ____
ROOT
ATOM      1  P   LIG    1       31.123 -19.754   8.488  0.00  0.00    +0.359 P 
ATOM      2  O   LIG    1       31.718 -19.654   7.089  0.00  0.00    -0.256 OA
ENDROOT
BRANCH   1   5
ATOM      3  C   LIG    1       30.303 -17.535  10.774  0.00  0.00    +0.041 C 
ATOM      4  C   LIG    1       31.585 -17.345  10.044  0.00  0.00    +0.157 C 
ATOM      5  C   LIG    1       32.065 -18.248   8.923  0.00  0.00    +0.260 C 
ATOM      6  O   LIG    1       31.400 -16.983   8.677  0.00  0.00    -0.356 OA
ENDBRANCH   1   5
BRANCH   1   7
ATOM      7  O   LIG    1       30.231 -21.178   8.077  0.00  0.00    -0.322 OA
ATOM      8  H   LIG    1       30.324 -21.772   8.848  0.00  0.00    +0.220 HD
ENDBRANCH   1   7
BRANCH   1   9
ATOM      9  O   LIG    1       32.196 -20.699   9.284  0.00  0.00    -0.322 OA
ATOM     10  H   LIG    1       32.936 -20.154   9.607  0.00  0.00    +0.220 HD
ENDBRANCH   1   9
TORSDOF 3
ENDMDL
MODEL 3
REMARK VINA RESULT:      -4.9      2.979      3.909
REMARK  Name = *****
REMARK                            x       y       z     vdW  Elec       q    Type
REMARK                         _______ _______ _______ _____ _____    ______ ____
ROOT
ATOM      1  P   LIG    1       31.135 -19.135   8.087  0.00  0.00    +0.359 P 
ATOM      2  O   LIG    1       31.924 -19.739   9.243  0.00  0.00    -0.256 OA
ENDROOT
BRANCH   1   5
ATOM      3  C   LIG    1       28.561 -19.738   6.131  0.00  0.00    +0.041 C 
ATOM      4  C   LIG    1       28.975 -20.799   7.089  0.00  0.00    +0.157 C 
ATOM      5  C   LIG    1       30.100 -20.643   8.094  0.00  0.00    +0.260 C 
ATOM      6  O   LIG    1       28.705 -20.459   8.448  0.00  0.00    -0.356 OA
ENDBRANCH   1   5
BRANCH   1   7
ATOM      7  O   LIG    1       32.115 -17.709   8.082  0.00  0.00    -0.322 OA
ATOM      8  H   LIG    1       31.705 -17.119   7.418  0.00  0.00    +0.220 HD
ENDBRANCH   1   7
BRANCH   1   9
ATOM      9  O   LIG    1       31.949 -19.656   6.767  0.00  0.00    -0.322 OA
ATOM     10  H   LIG    1       31.868 -19.000   6.052  0.00  0.00    +0.220 HD
ENDBRANCH   1   9
TORSDOF 3
ENDMDL
MODEL 4
REMARK VINA RESULT:      -4.8      2.363      3.707
REMARK  Name = *****
REMARK                            x       y       z     vdW  Elec       q    Type
REMARK                         _______ _______ _______ _____ _____    ______ ____
ROOT
ATOM      1  P   LIG    1       31.222 -17.475   9.201  0.00  0.00    +0.359 P 
ATOM      2  O   LIG    1       31.964 -18.305  10.241  0.00  0.00    -0.256 OA
ENDROOT
BRANCH   1   5
ATOM      3  C   LIG    1       29.368 -19.437   7.322  0.00  0.00    +0.041 C 
ATOM      4  C   LIG    1       30.840 -19.447   7.105  0.00  0.00    +0.157 C 
ATOM      5  C   LIG    1       31.826 -18.646   7.933  0.00  0.00    +0.260 C 
ATOM      6  O   LIG    1       31.559 -20.050   8.179  0.00  0.00    -0.356 OA
ENDBRANCH   1   5
BRANCH   1   7
ATOM      7  O   LIG    1       30.650 -16.368  10.402  0.00  0.00    -0.322 OA
ATOM      8  H   LIG    1       30.264 -15.622   9.900  0.00  0.00    +0.220 HD
ENDBRANCH   1   7
BRANCH   1   9
ATOM      9  O   LIG    1       32.332 -16.360   8.753  0.00  0.00    -0.322 OA
ATOM     10  H   LIG    1       33.227 -16.698   8.933  0.00  0.00    +0.220 HD
ENDBRANCH   1   9
TORSDOF 3
ENDMDL
MODEL 5
REMARK VINA RESULT:      -4.8      2.832      4.203
REMARK  Name = *****
REMARK                            x       y       z     vdW  Elec       q    Type
REMARK                         _______ _______ _______ _____ _____    ______ ____
ROOT
ATOM      1  P   LIG    1       30.919 -20.333   8.524  0.00  0.00    +0.359 P 
ATOM      2  O   LIG    1       31.840 -19.734   7.469  0.00  0.00    -0.256 OA
ENDROOT
BRANCH   1   5
ATOM      3  C   LIG    1       27.990 -21.546   7.646  0.00  0.00    +0.041 C 
ATOM      4  C   LIG    1       28.228 -20.090   7.458  0.00  0.00    +0.157 C 
ATOM      5  C   LIG    1       29.545 -19.399   7.758  0.00  0.00    +0.260 C 
ATOM      6  O   LIG    1       29.163 -19.806   6.419  0.00  0.00    -0.356 OA
ENDBRANCH   1   5
BRANCH   1   7
ATOM      7  O   LIG    1       32.218 -21.216   9.248  0.00  0.00    -0.322 OA
ATOM      8  H   LIG    1       32.113 -22.135   8.929  0.00  0.00    +0.220 HD
ENDBRANCH   1   7
BRANCH   1   9
ATOM      9  O   LIG    1       31.011 -19.258   9.754  0.00  0.00    -0.322 OA
ATOM     10  H   LIG    1       30.118 -18.942   9.981  0.00  0.00    +0.220 HD
ENDBRANCH   1   9
TORSDOF 3
ENDMDL
MODEL 6
REMARK VINA RESULT:      -4.7      1.479      2.069
REMARK  Name = *****
REMARK                            x       y       z     vdW  Elec       q    Type
REMARK                         _______ _______ _______ _____ _____    ______ ____
ROOT
ATOM      1  P   LIG    1       31.107 -20.242   8.660  0.00  0.00    +0.359 P 
ATOM      2  O   LIG    1       29.802 -21.010   8.497  0.00  0.00    -0.256 OA
ENDROOT
BRANCH   1   5
ATOM      3  C   LIG    1       32.069 -17.317   9.817  0.00  0.00    +0.041 C 
ATOM      4  C   LIG    1       30.725 -17.412   9.186  0.00  0.00    +0.157 C 
ATOM      5  C   LIG    1       30.121 -18.701   8.664  0.00  0.00    +0.260 C 
ATOM      6  O   LIG    1       29.792 -18.156   9.967  0.00  0.00    -0.356 OA
ENDBRANCH   1   5
BRANCH   1   7
ATOM      7  O   LIG    1       32.039 -21.699   8.656  0.00  0.00    -0.322 OA
ATOM      8  H   LIG    1       32.852 -21.486   9.156  0.00  0.00    +0.220 HD
ENDBRANCH   1   7
BRANCH   1   9
ATOM      9  O   LIG    1       31.580 -19.978   7.116  0.00  0.00    -0.322 OA
ATOM     10  H   LIG    1       32.448 -19.536   7.110  0.00  0.00    +0.220 HD
ENDBRANCH   1   9
TORSDOF 3
ENDMDL
MODEL 7
REMARK VINA RESULT:      -4.6      1.527      2.059
REMARK  Name = *****
REMARK                            x       y       z     vdW  Elec       q    Type
REMARK                         _______ _______ _______ _____ _____    ______ ____
ROOT
ATOM      1  P   LIG    1       30.480 -18.936   7.141  0.00  0.00    +0.359 P 
ATOM      2  O   LIG    1       31.953 -19.151   6.819  0.00  0.00    -0.256 OA
ENDROOT
BRANCH   1   5
ATOM      3  C   LIG    1       30.552 -16.979   9.784  0.00  0.00    +0.041 C 
ATOM      4  C   LIG    1       30.792 -18.433   9.984  0.00  0.00    +0.157 C 
ATOM      5  C   LIG    1       30.850 -19.447   8.858  0.00  0.00    +0.260 C 
ATOM      6  O   LIG    1       32.041 -18.872   9.454  0.00  0.00    -0.356 OA
ENDBRANCH   1   5
BRANCH   1   7
ATOM      7  O   LIG    1       30.130 -18.453   5.517  0.00  0.00    -0.322 OA
ATOM      8  H   LIG    1       31.001 -18.280   5.108  0.00  0.00    +0.220 HD
ENDBRANCH   1   7
BRANCH   1   9
ATOM      9  O   LIG    1       29.810 -20.392   6.814  0.00  0.00    -0.322 OA
ATOM     10  H   LIG    1       28.989 -20.269   6.304  0.00  0.00    +0.220 HD
ENDBRANCH   1   9
TORSDOF 3
ENDMDL
MODEL 8
REMARK VINA RESULT:      -4.4      3.770      4.689
REMARK  Name = *****
REMARK                            x       y       z     vdW  Elec       q    Type
REMARK                         _______ _______ _______ _____ _____    ______ ____
ROOT
ATOM      1  P   LIG    1       29.994 -19.694   7.422  0.00  0.00    +0.359 P 
ATOM      2  O   LIG    1       29.630 -19.273   8.840  0.00  0.00    -0.256 OA
ENDROOT
BRANCH   1   5
ATOM      3  C   LIG    1       26.952 -20.451   6.425  0.00  0.00    +0.041 C 
ATOM      4  C   LIG    1       27.725 -21.488   7.161  0.00  0.00    +0.157 C 
ATOM      5  C   LIG    1       29.111 -21.266   7.734  0.00  0.00    +0.260 C 
ATOM      6  O   LIG    1       27.908 -21.175   8.540  0.00  0.00    -0.356 OA
ENDBRANCH   1   5
BRANCH   1   7
ATOM      7  O   LIG    1       30.828 -18.208   7.126  0.00  0.00    -0.322 OA
ATOM      8  H   LIG    1       30.130 -17.562   6.901  0.00  0.00    +0.220 HD
ENDBRANCH   1   7
BRANCH   1   9
ATOM      9  O   LIG    1       31.443 -20.429   7.610  0.00  0.00    -0.322 OA
ATOM     10  H   LIG    1       31.573 -21.085   6.901  0.00  0.00    +0.220 HD
ENDBRANCH   1   9
TORSDOF 3
ENDMDL
MODEL 9
REMARK VINA RESULT:      -4.4      2.259      3.742
REMARK  Name = *****
REMARK                            x       y       z     vdW  Elec       q    Type
REMARK                         _______ _______ _______ _____ _____    ______ ____
ROOT
ATOM      1  P   LIG    1       31.621 -18.201   9.482  0.00  0.00    +0.359 P 
ATOM      2  O   LIG    1       31.890 -16.906   8.725  0.00  0.00    -0.256 OA
ENDROOT
BRANCH   1   5
ATOM      3  C   LIG    1       31.012 -21.364   8.813  0.00  0.00    +0.041 C 
ATOM      4  C   LIG    1       30.595 -20.345   7.812  0.00  0.00    +0.157 C 
ATOM      5  C   LIG    1       30.863 -18.858   7.952  0.00  0.00    +0.260 C 
ATOM      6  O   LIG    1       31.698 -19.731   7.148  0.00  0.00    -0.356 OA
ENDBRANCH   1   5
BRANCH   1   7
ATOM      7  O   LIG    1       32.338 -17.580  10.928  0.00  0.00    -0.322 OA
ATOM      8  H   LIG    1       31.749 -17.871  11.652  0.00  0.00    +0.220 HD
ENDBRANCH   1   7
BRANCH   1   9
ATOM      9  O   LIG    1       30.148 -17.947  10.145  0.00  0.00    -0.322 OA
ATOM     10  H   LIG    1       29.454 -18.151   9.492  0.00  0.00    +0.220 HD
ENDBRANCH   1   9
TORSDOF 3
ENDMDL
