MODEL 1
REMARK VINA RESULT:      -5.0      0.000      0.000
REMARK  Name = *****
REMARK                            x       y       z     vdW  Elec       q    Type
REMARK                         _______ _______ _______ _____ _____    ______ ____
ROOT
ATOM      1  CA  LIG    1       31.360 -20.435   8.397  0.00  0.00    +0.176 C 
ENDROOT
BRANCH   1   3
ATOM      2  C   LIG    1       29.229 -19.028   8.802  0.00  0.00    +0.024 C 
ATOM      3  C   LIG    1       29.960 -19.997   7.864  0.00  0.00    +0.034 C 
ATOM      4  C   LIG    1       29.056 -21.199   7.549  0.00  0.00    +0.024 C 
BRANCH   3   5
ATOM      5  S   LIG    1       30.221 -19.100   6.255  0.00  0.00    -0.170 S 
ATOM      6  H   LIG    1       31.268 -18.358   6.651  0.00  0.00    +0.102 HD
ENDBRANCH   3   5
ENDBRANCH   1   3
BRANCH   1   7
ATOM      7  N   LIG    1       32.032 -19.420   9.289  0.00  0.00    -0.317 NA
ATOM      8  H1  LIG    1       32.921 -19.184   8.828  0.00  0.00    +0.119 HD
ATOM      9  H2  LIG    1       31.506 -18.541   9.231  0.00  0.00    +0.119 HD
ENDBRANCH   1   7
BRANCH   1  10
ATOM     10  C   LIG    1       31.349 -21.775   9.167  0.00  0.00    +0.323 C 
ATOM     11  O   LIG    1       30.726 -22.022  10.184  0.00  0.00    -0.249 OA
BRANCH  10  12
ATOM     12  OXT LIG    1       32.110 -22.705   8.526  0.00  0.00    -0.479 OA
ATOM     13  HXT LIG    1       33.031 -22.586   8.874  0.00  0.00    +0.295 HD
ENDBRANCH  10  12
ENDBRANCH   1  10
TORSDOF 5
ENDMDL
MODEL 2
REMARK VINA RESULT:      -4.5      2.904      3.526
REMARK  Name = *****
REMARK                            x       y       z     vdW  Elec       q    Type
REMARK                         _______ _______ _______ _____ _____    ______ ____
ROOT
ATOM      1  CA  LIG    1       31.549 -18.372   9.128  0.00  0.00    +0.176 C 
ENDROOT
BRANCH   1   3
ATOM      2  C   LIG    1       31.139 -19.310   6.754  0.00  0.00    +0.024 C 
ATOM      3  C   LIG    1       30.729 -19.352   8.232  0.00  0.00    +0.034 C 
ATOM      4  C   LIG    1       29.214 -19.127   8.359  0.00  0.00    +0.024 C 
BRANCH   3   5
ATOM      5  S   LIG    1       31.056 -21.081   8.836  0.00  0.00    -0.170 S 
ATOM      6  H   LIG    1       32.041 -20.769   9.693  0.00  0.00    +0.102 HD
ENDBRANCH   3   5
ENDBRANCH   1   3
BRANCH   1   7
ATOM      7  N   LIG    1       32.270 -17.287   8.366  0.00  0.00    -0.317 NA
ATOM      8  H1  LIG    1       33.270 -17.416   8.572  0.00  0.00    +0.119 HD
ATOM      9  H2  LIG    1       32.214 -17.504   7.366  0.00  0.00    +0.119 HD
ENDBRANCH   1   7
BRANCH   1  10
ATOM     10  C   LIG    1       30.713 -17.674  10.226  0.00  0.00    +0.323 C 
ATOM     11  O   LIG    1       30.145 -16.601  10.131  0.00  0.00    -0.249 OA
BRANCH  10  12
ATOM     12  OXT LIG    1       30.641 -18.450  11.342  0.00  0.00    -0.479 OA
ATOM     13  HXT LIG    1       29.732 -18.846  11.336  0.00  0.00    +0.295 HD
ENDBRANCH  10  12
ENDBRANCH   1  10
TORSDOF 5
ENDMDL
MODEL 3
REMARK VINA RESULT:      -4.5      5.492      6.292
REMARK  Name = *****
REMARK                            x       y       z     vdW  Elec       q    Type
REMARK                         _______ _______ _______ _____ _____    ______ ____
ROOT
ATOM      1  CA  LIG    1       25.274 -22.235   7.715  0.00  0.00    +0.176 C 
ENDROOT
BRANCH   1   3
ATOM      2  C   LIG    1       23.315 -20.666   7.096  0.00  0.00    +0.024 C 
ATOM      3  C   LIG    1       24.034 -21.989   6.801  0.00  0.00    +0.034 C 
ATOM      4  C   LIG    1       23.029 -23.151   6.858  0.00  0.00    +0.024 C 
BRANCH   3   5
ATOM      5  S   LIG    1       24.633 -21.900   5.042  0.00  0.00    -0.170 S 
ATOM      6  H   LIG    1       25.217 -20.694   5.132  0.00  0.00    +0.102 HD
ENDBRANCH   3   5
ENDBRANCH   1   3
BRANCH   1   7
ATOM      7  N   LIG    1       26.292 -23.190   7.142  0.00  0.00    -0.317 NA
ATOM      8  H1  LIG    1       26.911 -23.444   7.923  0.00  0.00    +0.119 HD
ATOM      9  H2  LIG    1       25.820 -24.075   6.929  0.00  0.00    +0.119 HD
ENDBRANCH   1   7
BRANCH   1  10
ATOM     10  C   LIG    1       26.033 -20.946   8.106  0.00  0.00    +0.323 C 
ATOM     11  O   LIG    1       26.681 -20.233   7.362  0.00  0.00    -0.249 OA
BRANCH  10  12
ATOM     12  OXT LIG    1       25.847 -20.660   9.425  0.00  0.00    -0.479 OA
ATOM     13  HXT LIG    1       25.955 -19.678   9.504  0.00  0.00    +0.295 HD
ENDBRANCH  10  12
ENDBRANCH   1  10
TORSDOF 5
ENDMDL
MODEL 4
REMARK VINA RESULT:      -4.5      6.914      7.581
REMARK  Name = *****
REMARK                            x       y       z     vdW  Elec       q    Type
REMARK                         _______ _______ _______ _____ _____    ______ ____
ROOT
ATOM      1  CA  LIG    1       24.772 -21.375   4.872  0.00  0.00    +0.176 C 
ENDROOT
BRANCH   1   3
ATOM      2  C   LIG    1       22.854 -20.140   6.088  0.00  0.00    +0.024 C 
ATOM      3  C   LIG    1       24.007 -21.146   6.212  0.00  0.00    +0.034 C 
ATOM      4  C   LIG    1       24.945 -20.723   7.353  0.00  0.00    +0.024 C 
BRANCH   3   5
ATOM      5  S   LIG    1       23.256 -22.769   6.723  0.00  0.00    -0.170 S 
ATOM      6  H   LIG    1       22.773 -22.359   7.907  0.00  0.00    +0.102 HD
ENDBRANCH   3   5
ENDBRANCH   1   3
BRANCH   1   7
ATOM      7  N   LIG    1       23.906 -21.860   3.735  0.00  0.00    -0.317 NA
ATOM      8  H1  LIG    1       23.426 -21.026   3.371  0.00  0.00    +0.119 HD
ATOM      9  H2  LIG    1       24.519 -22.128   2.957  0.00  0.00    +0.119 HD
ENDBRANCH   1   7
BRANCH   1  10
ATOM     10  C   LIG    1       25.533 -20.130   4.361  0.00  0.00    +0.323 C 
ATOM     11  O   LIG    1       25.053 -19.179   3.771  0.00  0.00    -0.249 OA
BRANCH  10  12
ATOM     12  OXT LIG    1       26.850 -20.197   4.703  0.00  0.00    -0.479 OA
ATOM     13  HXT LIG    1       26.971 -21.081   5.136  0.00  0.00    +0.295 HD
ENDBRANCH  10  12
ENDBRANCH   1  10
TORSDOF 5
ENDMDL
MODEL 5
REMARK VINA RESULT:      -4.4      4.504      5.206
REMARK  Name = *****
REMARK                            x       y       z     vdW  Elec       q    Type
REMARK                         _______ _______ _______ _____ _____    ______ ____
ROOT
ATOM      1  CA  LIG    1       26.194 -20.416   7.709  0.00  0.00    +0.176 C 
ENDROOT
BRANCH   1   3
ATOM      2  C   LIG    1       25.255 -20.592   5.307  0.00  0.00    +0.024 C 
ATOM      3  C   LIG    1       25.159 -21.090   6.755  0.00  0.00    +0.034 C 
ATOM      4  C   LIG    1       23.717 -20.940   7.263  0.00  0.00    +0.024 C 
BRANCH   3   5
ATOM      5  S   LIG    1       25.519 -22.915   6.725  0.00  0.00    -0.170 S 
ATOM      6  H   LIG    1       24.244 -23.332   6.788  0.00  0.00    +0.102 HD
ENDBRANCH   3   5
ENDBRANCH   1   3
BRANCH   1   7
ATOM      7  N   LIG    1       25.951 -20.674   9.176  0.00  0.00    -0.317 NA
ATOM      8  H1  LIG    1       26.859 -20.959   9.566  0.00  0.00    +0.119 HD
ATOM      9  H2  LIG    1       25.778 -19.774   9.637  0.00  0.00    +0.119 HD
ENDBRANCH   1   7
BRANCH   1  10
ATOM     10  C   LIG    1       27.663 -20.803   7.420  0.00  0.00    +0.323 C 
ATOM     11  O   LIG    1       28.291 -20.557   6.406  0.00  0.00    -0.249 OA
BRANCH  10  12
ATOM     12  OXT LIG    1       28.213 -21.436   8.493  0.00  0.00    -0.479 OA
ATOM     13  HXT LIG    1       29.191 -21.447   8.326  0.00  0.00    +0.295 HD
ENDBRANCH  10  12
ENDBRANCH   1  10
TORSDOF 5
ENDMDL
MODEL 6
REMARK VINA RESULT:      -4.4      7.129      7.563
REMARK  Name = *****
REMARK                            x       y       z     vdW  Elec       q    Type
REMARK                         _______ _______ _______ _____ _____    ______ ____
ROOT
ATOM      1  CA  LIG    1       23.841 -23.441   6.868  0.00  0.00    +0.176 C 
ENDROOT
BRANCH   1   3
ATOM      2  C   LIG    1       23.211 -20.936   6.750  0.00  0.00    +0.024 C 
ATOM      3  C   LIG    1       24.258 -22.007   6.414  0.00  0.00    +0.034 C 
ATOM      4  C   LIG    1       24.601 -21.948   4.917  0.00  0.00    +0.024 C 
BRANCH   3   5
ATOM      5  S   LIG    1       25.813 -21.552   7.328  0.00  0.00    -0.170 S 
ATOM      6  H   LIG    1       25.396 -21.922   8.549  0.00  0.00    +0.102 HD
ENDBRANCH   3   5
ENDBRANCH   1   3
BRANCH   1   7
ATOM      7  N   LIG    1       22.386 -23.770   6.637  0.00  0.00    -0.317 NA
ATOM      8  H1  LIG    1       21.993 -23.975   7.565  0.00  0.00    +0.119 HD
ATOM      9  H2  LIG    1       21.900 -22.908   6.369  0.00  0.00    +0.119 HD
ENDBRANCH   1   7
BRANCH   1  10
ATOM     10  C   LIG    1       24.669 -24.573   6.217  0.00  0.00    +0.323 C 
ATOM     11  O   LIG    1       25.839 -24.831   6.433  0.00  0.00    -0.249 OA
BRANCH  10  12
ATOM     12  OXT LIG    1       23.895 -25.312   5.375  0.00  0.00    -0.479 OA
ATOM     13  HXT LIG    1       24.431 -26.115   5.151  0.00  0.00    +0.295 HD
ENDBRANCH  10  12
ENDBRANCH   1  10
TORSDOF 5
ENDMDL
MODEL 7
REMARK VINA RESULT:      -4.4      6.834      7.538
REMARK  Name = *****
REMARK                            x       y       z     vdW  Elec       q    Type
REMARK                         _______ _______ _______ _____ _____    ______ ____
ROOT
ATOM      1  CA  LIG    1       23.870 -23.524   6.942  0.00  0.00    +0.176 C 
ENDROOT
BRANCH   1   3
ATOM      2  C   LIG    1       25.695 -21.747   7.384  0.00  0.00    +0.024 C 
ATOM      3  C   LIG    1       24.349 -22.056   6.715  0.00  0.00    +0.034 C 
ATOM      4  C   LIG    1       23.299 -21.026   7.159  0.00  0.00    +0.024 C 
BRANCH   3   5
ATOM      5  S   LIG    1       24.584 -21.811   4.886  0.00  0.00    -0.170 S 
ATOM      6  H   LIG    1       23.292 -21.604   4.583  0.00  0.00    +0.102 HD
ENDBRANCH   3   5
ENDBRANCH   1   3
BRANCH   1   7
ATOM      7  N   LIG    1       22.418 -23.765   6.607  0.00  0.00    -0.317 NA
ATOM      8  H1  LIG    1       22.389 -24.667   6.115  0.00  0.00    +0.119 HD
ATOM      9  H2  LIG    1       21.917 -23.965   7.479  0.00  0.00    +0.119 HD
ENDBRANCH   1   7
BRANCH   1  10
ATOM     10  C   LIG    1       24.693 -24.581   6.170  0.00  0.00    +0.323 C 
ATOM     11  O   LIG    1       25.883 -24.806   6.296  0.00  0.00    -0.249 OA
BRANCH  10  12
ATOM     12  OXT LIG    1       23.893 -25.295   5.331  0.00  0.00    -0.479 OA
ATOM     13  HXT LIG    1       24.365 -25.315   4.460  0.00  0.00    +0.295 HD
ENDBRANCH  10  12
ENDBRANCH   1  10
TORSDOF 5
ENDMDL
MODEL 8
REMARK VINA RESULT:      -4.4      6.816      7.268
REMARK  Name = *****
REMARK                            x       y       z     vdW  Elec       q    Type
REMARK                         _______ _______ _______ _____ _____    ______ ____
ROOT
ATOM      1  CA  LIG    1       24.679 -22.371   5.357  0.00  0.00    +0.176 C 
ENDROOT
BRANCH   1   3
ATOM      2  C   LIG    1       23.897 -21.030   7.424  0.00  0.00    +0.024 C 
ATOM      3  C   LIG    1       23.475 -21.889   6.224  0.00  0.00    +0.034 C 
ATOM      4  C   LIG    1       22.599 -23.057   6.703  0.00  0.00    +0.024 C 
BRANCH   3   5
ATOM      5  S   LIG    1       22.390 -20.826   5.151  0.00  0.00    -0.170 S 
ATOM      6  H   LIG    1       23.025 -21.065   3.992  0.00  0.00    +0.102 HD
ENDBRANCH   3   5
ENDBRANCH   1   3
BRANCH   1   7
ATOM      7  N   LIG    1       25.883 -21.462   5.400  0.00  0.00    -0.317 NA
ATOM      8  H1  LIG    1       26.693 -22.075   5.560  0.00  0.00    +0.119 HD
ATOM      9  H2  LIG    1       26.050 -21.104   4.454  0.00  0.00    +0.119 HD
ENDBRANCH   1   7
BRANCH   1  10
ATOM     10  C   LIG    1       25.175 -23.794   5.703  0.00  0.00    +0.323 C 
ATOM     11  O   LIG    1       25.752 -24.132   6.720  0.00  0.00    -0.249 OA
BRANCH  10  12
ATOM     12  OXT LIG    1       24.836 -24.674   4.720  0.00  0.00    -0.479 OA
ATOM     13  HXT LIG    1       25.615 -24.705   4.106  0.00  0.00    +0.295 HD
ENDBRANCH  10  12
ENDBRANCH   1  10
TORSDOF 5
ENDMDL
MODEL 9
REMARK VINA RESULT:      -4.3      5.851      6.413
REMARK  Name = *****
REMARK                            x       y       z     vdW  Elec       q    Type
REMARK                         _______ _______ _______ _____ _____    ______ ____
ROOT
ATOM      1  CA  LIG    1       25.485 -20.630   5.892  0.00  0.00    +0.176 C 
ENDROOT
BRANCH   1   3
ATOM      2  C   LIG    1       26.325 -22.739   7.128  0.00  0.00    +0.024 C 
ATOM      3  C   LIG    1       26.338 -21.206   7.065  0.00  0.00    +0.034 C 
ATOM      4  C   LIG    1       25.921 -20.625   8.426  0.00  0.00    +0.024 C 
BRANCH   3   5
ATOM      5  S   LIG    1       28.103 -20.689   6.791  0.00  0.00    -0.170 S 
ATOM      6  H   LIG    1       27.838 -19.555   6.123  0.00  0.00    +0.102 HD
ENDBRANCH   3   5
ENDBRANCH   1   3
BRANCH   1   7
ATOM      7  N   LIG    1       26.240 -20.466   4.595  0.00  0.00    -0.317 NA
ATOM      8  H1  LIG    1       27.197 -20.792   4.783  0.00  0.00    +0.119 HD
ATOM      9  H2  LIG    1       25.888 -21.162   3.928  0.00  0.00    +0.119 HD
ENDBRANCH   1   7
BRANCH   1  10
ATOM     10  C   LIG    1       24.215 -21.452   5.574  0.00  0.00    +0.323 C 
ATOM     11  O   LIG    1       23.198 -21.501   6.242  0.00  0.00    -0.249 OA
BRANCH  10  12
ATOM     12  OXT LIG    1       24.349 -22.105   4.387  0.00  0.00    -0.479 OA
ATOM     13  HXT LIG    1       24.584 -23.040   4.619  0.00  0.00    +0.295 HD
ENDBRANCH  10  12
ENDBRANCH   1  10
TORSDOF 5
ENDMDL
