MODEL 1
REMARK VINA RESULT:      -4.4      0.000      0.000
REMARK  Name = *****
REMARK                            x       y       z     vdW  Elec       q    Type
REMARK                         _______ _______ _______ _____ _____    ______ ____
ROOT
ATOM      1  CA  CYS A  1       30.528 -20.654   8.391  0.00  0.00    +0.170 C 
ENDROOT
BRANCH   1   2
ATOM      2  N   CYS A  1       31.572 -20.141   7.445  0.00  0.00    -0.318 NA
ATOM      3  H1  CYS A  1       31.814 -19.185   7.733  0.00  0.00    +0.119 HD
ATOM      4  H2  CYS A  1       32.434 -20.661   7.651  0.00  0.00    +0.119 HD
ENDBRANCH   1   2
BRANCH   1   5
ATOM      5  C   CYS A  1       31.141 -21.806   9.196  0.00  0.00    +0.323 C 
ATOM      6  O   CYS A  1       30.767 -22.183  10.296  0.00  0.00    -0.249 OA
BRANCH   5   7
ATOM      7  OXT CYS A  1       32.200 -22.349   8.540  0.00  0.00    -0.479 OA
ATOM      8  HXT CYS A  1       32.064 -22.146   7.579  0.00  0.00    +0.295 HD
ENDBRANCH   5   7
ENDBRANCH   1   5
BRANCH   1   9
ATOM      9  CB  CYS A  1       29.245 -21.122   7.693  0.00  0.00    +0.095 C 
BRANCH   9  10
ATOM     10  SG  CYS A  1       28.766 -19.990   6.344  0.00  0.00    -0.176 S 
ATOM     11  HG  CYS A  1       29.330 -18.886   6.860  0.00  0.00    +0.102 HD
ENDBRANCH   9  10
ENDBRANCH   1   9
TORSDOF 5
ENDMDL
MODEL 2
REMARK VINA RESULT:      -4.4      3.623      3.805
REMARK  Name = *****
REMARK                            x       y       z     vdW  Elec       q    Type
REMARK                         _______ _______ _______ _____ _____    ______ ____
ROOT
ATOM      1  CA  CYS A  1       31.724 -18.540   8.456  0.00  0.00    +0.170 C 
ENDROOT
BRANCH   1   2
ATOM      2  N   CYS A  1       31.942 -19.875   9.101  0.00  0.00    -0.318 NA
ATOM      3  H1  CYS A  1       31.613 -20.597   8.449  0.00  0.00    +0.119 HD
ATOM      4  H2  CYS A  1       32.958 -20.032   9.112  0.00  0.00    +0.119 HD
ENDBRANCH   1   2
BRANCH   1   5
ATOM      5  C   CYS A  1       32.262 -17.460   9.403  0.00  0.00    +0.323 C 
ATOM      6  O   CYS A  1       32.411 -17.583  10.609  0.00  0.00    -0.249 OA
BRANCH   5   7
ATOM      7  OXT CYS A  1       32.524 -16.309   8.730  0.00  0.00    -0.479 OA
ATOM      8  HXT CYS A  1       31.952 -15.612   9.141  0.00  0.00    +0.295 HD
ENDBRANCH   5   7
ENDBRANCH   1   5
BRANCH   1   9
ATOM      9  CB  CYS A  1       30.256 -18.256   8.113  0.00  0.00    +0.095 C 
BRANCH   9  10
ATOM     10  SG  CYS A  1       29.818 -18.904   6.463  0.00  0.00    -0.176 S 
ATOM     11  HG  CYS A  1       31.068 -19.205   6.077  0.00  0.00    +0.102 HD
ENDBRANCH   9  10
ENDBRANCH   1   9
TORSDOF 5
ENDMDL
MODEL 3
REMARK VINA RESULT:      -4.3      4.665      4.968
REMARK  Name = *****
REMARK                            x       y       z     vdW  Elec       q    Type
REMARK                         _______ _______ _______ _____ _____    ______ ____
ROOT
ATOM      1  CA  CYS A  1       32.273 -17.198   9.724  0.00  0.00    +0.170 C 
ENDROOT
BRANCH   1   2
ATOM      2  N   CYS A  1       32.659 -15.993   8.920  0.00  0.00    -0.318 NA
ATOM      3  H1  CYS A  1       31.816 -15.650   8.444  0.00  0.00    +0.119 HD
ATOM      4  H2  CYS A  1       32.856 -15.242   9.594  0.00  0.00    +0.119 HD
ENDBRANCH   1   2
BRANCH   1   5
ATOM      5  C   CYS A  1       31.802 -18.287   8.752  0.00  0.00    +0.323 C 
ATOM      6  O   CYS A  1       31.225 -18.093   7.692  0.00  0.00    -0.249 OA
BRANCH   5   7
ATOM      7  OXT CYS A  1       32.074 -19.526   9.240  0.00  0.00    -0.479 OA
ATOM      8  HXT CYS A  1       31.198 -19.967   9.380  0.00  0.00    +0.295 HD
ENDBRANCH   5   7
ENDBRANCH   1   5
BRANCH   1   9
ATOM      9  CB  CYS A  1       31.186 -16.916  10.768  0.00  0.00    +0.095 C 
BRANCH   9  10
ATOM     10  SG  CYS A  1       31.900 -16.281  12.323  0.00  0.00    -0.176 S 
ATOM     11  HG  CYS A  1       30.932 -16.735  13.136  0.00  0.00    +0.102 HD
ENDBRANCH   9  10
ENDBRANCH   1   9
TORSDOF 5
ENDMDL
MODEL 4
REMARK VINA RESULT:      -4.2      3.860      4.265
REMARK  Name = *****
REMARK                            x       y       z     vdW  Elec       q    Type
REMARK                         _______ _______ _______ _____ _____    ______ ____
ROOT
ATOM      1  CA  CYS A  1       31.262 -17.337   9.029  0.00  0.00    +0.170 C 
ENDROOT
BRANCH   1   2
ATOM      2  N   CYS A  1       32.379 -16.340   8.948  0.00  0.00    -0.318 NA
ATOM      3  H1  CYS A  1       32.313 -15.869   8.038  0.00  0.00    +0.119 HD
ATOM      4  H2  CYS A  1       32.146 -15.587   9.607  0.00  0.00    +0.119 HD
ENDBRANCH   1   2
BRANCH   1   5
ATOM      5  C   CYS A  1       30.700 -17.307  10.456  0.00  0.00    +0.323 C 
ATOM      6  O   CYS A  1       30.323 -16.309  11.051  0.00  0.00    -0.249 OA
BRANCH   5   7
ATOM      7  OXT CYS A  1       30.707 -18.549  11.008  0.00  0.00    -0.479 OA
ATOM      8  HXT CYS A  1       30.259 -19.145  10.354  0.00  0.00    +0.295 HD
ENDBRANCH   5   7
ENDBRANCH   1   5
BRANCH   1   9
ATOM      9  CB  CYS A  1       31.685 -18.764   8.659  0.00  0.00    +0.095 C 
BRANCH   9  10
ATOM     10  SG  CYS A  1       30.886 -19.320   7.116  0.00  0.00    -0.176 S 
ATOM     11  HG  CYS A  1       31.632 -20.423   6.943  0.00  0.00    +0.102 HD
ENDBRANCH   9  10
ENDBRANCH   1   9
TORSDOF 5
ENDMDL
MODEL 5
REMARK VINA RESULT:      -4.2      1.714      1.918
REMARK  Name = *****
REMARK                            x       y       z     vdW  Elec       q    Type
REMARK                         _______ _______ _______ _____ _____    ______ ____
ROOT
ATOM      1  CA  CYS A  1       31.031 -19.558   8.647  0.00  0.00    +0.170 C 
ENDROOT
BRANCH   1   2
ATOM      2  N   CYS A  1       31.942 -18.796   9.563  0.00  0.00    -0.318 NA
ATOM      3  H1  CYS A  1       31.835 -19.185  10.507  0.00  0.00    +0.119 HD
ATOM      4  H2  CYS A  1       32.901 -19.070   9.316  0.00  0.00    +0.119 HD
ENDBRANCH   1   2
BRANCH   1   5
ATOM      5  C   CYS A  1       31.249 -21.055   8.898  0.00  0.00    +0.323 C 
ATOM      6  O   CYS A  1       32.175 -21.543   9.526  0.00  0.00    -0.249 OA
BRANCH   5   7
ATOM      7  OXT CYS A  1       30.284 -21.795   8.290  0.00  0.00    -0.479 OA
ATOM      8  HXT CYS A  1       29.431 -21.559   8.738  0.00  0.00    +0.295 HD
ENDBRANCH   5   7
ENDBRANCH   1   5
BRANCH   1   9
ATOM      9  CB  CYS A  1       31.244 -19.235   7.163  0.00  0.00    +0.095 C 
BRANCH   9  10
ATOM     10  SG  CYS A  1       29.674 -18.792   6.343  0.00  0.00    -0.176 S 
ATOM     11  HG  CYS A  1       28.860 -19.265   7.301  0.00  0.00    +0.102 HD
ENDBRANCH   9  10
ENDBRANCH   1   9
TORSDOF 5
ENDMDL
MODEL 6
REMARK VINA RESULT:      -4.2      2.245      2.362
REMARK  Name = *****
REMARK                            x       y       z     vdW  Elec       q    Type
REMARK                         _______ _______ _______ _____ _____    ______ ____
ROOT
ATOM      1  CA  CYS A  1       31.301 -19.541   8.379  0.00  0.00    +0.170 C 
ENDROOT
BRANCH   1   2
ATOM      2  N   CYS A  1       31.567 -19.651   6.908  0.00  0.00    -0.318 NA
ATOM      3  H1  CYS A  1       31.730 -18.704   6.546  0.00  0.00    +0.119 HD
ATOM      4  H2  CYS A  1       32.492 -20.089   6.811  0.00  0.00    +0.119 HD
ENDBRANCH   1   2
BRANCH   1   5
ATOM      5  C   CYS A  1       31.067 -20.954   8.927  0.00  0.00    +0.323 C 
ATOM      6  O   CYS A  1       30.006 -21.560   8.904  0.00  0.00    -0.249 OA
BRANCH   5   7
ATOM      7  OXT CYS A  1       32.200 -21.451   9.490  0.00  0.00    -0.479 OA
ATOM      8  HXT CYS A  1       32.645 -20.686   9.937  0.00  0.00    +0.295 HD
ENDBRANCH   5   7
ENDBRANCH   1   5
BRANCH   1   9
ATOM      9  CB  CYS A  1       30.109 -18.639   8.721  0.00  0.00    +0.095 C 
BRANCH   9  10
ATOM     10  SG  CYS A  1       30.455 -17.596  10.179  0.00  0.00    -0.176 S 
ATOM     11  HG  CYS A  1       31.784 -17.516  10.000  0.00  0.00    +0.102 HD
ENDBRANCH   9  10
ENDBRANCH   1   9
TORSDOF 5
ENDMDL
MODEL 7
REMARK VINA RESULT:      -4.1      4.197      4.573
REMARK  Name = *****
REMARK                            x       y       z     vdW  Elec       q    Type
REMARK                         _______ _______ _______ _____ _____    ______ ____
ROOT
ATOM      1  CA  CYS A  1       31.027 -17.756   9.489  0.00  0.00    +0.170 C 
ENDROOT
BRANCH   1   2
ATOM      2  N   CYS A  1       30.745 -18.346  10.838  0.00  0.00    -0.318 NA
ATOM      3  H1  CYS A  1       31.594 -18.832  11.152  0.00  0.00    +0.119 HD
ATOM      4  H2  CYS A  1       30.683 -17.557  11.495  0.00  0.00    +0.119 HD
ENDBRANCH   1   2
BRANCH   1   5
ATOM      5  C   CYS A  1       31.699 -18.834   8.630  0.00  0.00    +0.323 C 
ATOM      6  O   CYS A  1       31.875 -18.773   7.423  0.00  0.00    -0.249 OA
BRANCH   5   7
ATOM      7  OXT CYS A  1       32.049 -19.909   9.384  0.00  0.00    -0.479 OA
ATOM      8  HXT CYS A  1       31.694 -20.705   8.912  0.00  0.00    +0.295 HD
ENDBRANCH   5   7
ENDBRANCH   1   5
BRANCH   1   9
ATOM      9  CB  CYS A  1       31.905 -16.499   9.540  0.00  0.00    +0.095 C 
BRANCH   9  10
ATOM     10  SG  CYS A  1       32.908 -16.445  11.064  0.00  0.00    -0.176 S 
ATOM     11  HG  CYS A  1       33.289 -17.733  11.044  0.00  0.00    +0.102 HD
ENDBRANCH   9  10
ENDBRANCH   1   9
TORSDOF 5
ENDMDL
MODEL 8
REMARK VINA RESULT:      -4.1      3.601      3.963
REMARK  Name = *****
REMARK                            x       y       z     vdW  Elec       q    Type
REMARK                         _______ _______ _______ _____ _____    ______ ____
ROOT
ATOM      1  CA  CYS A  1       30.734 -18.864   8.858  0.00  0.00    +0.170 C 
ENDROOT
BRANCH   1   2
ATOM      2  N   CYS A  1       31.977 -19.522   9.378  0.00  0.00    -0.318 NA
ATOM      3  H1  CYS A  1       31.708 -20.428   9.781  0.00  0.00    +0.119 HD
ATOM      4  H2  CYS A  1       32.528 -19.798   8.555  0.00  0.00    +0.119 HD
ENDBRANCH   1   2
BRANCH   1   5
ATOM      5  C   CYS A  1       30.772 -18.921   7.326  0.00  0.00    +0.323 C 
ATOM      6  O   CYS A  1       30.069 -18.265   6.572  0.00  0.00    -0.249 OA
BRANCH   5   7
ATOM      7  OXT CYS A  1       31.676 -19.840   6.895  0.00  0.00    -0.479 OA
ATOM      8  HXT CYS A  1       31.181 -20.454   6.294  0.00  0.00    +0.295 HD
ENDBRANCH   5   7
ENDBRANCH   1   5
BRANCH   1   9
ATOM      9  CB  CYS A  1       30.565 -17.414   9.327  0.00  0.00    +0.095 C 
BRANCH   9  10
ATOM     10  SG  CYS A  1       32.174 -16.561   9.460  0.00  0.00    -0.176 S 
ATOM     11  HG  CYS A  1       32.869 -17.424   8.701  0.00  0.00    +0.102 HD
ENDBRANCH   9  10
ENDBRANCH   1   9
TORSDOF 5
ENDMDL
MODEL 9
REMARK VINA RESULT:      -4.0      2.047      2.157
REMARK  Name = *****
REMARK                            x       y       z     vdW  Elec       q    Type
REMARK                         _______ _______ _______ _____ _____    ______ ____
ROOT
ATOM      1  CA  CYS A  1       30.698 -18.975   7.863  0.00  0.00    +0.170 C 
ENDROOT
BRANCH   1   2
ATOM      2  N   CYS A  1       31.580 -19.706   6.897  0.00  0.00    -0.318 NA
ATOM      3  H1  CYS A  1       31.326 -19.405   5.948  0.00  0.00    +0.119 HD
ATOM      4  H2  CYS A  1       32.524 -19.316   7.009  0.00  0.00    +0.119 HD
ENDBRANCH   1   2
BRANCH   1   5
ATOM      5  C   CYS A  1       31.178 -19.298   9.283  0.00  0.00    +0.323 C 
ATOM      6  O   CYS A  1       30.763 -18.780  10.309  0.00  0.00    -0.249 OA
BRANCH   5   7
ATOM      7  OXT CYS A  1       32.173 -20.224   9.262  0.00  0.00    -0.479 OA
ATOM      8  HXT CYS A  1       31.837 -20.978   8.713  0.00  0.00    +0.295 HD
ENDBRANCH   5   7
ENDBRANCH   1   5
BRANCH   1   9
ATOM      9  CB  CYS A  1       29.210 -19.320   7.718  0.00  0.00    +0.095 C 
BRANCH   9  10
ATOM     10  SG  CYS A  1       28.954 -21.120   7.557  0.00  0.00    -0.176 S 
ATOM     11  HG  CYS A  1       27.704 -21.056   7.070  0.00  0.00    +0.102 HD
ENDBRANCH   9  10
ENDBRANCH   1   9
TORSDOF 5
ENDMDL
