MODEL 1
REMARK VINA RESULT:      -4.5      0.000      0.000
REMARK  Name = *****
REMARK                            x       y       z     vdW  Elec       q    Type
REMARK                         _______ _______ _______ _____ _____    ______ ____
ROOT
ATOM      1  C   LIG    1       22.482 -18.994   4.226  0.00  0.00    +0.128 A 
ATOM      2  N   LIG    1       23.071 -17.793   4.414  0.00  0.00    -0.199 NA
ATOM      3  C   LIG    1       22.329 -16.678   4.235  0.00  0.00    +0.221 A 
ATOM      4  N   LIG    1       21.039 -16.699   3.869  0.00  0.00    -0.223 NA
ATOM      5  C   LIG    1       20.477 -17.903   3.695  0.00  0.00    +0.118 A 
ATOM      6  C   LIG    1       21.148 -19.084   3.891  0.00  0.00    +0.063 A 
ENDROOT
BRANCH   1   7
ATOM      7  N   LIG    1       23.261 -20.155   4.438  0.00  0.00    -0.299 N 
ATOM      8  H   LIG    1       22.626 -20.920   4.665  0.00  0.00    +0.154 HD
BRANCH   7  11
ATOM      9  C   LIG    1       23.363 -21.465   7.062  0.00  0.00    +0.045 C 
ATOM     10  C   LIG    1       24.587 -20.971   6.329  0.00  0.00    -0.029 A 
ATOM     11  C   LIG    1       24.536 -20.350   5.045  0.00  0.00    +0.038 A 
ATOM     12  C   LIG    1       25.763 -19.910   4.480  0.00  0.00    -0.029 A 
ATOM     13  C   LIG    1       25.886 -19.130   3.197  0.00  0.00    +0.045 C 
ATOM     14  C   LIG    1       26.983 -20.162   5.153  0.00  0.00    +0.013 A 
ATOM     15  C   LIG    1       27.023 -20.804   6.386  0.00  0.00    -0.024 A 
ATOM     16  C   LIG    1       25.826 -21.198   6.969  0.00  0.00    +0.013 A 
BRANCH  15  17
ATOM     17  C   LIG    1       28.296 -21.036   7.062  0.00  0.00    +0.019 C 
ATOM     18  C   LIG    1       29.379 -20.243   6.977  0.00  0.00    +0.089 C 
BRANCH  18  19
ATOM     19  C   LIG    1       29.442 -19.045   6.241  0.00  0.00    +0.091 C 
ATOM     20  N   LIG    1       29.472 -18.057   5.593  0.00  0.00    -0.192 NA
ENDBRANCH  18  19
ENDBRANCH  15  17
ENDBRANCH   7  11
ENDBRANCH   1   7
BRANCH   3  21
ATOM     21  N   LIG    1       22.838 -15.388   4.375  0.00  0.00    -0.284 N 
ATOM     22  H   LIG    1       22.082 -14.765   4.628  0.00  0.00    +0.155 HD
BRANCH  21  23
ATOM     23  C   LIG    1       24.104 -14.825   4.208  0.00  0.00    +0.034 A 
ATOM     24  C   LIG    1       24.475 -13.600   4.763  0.00  0.00    +0.024 A 
ATOM     25  C   LIG    1       25.783 -13.119   4.652  0.00  0.00    +0.021 A 
ATOM     26  C   LIG    1       26.756 -13.873   3.993  0.00  0.00    +0.052 A 
ATOM     27  C   LIG    1       26.409 -15.105   3.437  0.00  0.00    +0.021 A 
ATOM     28  C   LIG    1       25.094 -15.572   3.545  0.00  0.00    +0.024 A 
BRANCH  26  29
ATOM     29  C   LIG    1       28.102 -13.383   3.892  0.00  0.00    +0.099 C 
ATOM     30  N   LIG    1       29.187 -12.993   3.806  0.00  0.00    -0.191 NA
ENDBRANCH  26  29
ENDBRANCH  21  23
ENDBRANCH   3  21
TORSDOF 7
ENDMDL
MODEL 2
REMARK VINA RESULT:      -2.8      2.258      7.823
REMARK  Name = *****
REMARK                            x       y       z     vdW  Elec       q    Type
REMARK                         _______ _______ _______ _____ _____    ______ ____
ROOT
ATOM      1  C   LIG    1       28.502 -17.690   4.973  0.00  0.00    +0.128 A 
ATOM      2  N   LIG    1       27.562 -18.654   4.870  0.00  0.00    -0.199 NA
ATOM      3  C   LIG    1       27.614 -19.696   5.728  0.00  0.00    +0.221 A 
ATOM      4  N   LIG    1       28.557 -19.831   6.671  0.00  0.00    -0.223 NA
ATOM      5  C   LIG    1       29.474 -18.858   6.757  0.00  0.00    +0.118 A 
ATOM      6  C   LIG    1       29.473 -17.748   5.950  0.00  0.00    +0.063 A 
ENDROOT
BRANCH   1   7
ATOM      7  N   LIG    1       28.426 -16.591   4.086  0.00  0.00    -0.299 N 
ATOM      8  H   LIG    1       29.305 -16.078   4.147  0.00  0.00    +0.154 HD
BRANCH   7  11
ATOM      9  C   LIG    1       28.883 -13.695   4.200  0.00  0.00    +0.045 C 
ATOM     10  C   LIG    1       27.564 -14.315   3.803  0.00  0.00    -0.029 A 
ATOM     11  C   LIG    1       27.350 -15.725   3.731  0.00  0.00    +0.038 A 
ATOM     12  C   LIG    1       26.053 -16.173   3.366  0.00  0.00    -0.029 A 
ATOM     13  C   LIG    1       25.614 -17.614   3.358  0.00  0.00    +0.045 C 
ATOM     14  C   LIG    1       25.052 -15.235   3.017  0.00  0.00    +0.013 A 
ATOM     15  C   LIG    1       25.285 -13.864   3.052  0.00  0.00    -0.024 A 
ATOM     16  C   LIG    1       26.537 -13.413   3.451  0.00  0.00    +0.013 A 
BRANCH  15  17
ATOM     17  C   LIG    1       24.228 -12.922   2.701  0.00  0.00    +0.019 C 
ATOM     18  C   LIG    1       23.696 -12.002   3.526  0.00  0.00    +0.089 C 
BRANCH  18  19
ATOM     19  C   LIG    1       24.103 -11.787   4.856  0.00  0.00    +0.091 C 
ATOM     20  N   LIG    1       24.472 -11.578   5.959  0.00  0.00    -0.192 NA
ENDBRANCH  18  19
ENDBRANCH  15  17
ENDBRANCH   7  11
ENDBRANCH   1   7
BRANCH   3  21
ATOM     21  N   LIG    1       26.713 -20.760   5.697  0.00  0.00    -0.284 N 
ATOM     22  H   LIG    1       27.216 -21.618   5.880  0.00  0.00    +0.155 HD
BRANCH  21  23
ATOM     23  C   LIG    1       25.345 -20.860   5.441  0.00  0.00    +0.034 A 
ATOM     24  C   LIG    1       24.376 -20.815   6.444  0.00  0.00    +0.024 A 
ATOM     25  C   LIG    1       23.011 -20.821   6.135  0.00  0.00    +0.021 A 
ATOM     26  C   LIG    1       22.592 -20.854   4.804  0.00  0.00    +0.052 A 
ATOM     27  C   LIG    1       23.544 -20.891   3.785  0.00  0.00    +0.021 A 
ATOM     28  C   LIG    1       24.907 -20.894   4.105  0.00  0.00    +0.024 A 
BRANCH  26  29
ATOM     29  C   LIG    1       21.191 -20.847   4.489  0.00  0.00    +0.099 C 
ATOM     30  N   LIG    1       20.063 -20.835   4.234  0.00  0.00    -0.191 NA
ENDBRANCH  26  29
ENDBRANCH  21  23
ENDBRANCH   3  21
TORSDOF 7
ENDMDL
MODEL 3
REMARK VINA RESULT:      -1.9      1.546      5.655
REMARK  Name = *****
REMARK                            x       y       z     vdW  Elec       q    Type
REMARK                         _______ _______ _______ _____ _____    ______ ____
ROOT
ATOM      1  C   LIG    1       27.470 -19.900   5.411  0.00  0.00    +0.128 A 
ATOM      2  N   LIG    1       27.476 -18.694   4.804  0.00  0.00    -0.199 NA
ATOM      3  C   LIG    1       28.484 -17.839   5.084  0.00  0.00    +0.221 A 
ATOM      4  N   LIG    1       29.475 -18.120   5.943  0.00  0.00    -0.223 NA
ATOM      5  C   LIG    1       29.449 -19.325   6.527  0.00  0.00    +0.118 A 
ATOM      6  C   LIG    1       28.483 -20.266   6.271  0.00  0.00    +0.063 A 
ENDROOT
BRANCH   1   7
ATOM      7  N   LIG    1       26.424 -20.797   5.093  0.00  0.00    -0.299 N 
ATOM      8  H   LIG    1       26.813 -21.537   4.509  0.00  0.00    +0.154 HD
BRANCH   7  11
ATOM      9  C   LIG    1       25.718 -19.483   2.567  0.00  0.00    +0.045 C 
ATOM     10  C   LIG    1       24.698 -19.932   3.585  0.00  0.00    -0.029 A 
ATOM     11  C   LIG    1       25.043 -20.588   4.805  0.00  0.00    +0.038 A 
ATOM     12  C   LIG    1       23.983 -20.937   5.685  0.00  0.00    -0.029 A 
ATOM     13  C   LIG    1       24.169 -21.520   7.062  0.00  0.00    +0.045 C 
ATOM     14  C   LIG    1       22.641 -20.701   5.304  0.00  0.00    +0.013 A 
ATOM     15  C   LIG    1       22.315 -20.097   4.094  0.00  0.00    -0.024 A 
ATOM     16  C   LIG    1       23.345 -19.711   3.246  0.00  0.00    +0.013 A 
BRANCH  15  17
ATOM     17  C   LIG    1       20.921 -19.854   3.737  0.00  0.00    +0.019 C 
ATOM     18  C   LIG    1       20.302 -18.661   3.777  0.00  0.00    +0.089 C 
BRANCH  18  19
ATOM     19  C   LIG    1       20.918 -17.449   4.144  0.00  0.00    +0.091 C 
ATOM     20  N   LIG    1       21.447 -16.450   4.488  0.00  0.00    -0.192 NA
ENDBRANCH  18  19
ENDBRANCH  15  17
ENDBRANCH   7  11
ENDBRANCH   1   7
BRANCH   3  21
ATOM     21  N   LIG    1       28.578 -16.559   4.538  0.00  0.00    -0.284 N 
ATOM     22  H   LIG    1       29.549 -16.276   4.538  0.00  0.00    +0.155 HD
BRANCH  21  23
ATOM     23  C   LIG    1       27.642 -15.644   4.055  0.00  0.00    +0.034 A 
ATOM     24  C   LIG    1       26.349 -16.004   3.674  0.00  0.00    +0.024 A 
ATOM     25  C   LIG    1       25.412 -15.040   3.287  0.00  0.00    +0.021 A 
ATOM     26  C   LIG    1       25.752 -13.686   3.295  0.00  0.00    +0.052 A 
ATOM     27  C   LIG    1       27.037 -13.303   3.681  0.00  0.00    +0.021 A 
ATOM     28  C   LIG    1       27.970 -14.277   4.056  0.00  0.00    +0.024 A 
BRANCH  26  29
ATOM     29  C   LIG    1       24.784 -12.697   2.911  0.00  0.00    +0.099 C 
ATOM     30  N   LIG    1       24.007 -11.900   2.597  0.00  0.00    -0.191 NA
ENDBRANCH  26  29
ENDBRANCH  21  23
ENDBRANCH   3  21
TORSDOF 7
ENDMDL
