MODEL 1
REMARK VINA RESULT:      54.8      0.000      0.000
REMARK  Name = *****
REMARK                            x       y       z     vdW  Elec       q    Type
REMARK                         _______ _______ _______ _____ _____    ______ ____
ROOT
ATOM      1  C   LIG    1       22.419 -19.712   5.255  0.00  0.00    +0.133 C 
ATOM      2  C   LIG    1       22.328 -18.332   4.594  0.00  0.00    +0.012 C 
ATOM      3  C   LIG    1       20.930 -17.684   4.670  0.00  0.00    +0.011 C 
ATOM      4  C   LIG    1       20.790 -16.656   5.831  0.00  0.00    +0.089 C 
ATOM      5  N   LIG    1       21.889 -15.690   5.938  0.00  0.00    -0.293 NA
ATOM      6  C   LIG    1       23.003 -15.945   5.004  0.00  0.00    +0.104 C 
ATOM      7  C   LIG    1       24.098 -14.972   5.266  0.00  0.00    +0.038 C 
ATOM      8  C   LIG    1       23.932 -13.739   5.859  0.00  0.00    -0.016 C 
ATOM      9  C   LIG    1       25.183 -13.078   5.822  0.00  0.00    +0.003 C 
ATOM     10  C   LIG    1       26.089 -13.937   5.193  0.00  0.00    +0.051 C 
ATOM     11  C   LIG    1       27.429 -13.589   4.969  0.00  0.00    +0.072 C 
ATOM     12  C   LIG    1       27.846 -12.317   5.381  0.00  0.00    +0.122 C 
ATOM     13  C   LIG    1       26.963 -11.461   6.041  0.00  0.00    +0.046 C 
ATOM     14  C   LIG    1       25.633 -11.824   6.259  0.00  0.00    +0.014 C 
ATOM     15  C   LIG    1       22.609 -13.312   6.400  0.00  0.00    +0.053 C 
ATOM     16  N   LIG    1       25.401 -15.086   4.869  0.00  0.00    -0.356 NA
ATOM     17  H   LIG    1       25.807 -15.877   4.390  0.00  0.00    +0.166 HD
ATOM     18  C   LIG    1       21.476 -14.271   5.933  0.00  0.00    +0.090 C 
ATOM     19  C   LIG    1       19.773 -18.700   4.677  0.00  0.00    +0.052 C 
ATOM     20  C   LIG    1       20.104 -20.117   4.161  0.00  0.00    +0.206 C 
ATOM     21  C   LIG    1       23.418 -17.400   5.172  0.00  0.00    +0.030 C 
ATOM     22  C   LIG    1       21.334 -20.730   4.853  0.00  0.00    +0.172 C 
ENDROOT
BRANCH   1  23
ATOM     23  C   LIG    1       23.765 -20.341   4.908  0.00  0.00    +0.313 C 
ATOM     24  O   LIG    1       23.931 -21.209   4.062  0.00  0.00    -0.250 OA
BRANCH  23  26
ATOM     25  C   LIG    1       26.028 -20.437   5.542  0.00  0.00    +0.280 C 
ATOM     26  O   LIG    1       24.751 -19.813   5.686  0.00  0.00    -0.468 OA
ENDBRANCH  23  26
ENDBRANCH   1  23
BRANCH  12  27
ATOM     27  O   LIG    1       29.158 -12.005   5.122  0.00  0.00    -0.495 OA
ATOM     28  C   LIG    1       29.394 -11.497   3.810  0.00  0.00    +0.277 C 
ENDBRANCH  12  27
BRANCH  22  29
ATOM     29  O   LIG    1       20.833 -21.388   6.042  0.00  0.00    -0.375 OA
ATOM     30  C   LIG    1       21.818 -21.569   7.052  0.00  0.00    +0.194 C 
ENDBRANCH  22  29
BRANCH  20  31
ATOM     31  O   LIG    1       20.213 -20.102   2.722  0.00  0.00    -0.455 OA
BRANCH  31  32
ATOM     32  C   LIG    1       20.667 -18.924   2.186  0.00  0.00    +0.340 C 
ATOM     33  O   LIG    1       20.001 -17.979   1.831  0.00  0.00    -0.245 OA
BRANCH  32  34
ATOM     34  C   LIG    1       22.159 -18.903   2.301  0.00  0.00    +0.066 A 
ATOM     35  C   LIG    1       22.901 -20.062   2.038  0.00  0.00    +0.064 A 
ATOM     36  C   LIG    1       24.307 -20.019   2.037  0.00  0.00    +0.166 A 
ATOM     37  C   LIG    1       24.968 -18.800   2.302  0.00  0.00    +0.203 A 
ATOM     38  C   LIG    1       24.201 -17.644   2.592  0.00  0.00    +0.166 A 
ATOM     39  C   LIG    1       22.808 -17.720   2.608  0.00  0.00    +0.064 A 
BRANCH  36  40
ATOM     40  O   LIG    1       25.069 -21.148   1.861  0.00  0.00    -0.491 OA
ATOM     41  C   LIG    1       26.482 -20.982   1.843  0.00  0.00    +0.277 C 
ENDBRANCH  36  40
BRANCH  37  42
ATOM     42  O   LIG    1       26.333 -18.622   2.354  0.00  0.00    -0.488 OA
ATOM     43  C   LIG    1       26.882 -18.060   3.540  0.00  0.00    +0.277 C 
ENDBRANCH  37  42
BRANCH  38  44
ATOM     44  O   LIG    1       24.879 -16.476   2.844  0.00  0.00    -0.491 OA
ATOM     45  C   LIG    1       26.286 -16.574   3.061  0.00  0.00    +0.277 C 
ENDBRANCH  38  44
ENDBRANCH  32  34
ENDBRANCH  31  32
ENDBRANCH  20  31
TORSDOF 10
ENDMDL
MODEL 2
REMARK VINA RESULT:      56.3      2.057      7.853
REMARK  Name = *****
REMARK                            x       y       z     vdW  Elec       q    Type
REMARK                         _______ _______ _______ _____ _____    ______ ____
ROOT
ATOM      1  C   LIG    1       26.775 -13.381   5.448  0.00  0.00    +0.133 C 
ATOM      2  C   LIG    1       26.746 -14.659   4.604  0.00  0.00    +0.012 C 
ATOM      3  C   LIG    1       28.122 -15.341   4.440  0.00  0.00    +0.011 C 
ATOM      4  C   LIG    1       28.347 -16.520   5.432  0.00  0.00    +0.089 C 
ATOM      5  N   LIG    1       27.232 -17.468   5.530  0.00  0.00    -0.293 NA
ATOM      6  C   LIG    1       26.035 -17.066   4.765  0.00  0.00    +0.104 C 
ATOM      7  C   LIG    1       24.941 -18.043   5.015  0.00  0.00    +0.038 C 
ATOM      8  C   LIG    1       25.124 -19.347   5.417  0.00  0.00    -0.016 C 
ATOM      9  C   LIG    1       23.854 -19.972   5.430  0.00  0.00    +0.003 C 
ATOM     10  C   LIG    1       22.918 -19.017   5.024  0.00  0.00    +0.051 C 
ATOM     11  C   LIG    1       21.550 -19.303   4.904  0.00  0.00    +0.072 C 
ATOM     12  C   LIG    1       21.134 -20.610   5.187  0.00  0.00    +0.122 C 
ATOM     13  C   LIG    1       22.051 -21.566   5.627  0.00  0.00    +0.046 C 
ATOM     14  C   LIG    1       23.409 -21.264   5.744  0.00  0.00    +0.014 C 
ATOM     15  C   LIG    1       26.481 -19.872   5.748  0.00  0.00    +0.053 C 
ATOM     16  N   LIG    1       23.608 -17.848   4.782  0.00  0.00    -0.356 NA
ATOM     17  H   LIG    1       23.182 -16.991   4.460  0.00  0.00    +0.166 HD
ATOM     18  C   LIG    1       27.592 -18.882   5.291  0.00  0.00    +0.090 C 
ATOM     19  C   LIG    1       29.307 -14.359   4.455  0.00  0.00    +0.052 C 
ATOM     20  C   LIG    1       28.974 -12.879   4.171  0.00  0.00    +0.206 C 
ATOM     21  C   LIG    1       25.692 -15.639   5.170  0.00  0.00    +0.030 C 
ATOM     22  C   LIG    1       27.847 -12.340   5.069  0.00  0.00    +0.172 C 
ENDROOT
BRANCH   1  23
ATOM     23  C   LIG    1       25.423 -12.683   5.339  0.00  0.00    +0.313 C 
ATOM     24  O   LIG    1       24.747 -12.321   6.292  0.00  0.00    -0.250 OA
BRANCH  23  26
ATOM     25  C   LIG    1       24.138 -11.481   3.778  0.00  0.00    +0.280 C 
ATOM     26  O   LIG    1       25.069 -12.535   4.032  0.00  0.00    -0.468 OA
ENDBRANCH  23  26
ENDBRANCH   1  23
BRANCH  12  27
ATOM     27  O   LIG    1       19.792 -20.857   5.035  0.00  0.00    -0.495 OA
ATOM     28  C   LIG    1       19.369 -20.997   3.679  0.00  0.00    +0.277 C 
ENDBRANCH  12  27
BRANCH  22  29
ATOM     29  O   LIG    1       28.494 -11.860   6.273  0.00  0.00    -0.375 OA
ATOM     30  C   LIG    1       29.408 -12.791   6.840  0.00  0.00    +0.194 C 
ENDBRANCH  22  29
BRANCH  20  31
ATOM     31  O   LIG    1       28.713 -12.696   2.763  0.00  0.00    -0.455 OA
BRANCH  31  32
ATOM     32  C   LIG    1       27.398 -12.476   2.440  0.00  0.00    +0.340 C 
ATOM     33  O   LIG    1       26.908 -11.448   2.033  0.00  0.00    -0.245 OA
BRANCH  32  34
ATOM     34  C   LIG    1       26.683 -13.790   2.473  0.00  0.00    +0.066 A 
ATOM     35  C   LIG    1       27.406 -14.986   2.364  0.00  0.00    +0.064 A 
ATOM     36  C   LIG    1       26.753 -16.225   2.505  0.00  0.00    +0.166 A 
ATOM     37  C   LIG    1       25.364 -16.257   2.760  0.00  0.00    +0.203 A 
ATOM     38  C   LIG    1       24.646 -15.038   2.841  0.00  0.00    +0.166 A 
ATOM     39  C   LIG    1       25.314 -13.824   2.675  0.00  0.00    +0.064 A 
BRANCH  36  40
ATOM     40  O   LIG    1       27.409 -17.417   2.327  0.00  0.00    -0.491 OA
ATOM     41  C   LIG    1       26.629 -18.605   2.393  0.00  0.00    +0.277 C 
ENDBRANCH  36  40
BRANCH  37  42
ATOM     42  O   LIG    1       24.600 -17.394   2.897  0.00  0.00    -0.488 OA
ATOM     43  C   LIG    1       24.622 -18.339   1.833  0.00  0.00    +0.277 C 
ENDBRANCH  37  42
BRANCH  38  44
ATOM     44  O   LIG    1       23.297 -15.109   3.091  0.00  0.00    -0.491 OA
ATOM     45  C   LIG    1       22.838 -14.593   4.339  0.00  0.00    +0.277 C 
ENDBRANCH  38  44
ENDBRANCH  32  34
ENDBRANCH  31  32
ENDBRANCH  20  31
TORSDOF 10
ENDMDL
