MODEL 1
REMARK VINA RESULT:      -5.9      0.000      0.000
REMARK  Name = *****
REMARK                            x       y       z     vdW  Elec       q    Type
REMARK                         _______ _______ _______ _____ _____    ______ ____
ROOT
ATOM      1  C   LIG    1       26.822 -28.913  11.821  0.00  0.00    +0.250 C 
ATOM      2  N   LIG    1       26.834 -30.078  11.089  0.00  0.00    -0.298 N 
ATOM      3  H   LIG    1       26.519 -30.924  11.558  0.00  0.00    +0.150 HD
ATOM      4  O   LIG    1       27.027 -27.805  11.346  0.00  0.00    -0.270 OA
ENDROOT
BRANCH   2   5
ATOM      5  CA  LIG    1       27.038 -30.155   9.621  0.00  0.00    +0.190 C 
ATOM      6  C   LIG    1       26.436 -31.442   8.967  0.00  0.00    +0.165 C 
ATOM      7  S   LIG    1       25.186 -32.338  10.002  0.00  0.00    -0.127 S 
ATOM      8  C   LIG    1       23.724 -31.559   9.165  0.00  0.00    +0.042 C 
ATOM      9  CA  LIG    1       24.260 -30.933   7.854  0.00  0.00    +0.201 C 
ATOM     10  C   LIG    1       23.157 -30.480  10.106  0.00  0.00    +0.025 C 
ATOM     11  C   LIG    1       22.644 -32.631   8.969  0.00  0.00    +0.025 C 
ATOM     12  N   LIG    1       25.658 -30.579   8.073  0.00  0.00    -0.271 N 
ATOM     13  C   LIG    1       25.991 -29.421   8.732  0.00  0.00    +0.240 C 
ATOM     14  O   LIG    1       25.447 -28.350   8.692  0.00  0.00    -0.273 OA
BRANCH   9  15
ATOM     15  C   LIG    1       24.196 -31.892   6.658  0.00  0.00    +0.327 C 
ATOM     16  O   LIG    1       24.847 -32.922   6.553  0.00  0.00    -0.249 OA
BRANCH  15  17
ATOM     17  OXT LIG    1       23.297 -31.524   5.711  0.00  0.00    -0.479 OA
ATOM     18  HXT LIG    1       23.629 -31.501   4.792  0.00  0.00    +0.295 HD
ENDBRANCH  15  17
ENDBRANCH   9  15
ENDBRANCH   2   5
BRANCH   1  21
ATOM     19  C   LIG    1       28.888 -29.941  14.129  0.00  0.00    +0.090 C 
ATOM     20  C   LIG    1       27.444 -29.632  14.147  0.00  0.00    +0.147 A 
ATOM     21  C   LIG    1       26.536 -29.148  13.223  0.00  0.00    +0.106 A 
ATOM     22  C   LIG    1       25.353 -28.911  13.995  0.00  0.00    +0.130 A 
ATOM     23  N   LIG    1       25.514 -29.425  15.229  0.00  0.00    -0.077 NA
ATOM     24  O   LIG    1       26.819 -29.829  15.330  0.00  0.00    -0.359 OA
BRANCH  22  25
ATOM     25  C   LIG    1       24.081 -28.284  13.630  0.00  0.00    +0.058 A 
ATOM     26  C   LIG    1       23.917 -26.883  13.573  0.00  0.00    +0.053 A 
ATOM     27 CL   LIG    1       25.209 -25.754  13.834  0.00  0.00    -0.083 Cl
ATOM     28  C   LIG    1       22.674 -26.315  13.255  0.00  0.00    +0.021 A 
ATOM     29  C   LIG    1       21.582 -27.125  12.957  0.00  0.00    +0.004 A 
ATOM     30  C   LIG    1       21.729 -28.507  12.993  0.00  0.00    +0.039 A 
ATOM     31  C   LIG    1       22.959 -29.072  13.344  0.00  0.00    +0.134 A 
ATOM     32  F   LIG    1       23.024 -30.408  13.437  0.00  0.00    -0.205 F 
ENDBRANCH  22  25
ENDBRANCH   1  21
TORSDOF 5
ENDMDL
MODEL 2
REMARK VINA RESULT:      -5.4      2.573      3.780
REMARK  Name = *****
REMARK                            x       y       z     vdW  Elec       q    Type
REMARK                         _______ _______ _______ _____ _____    ______ ____
ROOT
ATOM      1  C   LIG    1       24.900 -29.393  12.871  0.00  0.00    +0.250 C 
ATOM      2  N   LIG    1       24.936 -30.019  11.645  0.00  0.00    -0.298 N 
ATOM      3  H   LIG    1       24.347 -29.634  10.911  0.00  0.00    +0.150 HD
ATOM      4  O   LIG    1       25.661 -29.650  13.792  0.00  0.00    -0.270 OA
ENDROOT
BRANCH   2   5
ATOM      5  CA  LIG    1       25.930 -31.046  11.247  0.00  0.00    +0.190 C 
ATOM      6  C   LIG    1       25.403 -32.048  10.167  0.00  0.00    +0.165 C 
ATOM      7  S   LIG    1       23.896 -31.486   9.244  0.00  0.00    -0.127 S 
ATOM      8  C   LIG    1       24.853 -30.844   7.789  0.00  0.00    +0.042 C 
ATOM      9  CA  LIG    1       26.274 -31.448   7.906  0.00  0.00    +0.201 C 
ATOM     10  C   LIG    1       24.890 -29.308   7.885  0.00  0.00    +0.025 C 
ATOM     11  C   LIG    1       24.101 -31.220   6.505  0.00  0.00    +0.025 C 
ATOM     12  N   LIG    1       26.542 -31.676   9.321  0.00  0.00    -0.271 N 
ATOM     13  C   LIG    1       26.940 -30.644  10.133  0.00  0.00    +0.240 C 
ATOM     14  O   LIG    1       27.659 -29.716   9.872  0.00  0.00    -0.273 OA
BRANCH   9  15
ATOM     15  C   LIG    1       26.422 -32.788   7.172  0.00  0.00    +0.327 C 
ATOM     16  O   LIG    1       25.834 -33.817   7.473  0.00  0.00    -0.249 OA
BRANCH  15  17
ATOM     17  OXT LIG    1       27.250 -32.734   6.100  0.00  0.00    -0.479 OA
ATOM     18  HXT LIG    1       27.195 -31.925   5.556  0.00  0.00    +0.295 HD
ENDBRANCH  15  17
ENDBRANCH   9  15
ENDBRANCH   2   5
BRANCH   1  21
ATOM     19  C   LIG    1       21.683 -29.839  12.550  0.00  0.00    +0.090 C 
ATOM     20  C   LIG    1       22.509 -28.631  12.751  0.00  0.00    +0.147 A 
ATOM     21  C   LIG    1       23.857 -28.389  12.945  0.00  0.00    +0.106 A 
ATOM     22  C   LIG    1       23.912 -26.994  13.268  0.00  0.00    +0.130 A 
ATOM     23  N   LIG    1       22.702 -26.440  13.064  0.00  0.00    -0.077 NA
ATOM     24  O   LIG    1       21.832 -27.461  12.788  0.00  0.00    -0.359 OA
BRANCH  22  25
ATOM     25  C   LIG    1       25.032 -26.157  13.703  0.00  0.00    +0.058 A 
ATOM     26  C   LIG    1       26.289 -26.184  13.062  0.00  0.00    +0.053 A 
ATOM     27 CL   LIG    1       26.626 -27.130  11.647  0.00  0.00    -0.083 Cl
ATOM     28  C   LIG    1       27.353 -25.395  13.528  0.00  0.00    +0.021 A 
ATOM     29  C   LIG    1       27.178 -24.543  14.615  0.00  0.00    +0.004 A 
ATOM     30  C   LIG    1       25.941 -24.492  15.248  0.00  0.00    +0.039 A 
ATOM     31  C   LIG    1       24.893 -25.305  14.805  0.00  0.00    +0.134 A 
ATOM     32  F   LIG    1       23.746 -25.271  15.500  0.00  0.00    -0.205 F 
ENDBRANCH  22  25
ENDBRANCH   1  21
TORSDOF 5
ENDMDL
MODEL 3
REMARK VINA RESULT:      -5.3      2.281      3.157
REMARK  Name = *****
REMARK                            x       y       z     vdW  Elec       q    Type
REMARK                         _______ _______ _______ _____ _____    ______ ____
ROOT
ATOM      1  C   LIG    1       26.034 -27.808  13.148  0.00  0.00    +0.250 C 
ATOM      2  N   LIG    1       25.937 -27.986  11.786  0.00  0.00    -0.298 N 
ATOM      3  H   LIG    1       25.131 -27.576  11.322  0.00  0.00    +0.150 HD
ATOM      4  O   LIG    1       27.017 -28.113  13.808  0.00  0.00    -0.270 OA
ENDROOT
BRANCH   2   5
ATOM      5  CA  LIG    1       27.020 -28.515  10.920  0.00  0.00    +0.190 C 
ATOM      6  C   LIG    1       27.074 -30.076  10.861  0.00  0.00    +0.165 C 
ATOM      7  S   LIG    1       25.535 -30.938  11.433  0.00  0.00    -0.127 S 
ATOM      8  C   LIG    1       24.858 -31.168   9.721  0.00  0.00    +0.042 C 
ATOM      9  CA  LIG    1       26.039 -30.918   8.751  0.00  0.00    +0.201 C 
ATOM     10  C   LIG    1       23.736 -30.135   9.511  0.00  0.00    +0.025 C 
ATOM     11  C   LIG    1       24.236 -32.568   9.625  0.00  0.00    +0.025 C 
ATOM     12  N   LIG    1       26.955 -29.988   9.403  0.00  0.00    -0.271 N 
ATOM     13  C   LIG    1       26.701 -28.639   9.402  0.00  0.00    +0.240 C 
ATOM     14  O   LIG    1       26.210 -27.967   8.534  0.00  0.00    -0.273 OA
BRANCH   9  15
ATOM     15  C   LIG    1       26.820 -32.194   8.410  0.00  0.00    +0.327 C 
ATOM     16  O   LIG    1       27.501 -32.828   9.203  0.00  0.00    -0.249 OA
BRANCH  15  17
ATOM     17  OXT LIG    1       26.658 -32.607   7.128  0.00  0.00    -0.479 OA
ATOM     18  HXT LIG    1       27.303 -33.266   6.806  0.00  0.00    +0.295 HD
ENDBRANCH  15  17
ENDBRANCH   9  15
ENDBRANCH   2   5
BRANCH   1  21
ATOM     19  C   LIG    1       25.555 -24.683  13.954  0.00  0.00    +0.090 C 
ATOM     20  C   LIG    1       24.711 -25.887  14.080  0.00  0.00    +0.147 A 
ATOM     21  C   LIG    1       24.838 -27.214  13.711  0.00  0.00    +0.106 A 
ATOM     22  C   LIG    1       23.543 -27.769  13.971  0.00  0.00    +0.130 A 
ATOM     23  N   LIG    1       22.796 -26.869  14.638  0.00  0.00    -0.077 NA
ATOM     24  O   LIG    1       23.506 -25.697  14.663  0.00  0.00    -0.359 OA
BRANCH  22  25
ATOM     25  C   LIG    1       22.993 -29.094  13.677  0.00  0.00    +0.058 A 
ATOM     26  C   LIG    1       23.488 -30.269  14.282  0.00  0.00    +0.053 A 
ATOM     27 CL   LIG    1       24.725 -30.275  15.498  0.00  0.00    -0.083 Cl
ATOM     28  C   LIG    1       22.962 -31.528  13.949  0.00  0.00    +0.021 A 
ATOM     29  C   LIG    1       21.917 -31.638  13.036  0.00  0.00    +0.004 A 
ATOM     30  C   LIG    1       21.407 -30.489  12.442  0.00  0.00    +0.039 A 
ATOM     31  C   LIG    1       21.955 -29.240  12.748  0.00  0.00    +0.134 A 
ATOM     32  F   LIG    1       21.476 -28.174  12.089  0.00  0.00    -0.205 F 
ENDBRANCH  22  25
ENDBRANCH   1  21
TORSDOF 5
ENDMDL
MODEL 4
REMARK VINA RESULT:      -5.3      2.879      4.170
REMARK  Name = *****
REMARK                            x       y       z     vdW  Elec       q    Type
REMARK                         _______ _______ _______ _____ _____    ______ ____
ROOT
ATOM      1  C   LIG    1       24.015 -29.239  13.133  0.00  0.00    +0.250 C 
ATOM      2  N   LIG    1       24.733 -29.135  11.963  0.00  0.00    -0.298 N 
ATOM      3  H   LIG    1       24.408 -28.458  11.278  0.00  0.00    +0.150 HD
ATOM      4  O   LIG    1       24.374 -29.896  14.100  0.00  0.00    -0.270 OA
ENDROOT
BRANCH   2   5
ATOM      5  CA  LIG    1       26.062 -29.752  11.726  0.00  0.00    +0.190 C 
ATOM      6  C   LIG    1       25.989 -31.195  11.127  0.00  0.00    +0.165 C 
ATOM      7  S   LIG    1       24.359 -31.650  10.369  0.00  0.00    -0.127 S 
ATOM      8  C   LIG    1       24.891 -31.249   8.637  0.00  0.00    +0.042 C 
ATOM      9  CA  LIG    1       26.437 -31.154   8.671  0.00  0.00    +0.201 C 
ATOM     10  C   LIG    1       24.258 -29.902   8.245  0.00  0.00    +0.025 C 
ATOM     11  C   LIG    1       24.336 -32.326   7.695  0.00  0.00    +0.025 C 
ATOM     12  N   LIG    1       26.824 -30.733  10.013  0.00  0.00    -0.271 N 
ATOM     13  C   LIG    1       26.759 -29.411  10.377  0.00  0.00    +0.240 C 
ATOM     14  O   LIG    1       26.991 -28.436   9.713  0.00  0.00    -0.273 OA
BRANCH   9  15
ATOM     15  C   LIG    1       27.130 -32.491   8.374  0.00  0.00    +0.327 C 
ATOM     16  O   LIG    1       27.297 -33.386   9.190  0.00  0.00    -0.249 OA
BRANCH  15  17
ATOM     17  OXT LIG    1       27.519 -32.629   7.082  0.00  0.00    -0.479 OA
ATOM     18  HXT LIG    1       26.803 -32.764   6.432  0.00  0.00    +0.295 HD
ENDBRANCH  15  17
ENDBRANCH   9  15
ENDBRANCH   2   5
BRANCH   1  21
ATOM     19  C   LIG    1       23.660 -26.011  13.455  0.00  0.00    +0.090 C 
ATOM     20  C   LIG    1       22.689 -27.110  13.283  0.00  0.00    +0.147 A 
ATOM     21  C   LIG    1       22.783 -28.476  13.090  0.00  0.00    +0.106 A 
ATOM     22  C   LIG    1       21.436 -28.876  12.805  0.00  0.00    +0.130 A 
ATOM     23  N   LIG    1       20.606 -27.840  13.029  0.00  0.00    -0.077 NA
ATOM     24  O   LIG    1       21.388 -26.744  13.281  0.00  0.00    -0.359 OA
BRANCH  22  25
ATOM     25  C   LIG    1       20.890 -30.169  12.389  0.00  0.00    +0.058 A 
ATOM     26  C   LIG    1       20.261 -31.050  13.294  0.00  0.00    +0.053 A 
ATOM     27 CL   LIG    1       19.980 -30.673  14.964  0.00  0.00    -0.083 Cl
ATOM     28  C   LIG    1       19.781 -32.299  12.868  0.00  0.00    +0.021 A 
ATOM     29  C   LIG    1       19.889 -32.680  11.534  0.00  0.00    +0.004 A 
ATOM     30  C   LIG    1       20.492 -31.818  10.626  0.00  0.00    +0.039 A 
ATOM     31  C   LIG    1       21.001 -30.589  11.058  0.00  0.00    +0.134 A 
ATOM     32  F   LIG    1       21.639 -29.831  10.154  0.00  0.00    -0.205 F 
ENDBRANCH  22  25
ENDBRANCH   1  21
TORSDOF 5
ENDMDL
MODEL 5
REMARK VINA RESULT:      -5.3      3.324      7.478
REMARK  Name = *****
REMARK                            x       y       z     vdW  Elec       q    Type
REMARK                         _______ _______ _______ _____ _____    ______ ____
ROOT
ATOM      1  C   LIG    1       24.951 -29.845   8.937  0.00  0.00    +0.250 C 
ATOM      2  N   LIG    1       25.652 -29.748  10.118  0.00  0.00    -0.298 N 
ATOM      3  H   LIG    1       25.627 -30.551  10.740  0.00  0.00    +0.150 HD
ATOM      4  O   LIG    1       25.016 -29.024   8.034  0.00  0.00    -0.270 OA
ENDROOT
BRANCH   2   5
ATOM      5  CA  LIG    1       26.623 -28.672  10.441  0.00  0.00    +0.190 C 
ATOM      6  C   LIG    1       26.228 -27.823  11.693  0.00  0.00    +0.165 C 
ATOM      7  S   LIG    1       24.960 -28.598  12.802  0.00  0.00    -0.127 S 
ATOM      8  C   LIG    1       26.211 -29.276  13.994  0.00  0.00    +0.042 C 
ATOM      9  CA  LIG    1       27.538 -28.537  13.695  0.00  0.00    +0.201 C 
ATOM     10  C   LIG    1       26.344 -30.788  13.735  0.00  0.00    +0.025 C 
ATOM     11  C   LIG    1       25.678 -29.086  15.420  0.00  0.00    +0.025 C 
ATOM     12  N   LIG    1       27.526 -28.161  12.286  0.00  0.00    -0.271 N 
ATOM     13  C   LIG    1       27.846 -29.077  11.314  0.00  0.00    +0.240 C 
ATOM     14  O   LIG    1       28.667 -29.955  11.350  0.00  0.00    -0.273 OA
BRANCH   9  15
ATOM     15  C   LIG    1       27.717 -27.259  14.525  0.00  0.00    +0.327 C 
ATOM     16  O   LIG    1       27.023 -26.257  14.423  0.00  0.00    -0.249 OA
BRANCH  15  17
ATOM     17  OXT LIG    1       28.710 -27.341  15.446  0.00  0.00    -0.479 OA
ATOM     18  HXT LIG    1       29.220 -26.523  15.599  0.00  0.00    +0.295 HD
ENDBRANCH  15  17
ENDBRANCH   9  15
ENDBRANCH   2   5
BRANCH   1  21
ATOM     19  C   LIG    1       22.206 -30.442  10.597  0.00  0.00    +0.090 C 
ATOM     20  C   LIG    1       22.997 -31.253   9.651  0.00  0.00    +0.147 A 
ATOM     21  C   LIG    1       24.128 -31.037   8.884  0.00  0.00    +0.106 A 
ATOM     22  C   LIG    1       24.209 -32.202   8.054  0.00  0.00    +0.130 A 
ATOM     23  N   LIG    1       23.307 -33.111   8.471  0.00  0.00    -0.077 NA
ATOM     24  O   LIG    1       22.535 -32.504   9.426  0.00  0.00    -0.359 OA
BRANCH  22  25
ATOM     25  C   LIG    1       25.105 -32.525   6.942  0.00  0.00    +0.058 A 
ATOM     26  C   LIG    1       26.489 -32.735   7.123  0.00  0.00    +0.053 A 
ATOM     27 CL   LIG    1       27.267 -32.728   8.675  0.00  0.00    -0.083 Cl
ATOM     28  C   LIG    1       27.326 -33.005   6.030  0.00  0.00    +0.021 A 
ATOM     29  C   LIG    1       26.801 -33.104   4.745  0.00  0.00    +0.004 A 
ATOM     30  C   LIG    1       25.437 -32.915   4.550  0.00  0.00    +0.039 A 
ATOM     31  C   LIG    1       24.610 -32.611   5.636  0.00  0.00    +0.134 A 
ATOM     32  F   LIG    1       23.317 -32.365   5.379  0.00  0.00    -0.205 F 
ENDBRANCH  22  25
ENDBRANCH   1  21
TORSDOF 5
ENDMDL
MODEL 6
REMARK VINA RESULT:      -5.2      2.173      2.897
REMARK  Name = *****
REMARK                            x       y       z     vdW  Elec       q    Type
REMARK                         _______ _______ _______ _____ _____    ______ ____
ROOT
ATOM      1  C   LIG    1       25.615 -31.500  12.872  0.00  0.00    +0.250 C 
ATOM      2  N   LIG    1       25.142 -31.245  11.604  0.00  0.00    -0.298 N 
ATOM      3  H   LIG    1       25.022 -30.270  11.341  0.00  0.00    +0.150 HD
ATOM      4  O   LIG    1       25.948 -32.608  13.267  0.00  0.00    -0.270 OA
ENDROOT
BRANCH   2   5
ATOM      5  CA  LIG    1       25.022 -32.257  10.525  0.00  0.00    +0.190 C 
ATOM      6  C   LIG    1       24.075 -31.825   9.358  0.00  0.00    +0.165 C 
ATOM      7  S   LIG    1       23.702 -30.010   9.279  0.00  0.00    -0.127 S 
ATOM      8  C   LIG    1       24.996 -29.656   7.997  0.00  0.00    +0.042 C 
ATOM      9  CA  LIG    1       25.396 -31.026   7.396  0.00  0.00    +0.201 C 
ATOM     10  C   LIG    1       26.190 -28.985   8.699  0.00  0.00    +0.025 C 
ATOM     11  C   LIG    1       24.420 -28.656   6.985  0.00  0.00    +0.025 C 
ATOM     12  N   LIG    1       25.187 -32.037   8.426  0.00  0.00    -0.271 N 
ATOM     13  C   LIG    1       26.117 -32.229   9.418  0.00  0.00    +0.240 C 
ATOM     14  O   LIG    1       27.316 -32.162   9.348  0.00  0.00    -0.273 OA
BRANCH   9  15
ATOM     15  C   LIG    1       24.558 -31.415   6.172  0.00  0.00    +0.327 C 
ATOM     16  O   LIG    1       23.386 -31.762   6.209  0.00  0.00    -0.249 OA
BRANCH  15  17
ATOM     17  OXT LIG    1       25.224 -31.301   4.995  0.00  0.00    -0.479 OA
ATOM     18  HXT LIG    1       24.670 -31.250   4.193  0.00  0.00    +0.295 HD
ENDBRANCH  15  17
ENDBRANCH   9  15
ENDBRANCH   2   5
BRANCH   1  21
ATOM     19  C   LIG    1       28.282 -29.996  14.000  0.00  0.00    +0.090 C 
ATOM     20  C   LIG    1       26.839 -29.737  14.177  0.00  0.00    +0.147 A 
ATOM     21  C   LIG    1       25.676 -30.302  13.686  0.00  0.00    +0.106 A 
ATOM     22  C   LIG    1       24.647 -29.408  14.127  0.00  0.00    +0.130 A 
ATOM     23  N   LIG    1       25.169 -28.514  14.987  0.00  0.00    -0.077 NA
ATOM     24  O   LIG    1       26.527 -28.695  14.980  0.00  0.00    -0.359 OA
BRANCH  22  25
ATOM     25  C   LIG    1       23.213 -29.379  13.830  0.00  0.00    +0.058 A 
ATOM     26  C   LIG    1       22.340 -30.419  14.214  0.00  0.00    +0.053 A 
ATOM     27 CL   LIG    1       22.836 -31.792  15.153  0.00  0.00    -0.083 Cl
ATOM     28  C   LIG    1       20.977 -30.377  13.880  0.00  0.00    +0.021 A 
ATOM     29  C   LIG    1       20.452 -29.289  13.189  0.00  0.00    +0.004 A 
ATOM     30  C   LIG    1       21.296 -28.248  12.816  0.00  0.00    +0.039 A 
ATOM     31  C   LIG    1       22.659 -28.308  13.118  0.00  0.00    +0.134 A 
ATOM     32  F   LIG    1       23.438 -27.313  12.668  0.00  0.00    -0.205 F 
ENDBRANCH  22  25
ENDBRANCH   1  21
TORSDOF 5
ENDMDL
MODEL 7
REMARK VINA RESULT:      -5.2      3.449      5.817
REMARK  Name = *****
REMARK                            x       y       z     vdW  Elec       q    Type
REMARK                         _______ _______ _______ _____ _____    ______ ____
ROOT
ATOM      1  C   LIG    1       25.621 -27.885  12.518  0.00  0.00    +0.250 C 
ATOM      2  N   LIG    1       24.411 -28.543  12.524  0.00  0.00    -0.298 N 
ATOM      3  H   LIG    1       24.430 -29.549  12.378  0.00  0.00    +0.150 HD
ATOM      4  O   LIG    1       25.761 -26.710  12.828  0.00  0.00    -0.270 OA
ENDROOT
BRANCH   2   5
ATOM      5  CA  LIG    1       23.123 -27.946  12.957  0.00  0.00    +0.190 C 
ATOM      6  C   LIG    1       21.867 -28.758  12.501  0.00  0.00    +0.165 C 
ATOM      7  S   LIG    1       22.208 -30.505  11.981  0.00  0.00    -0.127 S 
ATOM      8  C   LIG    1       21.746 -31.234  13.623  0.00  0.00    +0.042 C 
ATOM      9  CA  LIG    1       20.971 -30.130  14.384  0.00  0.00    +0.201 C 
ATOM     10  C   LIG    1       23.045 -31.610  14.358  0.00  0.00    +0.025 C 
ATOM     11  C   LIG    1       20.951 -32.523  13.379  0.00  0.00    +0.025 C 
ATOM     12  N   LIG    1       21.457 -28.841  13.906  0.00  0.00    -0.271 N 
ATOM     13  C   LIG    1       22.630 -28.314  14.387  0.00  0.00    +0.240 C 
ATOM     14  O   LIG    1       23.082 -28.374  15.500  0.00  0.00    -0.273 OA
BRANCH   9  15
ATOM     15  C   LIG    1       19.456 -30.184  14.146  0.00  0.00    +0.327 C 
ATOM     16  O   LIG    1       18.638 -30.605  14.952  0.00  0.00    -0.249 OA
BRANCH  15  17
ATOM     17  OXT LIG    1       19.073 -29.672  12.950  0.00  0.00    -0.479 OA
ATOM     18  HXT LIG    1       18.956 -30.317  12.226  0.00  0.00    +0.295 HD
ENDBRANCH  15  17
ENDBRANCH   9  15
ENDBRANCH   2   5
BRANCH   1  21
ATOM     19  C   LIG    1       28.273 -28.698  14.237  0.00  0.00    +0.090 C 
ATOM     20  C   LIG    1       27.838 -29.014  12.862  0.00  0.00    +0.147 A 
ATOM     21  C   LIG    1       26.712 -28.745  12.105  0.00  0.00    +0.106 A 
ATOM     22  C   LIG    1       26.894 -29.537  10.925  0.00  0.00    +0.130 A 
ATOM     23  N   LIG    1       28.136 -30.054  10.920  0.00  0.00    -0.077 NA
ATOM     24  O   LIG    1       28.697 -29.765  12.136  0.00  0.00    -0.359 OA
BRANCH  22  25
ATOM     25  C   LIG    1       25.997 -29.789   9.795  0.00  0.00    +0.058 A 
ATOM     26  C   LIG    1       25.245 -30.977   9.677  0.00  0.00    +0.053 A 
ATOM     27 CL   LIG    1       25.221 -32.223  10.885  0.00  0.00    -0.083 Cl
ATOM     28  C   LIG    1       24.423 -31.203   8.562  0.00  0.00    +0.021 A 
ATOM     29  C   LIG    1       24.309 -30.241   7.562  0.00  0.00    +0.004 A 
ATOM     30  C   LIG    1       25.031 -29.058   7.669  0.00  0.00    +0.039 A 
ATOM     31  C   LIG    1       25.876 -28.850   8.764  0.00  0.00    +0.134 A 
ATOM     32  F   LIG    1       26.606 -27.724   8.778  0.00  0.00    -0.205 F 
ENDBRANCH  22  25
ENDBRANCH   1  21
TORSDOF 5
ENDMDL
MODEL 8
REMARK VINA RESULT:      -5.1      3.513      5.408
REMARK  Name = *****
REMARK                            x       y       z     vdW  Elec       q    Type
REMARK                         _______ _______ _______ _____ _____    ______ ____
ROOT
ATOM      1  C   LIG    1       25.153 -28.722  12.291  0.00  0.00    +0.250 C 
ATOM      2  N   LIG    1       24.131 -29.643  12.259  0.00  0.00    -0.298 N 
ATOM      3  H   LIG    1       24.384 -30.611  12.075  0.00  0.00    +0.150 HD
ATOM      4  O   LIG    1       25.015 -27.561  12.648  0.00  0.00    -0.270 OA
ENDROOT
BRANCH   2   5
ATOM      5  CA  LIG    1       22.739 -29.381  12.701  0.00  0.00    +0.190 C 
ATOM      6  C   LIG    1       21.660 -29.722  11.622  0.00  0.00    +0.165 C 
ATOM      7  S   LIG    1       22.241 -30.825  10.250  0.00  0.00    -0.127 S 
ATOM      8  C   LIG    1       21.569 -32.374  11.019  0.00  0.00    +0.042 C 
ATOM      9  CA  LIG    1       20.577 -31.916  12.116  0.00  0.00    +0.201 C 
ATOM     10  C   LIG    1       22.749 -33.155  11.625  0.00  0.00    +0.025 C 
ATOM     11  C   LIG    1       20.947 -33.238   9.914  0.00  0.00    +0.025 C 
ATOM     12  N   LIG    1       21.021 -30.612  12.596  0.00  0.00    -0.271 N 
ATOM     13  C   LIG    1       22.040 -30.513  13.511  0.00  0.00    +0.240 C 
ATOM     14  O   LIG    1       22.294 -31.238  14.435  0.00  0.00    -0.273 OA
BRANCH   9  15
ATOM     15  C   LIG    1       19.138 -31.770  11.605  0.00  0.00    +0.327 C 
ATOM     16  O   LIG    1       18.208 -32.499  11.920  0.00  0.00    -0.249 OA
BRANCH  15  17
ATOM     17  OXT LIG    1       18.956 -30.707  10.782  0.00  0.00    -0.479 OA
ATOM     18  HXT LIG    1       19.201 -29.835  11.148  0.00  0.00    +0.295 HD
ENDBRANCH  15  17
ENDBRANCH   9  15
ENDBRANCH   2   5
BRANCH   1  21
ATOM     19  C   LIG    1       27.763 -29.407  14.127  0.00  0.00    +0.090 C 
ATOM     20  C   LIG    1       27.507 -29.510  12.676  0.00  0.00    +0.147 A 
ATOM     21  C   LIG    1       26.416 -29.287  11.857  0.00  0.00    +0.106 A 
ATOM     22  C   LIG    1       26.836 -29.784  10.581  0.00  0.00    +0.130 A 
ATOM     23  N   LIG    1       28.150 -30.075  10.625  0.00  0.00    -0.077 NA
ATOM     24  O   LIG    1       28.547 -29.945  11.930  0.00  0.00    -0.359 OA
BRANCH  22  25
ATOM     25  C   LIG    1       26.097 -29.951   9.328  0.00  0.00    +0.058 A 
ATOM     26  C   LIG    1       25.649 -31.211   8.877  0.00  0.00    +0.053 A 
ATOM     27 CL   LIG    1       25.837 -32.679   9.784  0.00  0.00    -0.083 Cl
ATOM     28  C   LIG    1       24.976 -31.341   7.652  0.00  0.00    +0.021 A 
ATOM     29  C   LIG    1       24.706 -30.220   6.871  0.00  0.00    +0.004 A 
ATOM     30  C   LIG    1       25.126 -28.969   7.309  0.00  0.00    +0.039 A 
ATOM     31  C   LIG    1       25.828 -28.846   8.512  0.00  0.00    +0.134 A 
ATOM     32  F   LIG    1       26.275 -27.627   8.847  0.00  0.00    -0.205 F 
ENDBRANCH  22  25
ENDBRANCH   1  21
TORSDOF 5
ENDMDL
MODEL 9
REMARK VINA RESULT:      -5.1      2.296      3.047
REMARK  Name = *****
REMARK                            x       y       z     vdW  Elec       q    Type
REMARK                         _______ _______ _______ _____ _____    ______ ____
ROOT
ATOM      1  C   LIG    1       23.406 -32.012  12.491  0.00  0.00    +0.250 C 
ATOM      2  N   LIG    1       24.289 -32.140  11.443  0.00  0.00    -0.298 N 
ATOM      3  H   LIG    1       25.262 -31.907  11.625  0.00  0.00    +0.150 HD
ATOM      4  O   LIG    1       22.246 -32.398  12.459  0.00  0.00    -0.270 OA
ENDROOT
BRANCH   2   5
ATOM      5  CA  LIG    1       23.983 -32.808  10.153  0.00  0.00    +0.190 C 
ATOM      6  C   LIG    1       23.434 -31.840   9.056  0.00  0.00    +0.165 C 
ATOM      7  S   LIG    1       23.740 -30.039   9.372  0.00  0.00    -0.127 S 
ATOM      8  C   LIG    1       25.251 -29.961   8.299  0.00  0.00    +0.042 C 
ATOM      9  CA  LIG    1       25.228 -31.241   7.427  0.00  0.00    +0.201 C 
ATOM     10  C   LIG    1       26.486 -29.935   9.218  0.00  0.00    +0.025 C 
ATOM     11  C   LIG    1       25.222 -28.647   7.508  0.00  0.00    +0.025 C 
ATOM     12  N   LIG    1       24.526 -32.274   8.179  0.00  0.00    -0.271 N 
ATOM     13  C   LIG    1       25.170 -32.985   9.161  0.00  0.00    +0.240 C 
ATOM     14  O   LIG    1       26.311 -33.362   9.191  0.00  0.00    -0.273 OA
BRANCH   9  15
ATOM     15  C   LIG    1       24.500 -31.047   6.091  0.00  0.00    +0.327 C 
ATOM     16  O   LIG    1       23.291 -30.906   5.969  0.00  0.00    -0.249 OA
BRANCH  15  17
ATOM     17  OXT LIG    1       25.329 -30.998   5.019  0.00  0.00    -0.479 OA
ATOM     18  HXT LIG    1       25.442 -30.121   4.605  0.00  0.00    +0.295 HD
ENDBRANCH  15  17
ENDBRANCH   9  15
ENDBRANCH   2   5
BRANCH   1  21
ATOM     19  C   LIG    1       25.947 -33.059  14.249  0.00  0.00    +0.090 C 
ATOM     20  C   LIG    1       25.058 -31.888  14.379  0.00  0.00    +0.147 A 
ATOM     21  C   LIG    1       24.009 -31.370  13.642  0.00  0.00    +0.106 A 
ATOM     22  C   LIG    1       23.752 -30.101  14.255  0.00  0.00    +0.130 A 
ATOM     23  N   LIG    1       24.466 -30.001  15.392  0.00  0.00    -0.077 NA
ATOM     24  O   LIG    1       25.300 -31.086  15.440  0.00  0.00    -0.359 OA
BRANCH  22  25
ATOM     25  C   LIG    1       22.850 -29.015  13.866  0.00  0.00    +0.058 A 
ATOM     26  C   LIG    1       23.323 -27.760  13.426  0.00  0.00    +0.053 A 
ATOM     27 CL   LIG    1       25.004 -27.389  13.209  0.00  0.00    -0.083 Cl
ATOM     28  C   LIG    1       22.430 -26.728  13.096  0.00  0.00    +0.021 A 
ATOM     29  C   LIG    1       21.055 -26.935  13.165  0.00  0.00    +0.004 A 
ATOM     30  C   LIG    1       20.572 -28.170  13.581  0.00  0.00    +0.039 A 
ATOM     31  C   LIG    1       21.462 -29.185  13.943  0.00  0.00    +0.134 A 
ATOM     32  F   LIG    1       20.941 -30.330  14.409  0.00  0.00    -0.205 F 
ENDBRANCH  22  25
ENDBRANCH   1  21
TORSDOF 5
ENDMDL
