MODEL 1
REMARK VINA RESULT:      -9.3      0.000      0.000
REMARK  Name = *****
REMARK                            x       y       z     vdW  Elec       q    Type
REMARK                         _______ _______ _______ _____ _____    ______ ____
ROOT
ATOM      1  C   LIG    1       27.233 -20.290   7.503  0.00  0.00    +0.084 C 
ATOM      2  C   LIG    1       27.157 -20.332   5.975  0.00  0.00    +0.027 C 
ENDROOT
BRANCH   1   3
ATOM      3  N   LIG    1       28.352 -21.135   8.012  0.00  0.00    -0.305 NA
ATOM      4  H   LIG    1       28.199 -21.280   9.013  0.00  0.00    +0.123 HD
BRANCH   3   6
ATOM      5  C   LIG    1       30.720 -21.314   8.708  0.00  0.00    +0.027 C 
ATOM      6  C   LIG    1       29.719 -20.600   7.780  0.00  0.00    +0.088 C 
BRANCH   6   7
ATOM      7  C   LIG    1       29.832 -19.076   7.998  0.00  0.00    +0.247 C 
BRANCH   7   8
ATOM      8  O   LIG    1       29.616 -18.714   9.377  0.00  0.00    -0.490 OA
BRANCH   8   9
ATOM      9  C   LIG    1       30.517 -17.795   9.854  0.00  0.00    +0.121 A 
ATOM     10  C   LIG    1       31.524 -17.350   8.996  0.00  0.00    +0.045 A 
ATOM     11  C   LIG    1       32.521 -16.491   9.484  0.00  0.00    +0.004 A 
ATOM     12  C   LIG    1       32.494 -16.065  10.820  0.00  0.00    +0.000 A 
ATOM     13  C   LIG    1       31.463 -16.466  11.650  0.00  0.00    +0.004 A 
ATOM     14  C   LIG    1       30.476 -17.310  11.169  0.00  0.00    +0.045 A 
ENDBRANCH   8   9
ENDBRANCH   7   8
ENDBRANCH   6   7
ENDBRANCH   3   6
ENDBRANCH   1   3
BRANCH   1  15
ATOM     15  C   LIG    1       25.826 -20.643   8.114  0.00  0.00    +0.161 C 
BRANCH  15  16
ATOM     16  C   LIG    1       25.184 -21.932   7.625  0.00  0.00    -0.018 A 
ATOM     17  C   LIG    1       23.811 -21.969   7.334  0.00  0.00    +0.010 A 
ATOM     18  C   LIG    1       23.217 -23.118   6.806  0.00  0.00    +0.046 A 
ATOM     19  C   LIG    1       23.999 -24.245   6.570  0.00  0.00    +0.117 A 
ATOM     20  C   LIG    1       25.347 -24.247   6.888  0.00  0.00    +0.046 A 
ATOM     21  C   LIG    1       25.941 -23.097   7.413  0.00  0.00    +0.010 A 
BRANCH  19  22
ATOM     22  O   LIG    1       23.402 -25.331   6.002  0.00  0.00    -0.507 OA
ATOM     23  H   LIG    1       23.498 -26.083   6.610  0.00  0.00    +0.292 HD
ENDBRANCH  19  22
ENDBRANCH  15  16
BRANCH  15  24
ATOM     24  O   LIG    1       25.922 -20.607   9.545  0.00  0.00    -0.386 OA
ATOM     25  H   LIG    1       25.061 -20.884   9.904  0.00  0.00    +0.210 HD
ENDBRANCH  15  24
ENDBRANCH   1  15
TORSDOF 9
ENDMDL
MODEL 2
REMARK VINA RESULT:      -9.2      1.620      8.273
REMARK  Name = *****
REMARK                            x       y       z     vdW  Elec       q    Type
REMARK                         _______ _______ _______ _____ _____    ______ ____
ROOT
ATOM      1  C   LIG    1       30.116 -20.315   8.086  0.00  0.00    +0.084 C 
ATOM      2  C   LIG    1       31.120 -21.204   8.823  0.00  0.00    +0.027 C 
ENDROOT
BRANCH   1   3
ATOM      3  N   LIG    1       29.511 -21.031   6.926  0.00  0.00    -0.305 NA
ATOM      4  H   LIG    1       29.974 -20.692   6.079  0.00  0.00    +0.123 HD
BRANCH   3   6
ATOM      5  C   LIG    1       27.711 -19.890   5.668  0.00  0.00    +0.027 C 
ATOM      6  C   LIG    1       28.037 -20.897   6.786  0.00  0.00    +0.088 C 
BRANCH   6   7
ATOM      7  C   LIG    1       27.330 -20.453   8.084  0.00  0.00    +0.247 C 
BRANCH   7   8
ATOM      8  O   LIG    1       26.662 -21.555   8.734  0.00  0.00    -0.490 OA
BRANCH   8   9
ATOM      9  C   LIG    1       25.632 -22.086   8.000  0.00  0.00    +0.121 A 
ATOM     10  C   LIG    1       24.485 -21.314   7.815  0.00  0.00    +0.045 A 
ATOM     11  C   LIG    1       23.374 -21.868   7.159  0.00  0.00    +0.004 A 
ATOM     12  C   LIG    1       23.425 -23.182   6.672  0.00  0.00    +0.000 A 
ATOM     13  C   LIG    1       24.585 -23.923   6.810  0.00  0.00    +0.004 A 
ATOM     14  C   LIG    1       25.682 -23.377   7.454  0.00  0.00    +0.045 A 
ENDBRANCH   8   9
ENDBRANCH   7   8
ENDBRANCH   6   7
ENDBRANCH   3   6
ENDBRANCH   1   3
BRANCH   1  15
ATOM     15  C   LIG    1       30.792 -18.943   7.719  0.00  0.00    +0.161 C 
BRANCH  15  16
ATOM     16  C   LIG    1       31.090 -18.006   8.879  0.00  0.00    -0.018 A 
ATOM     17  C   LIG    1       30.145 -17.827   9.902  0.00  0.00    +0.010 A 
ATOM     18  C   LIG    1       30.431 -17.037  11.018  0.00  0.00    +0.046 A 
ATOM     19  C   LIG    1       31.672 -16.415  11.115  0.00  0.00    +0.117 A 
ATOM     20  C   LIG    1       32.606 -16.542  10.100  0.00  0.00    +0.046 A 
ATOM     21  C   LIG    1       32.321 -17.335   8.985  0.00  0.00    +0.010 A 
BRANCH  19  22
ATOM     22  O   LIG    1       31.943 -15.697  12.242  0.00  0.00    -0.507 OA
ATOM     23  H   LIG    1       31.739 -16.251  13.012  0.00  0.00    +0.292 HD
ENDBRANCH  19  22
ENDBRANCH  15  16
BRANCH  15  24
ATOM     24  O   LIG    1       31.963 -19.200   6.931  0.00  0.00    -0.386 OA
ATOM     25  H   LIG    1       32.646 -19.550   7.526  0.00  0.00    +0.210 HD
ENDBRANCH  15  24
ENDBRANCH   1  15
TORSDOF 9
ENDMDL
MODEL 3
REMARK VINA RESULT:      -9.2      2.538      7.625
REMARK  Name = *****
REMARK                            x       y       z     vdW  Elec       q    Type
REMARK                         _______ _______ _______ _____ _____    ______ ____
ROOT
ATOM      1  C   LIG    1       26.313 -20.947   7.003  0.00  0.00    +0.084 C 
ATOM      2  C   LIG    1       26.084 -20.579   8.471  0.00  0.00    +0.027 C 
ENDROOT
BRANCH   1   3
ATOM      3  N   LIG    1       26.606 -22.402   6.850  0.00  0.00    -0.305 NA
ATOM      4  H   LIG    1       27.162 -22.517   5.999  0.00  0.00    +0.123 HD
BRANCH   3   6
ATOM      5  C   LIG    1       25.874 -24.766   6.839  0.00  0.00    +0.027 C 
ATOM      6  C   LIG    1       25.419 -23.295   6.805  0.00  0.00    +0.088 C 
BRANCH   6   7
ATOM      7  C   LIG    1       24.526 -23.075   5.565  0.00  0.00    +0.247 C 
BRANCH   7   8
ATOM      8  O   LIG    1       23.383 -22.247   5.868  0.00  0.00    -0.490 OA
BRANCH   8   9
ATOM      9  C   LIG    1       23.333 -21.087   5.137  0.00  0.00    +0.121 A 
ATOM     10  C   LIG    1       24.245 -20.924   4.093  0.00  0.00    +0.045 A 
ATOM     11  C   LIG    1       24.288 -19.707   3.395  0.00  0.00    +0.004 A 
ATOM     12  C   LIG    1       23.406 -18.668   3.730  0.00  0.00    +0.000 A 
ATOM     13  C   LIG    1       22.468 -18.857   4.729  0.00  0.00    +0.004 A 
ATOM     14  C   LIG    1       22.422 -20.058   5.415  0.00  0.00    +0.045 A 
ENDBRANCH   8   9
ENDBRANCH   7   8
ENDBRANCH   6   7
ENDBRANCH   3   6
ENDBRANCH   1   3
BRANCH   1  15
ATOM     15  C   LIG    1       27.405 -19.999   6.383  0.00  0.00    +0.161 C 
BRANCH  15  16
ATOM     16  C   LIG    1       28.741 -19.945   7.108  0.00  0.00    -0.018 A 
ATOM     17  C   LIG    1       29.409 -18.720   7.266  0.00  0.00    +0.010 A 
ATOM     18  C   LIG    1       30.595 -18.635   7.999  0.00  0.00    +0.046 A 
ATOM     19  C   LIG    1       31.124 -19.783   8.580  0.00  0.00    +0.117 A 
ATOM     20  C   LIG    1       30.507 -21.011   8.404  0.00  0.00    +0.046 A 
ATOM     21  C   LIG    1       29.319 -21.096   7.673  0.00  0.00    +0.010 A 
BRANCH  19  22
ATOM     22  O   LIG    1       32.251 -19.659   9.336  0.00  0.00    -0.507 OA
ATOM     23  H   LIG    1       32.033 -19.906  10.250  0.00  0.00    +0.292 HD
ENDBRANCH  19  22
ENDBRANCH  15  16
BRANCH  15  24
ATOM     24  O   LIG    1       27.569 -20.327   4.996  0.00  0.00    -0.386 OA
ATOM     25  H   LIG    1       27.442 -19.511   4.484  0.00  0.00    +0.210 HD
ENDBRANCH  15  24
ENDBRANCH   1  15
TORSDOF 9
ENDMDL
MODEL 4
REMARK VINA RESULT:      -9.0      0.887      1.538
REMARK  Name = *****
REMARK                            x       y       z     vdW  Elec       q    Type
REMARK                         _______ _______ _______ _____ _____    ______ ____
ROOT
ATOM      1  C   LIG    1       26.685 -20.282   6.934  0.00  0.00    +0.084 C 
ATOM      2  C   LIG    1       26.176 -20.403   5.496  0.00  0.00    +0.027 C 
ENDROOT
BRANCH   1   3
ATOM      3  N   LIG    1       28.101 -20.737   7.047  0.00  0.00    -0.305 NA
ATOM      4  H   LIG    1       28.124 -21.512   7.715  0.00  0.00    +0.123 HD
BRANCH   3   6
ATOM      5  C   LIG    1       29.441 -18.825   6.227  0.00  0.00    +0.027 C 
ATOM      6  C   LIG    1       29.082 -19.694   7.446  0.00  0.00    +0.088 C 
BRANCH   6   7
ATOM      7  C   LIG    1       30.380 -20.266   8.055  0.00  0.00    +0.247 C 
BRANCH   7   8
ATOM      8  O   LIG    1       30.507 -19.936   9.454  0.00  0.00    -0.490 OA
BRANCH   8   9
ATOM      9  C   LIG    1       30.996 -18.674   9.681  0.00  0.00    +0.121 A 
ATOM     10  C   LIG    1       30.485 -17.951  10.758  0.00  0.00    +0.045 A 
ATOM     11  C   LIG    1       30.889 -16.620  10.954  0.00  0.00    +0.004 A 
ATOM     12  C   LIG    1       31.817 -16.029  10.084  0.00  0.00    +0.000 A 
ATOM     13  C   LIG    1       32.362 -16.770   9.051  0.00  0.00    +0.004 A 
ATOM     14  C   LIG    1       31.967 -18.083   8.859  0.00  0.00    +0.045 A 
ENDBRANCH   8   9
ENDBRANCH   7   8
ENDBRANCH   6   7
ENDBRANCH   3   6
ENDBRANCH   1   3
BRANCH   1  15
ATOM     15  C   LIG    1       25.691 -21.012   7.911  0.00  0.00    +0.161 C 
BRANCH  15  16
ATOM     16  C   LIG    1       25.122 -22.336   7.428  0.00  0.00    -0.018 A 
ATOM     17  C   LIG    1       23.745 -22.467   7.187  0.00  0.00    +0.010 A 
ATOM     18  C   LIG    1       23.213 -23.648   6.664  0.00  0.00    +0.046 A 
ATOM     19  C   LIG    1       24.062 -24.713   6.382  0.00  0.00    +0.117 A 
ATOM     20  C   LIG    1       25.418 -24.625   6.649  0.00  0.00    +0.046 A 
ATOM     21  C   LIG    1       25.950 -23.443   7.169  0.00  0.00    +0.010 A 
BRANCH  19  22
ATOM     22  O   LIG    1       23.521 -25.832   5.820  0.00  0.00    -0.507 OA
ATOM     23  H   LIG    1       22.581 -25.661   5.647  0.00  0.00    +0.292 HD
ENDBRANCH  19  22
ENDBRANCH  15  16
BRANCH  15  24
ATOM     24  O   LIG    1       26.318 -21.142   9.196  0.00  0.00    -0.386 OA
ATOM     25  H   LIG    1       26.051 -21.999   9.567  0.00  0.00    +0.210 HD
ENDBRANCH  15  24
ENDBRANCH   1  15
TORSDOF 9
ENDMDL
MODEL 5
REMARK VINA RESULT:      -8.9      2.372      8.491
REMARK  Name = *****
REMARK                            x       y       z     vdW  Elec       q    Type
REMARK                         _______ _______ _______ _____ _____    ______ ____
ROOT
ATOM      1  C   LIG    1       29.975 -20.392   8.336  0.00  0.00    +0.084 C 
ATOM      2  C   LIG    1       30.971 -21.474   8.759  0.00  0.00    +0.027 C 
ENDROOT
BRANCH   1   3
ATOM      3  N   LIG    1       29.041 -20.898   7.288  0.00  0.00    -0.305 NA
ATOM      4  H   LIG    1       29.532 -20.859   6.392  0.00  0.00    +0.123 HD
BRANCH   3   6
ATOM      5  C   LIG    1       26.754 -20.750   8.222  0.00  0.00    +0.027 C 
ATOM      6  C   LIG    1       27.742 -20.183   7.186  0.00  0.00    +0.088 C 
BRANCH   6   7
ATOM      7  C   LIG    1       27.100 -20.262   5.785  0.00  0.00    +0.247 C 
BRANCH   7   8
ATOM      8  O   LIG    1       25.917 -21.087   5.783  0.00  0.00    -0.490 OA
BRANCH   8   9
ATOM      9  C   LIG    1       24.805 -20.456   5.283  0.00  0.00    +0.121 A 
ATOM     10  C   LIG    1       24.922 -19.770   4.075  0.00  0.00    +0.045 A 
ATOM     11  C   LIG    1       23.832 -19.028   3.591  0.00  0.00    +0.004 A 
ATOM     12  C   LIG    1       22.627 -18.994   4.307  0.00  0.00    +0.000 A 
ATOM     13  C   LIG    1       22.500 -19.722   5.477  0.00  0.00    +0.004 A 
ATOM     14  C   LIG    1       23.573 -20.457   5.953  0.00  0.00    +0.045 A 
ENDBRANCH   8   9
ENDBRANCH   7   8
ENDBRANCH   6   7
ENDBRANCH   3   6
ENDBRANCH   1   3
BRANCH   1  15
ATOM     15  C   LIG    1       30.752 -19.084   7.933  0.00  0.00    +0.161 C 
BRANCH  15  16
ATOM     16  C   LIG    1       31.204 -18.190   9.077  0.00  0.00    -0.018 A 
ATOM     17  C   LIG    1       32.339 -17.378   8.931  0.00  0.00    +0.010 A 
ATOM     18  C   LIG    1       32.724 -16.488   9.937  0.00  0.00    +0.046 A 
ATOM     19  C   LIG    1       31.971 -16.410  11.104  0.00  0.00    +0.117 A 
ATOM     20  C   LIG    1       30.871 -17.230  11.290  0.00  0.00    +0.046 A 
ATOM     21  C   LIG    1       30.484 -18.117  10.283  0.00  0.00    +0.010 A 
BRANCH  19  22
ATOM     22  O   LIG    1       32.339 -15.492  12.044  0.00  0.00    -0.507 OA
ATOM     23  H   LIG    1       33.012 -14.912  11.654  0.00  0.00    +0.292 HD
ENDBRANCH  19  22
ENDBRANCH  15  16
BRANCH  15  24
ATOM     24  O   LIG    1       31.846 -19.441   7.075  0.00  0.00    -0.386 OA
ATOM     25  H   LIG    1       32.188 -18.622   6.679  0.00  0.00    +0.210 HD
ENDBRANCH  15  24
ENDBRANCH   1  15
TORSDOF 9
ENDMDL
MODEL 6
REMARK VINA RESULT:      -8.6      1.544      8.417
REMARK  Name = *****
REMARK                            x       y       z     vdW  Elec       q    Type
REMARK                         _______ _______ _______ _____ _____    ______ ____
ROOT
ATOM      1  C   LIG    1       29.859 -20.498   8.016  0.00  0.00    +0.084 C 
ATOM      2  C   LIG    1       30.771 -21.428   8.819  0.00  0.00    +0.027 C 
ENDROOT
BRANCH   1   3
ATOM      3  N   LIG    1       29.298 -21.191   6.820  0.00  0.00    -0.305 NA
ATOM      4  H   LIG    1       29.781 -20.824   5.996  0.00  0.00    +0.123 HD
BRANCH   3   6
ATOM      5  C   LIG    1       27.505 -19.805   5.826  0.00  0.00    +0.027 C 
ATOM      6  C   LIG    1       27.827 -21.072   6.639  0.00  0.00    +0.088 C 
BRANCH   6   7
ATOM      7  C   LIG    1       27.043 -21.029   7.968  0.00  0.00    +0.247 C 
BRANCH   7   8
ATOM      8  O   LIG    1       25.631 -20.824   7.750  0.00  0.00    -0.490 OA
BRANCH   8   9
ATOM      9  C   LIG    1       24.949 -21.973   7.437  0.00  0.00    +0.121 A 
ATOM     10  C   LIG    1       25.676 -23.153   7.286  0.00  0.00    +0.045 A 
ATOM     11  C   LIG    1       25.022 -24.322   6.865  0.00  0.00    +0.004 A 
ATOM     12  C   LIG    1       23.641 -24.308   6.617  0.00  0.00    +0.000 A 
ATOM     13  C   LIG    1       22.917 -23.148   6.822  0.00  0.00    +0.004 A 
ATOM     14  C   LIG    1       23.560 -21.996   7.241  0.00  0.00    +0.045 A 
ENDBRANCH   8   9
ENDBRANCH   7   8
ENDBRANCH   6   7
ENDBRANCH   3   6
ENDBRANCH   1   3
BRANCH   1  15
ATOM     15  C   LIG    1       30.621 -19.160   7.690  0.00  0.00    +0.161 C 
BRANCH  15  16
ATOM     16  C   LIG    1       30.985 -18.285   8.880  0.00  0.00    -0.018 A 
ATOM     17  C   LIG    1       32.231 -17.641   8.927  0.00  0.00    +0.010 A 
ATOM     18  C   LIG    1       32.553 -16.768   9.969  0.00  0.00    +0.046 A 
ATOM     19  C   LIG    1       31.624 -16.537  10.978  0.00  0.00    +0.117 A 
ATOM     20  C   LIG    1       30.404 -17.192  10.978  0.00  0.00    +0.046 A 
ATOM     21  C   LIG    1       30.081 -18.063   9.934  0.00  0.00    +0.010 A 
BRANCH  19  22
ATOM     22  O   LIG    1       31.945 -15.637  11.952  0.00  0.00    -0.507 OA
ATOM     23  H   LIG    1       32.883 -15.754  12.175  0.00  0.00    +0.292 HD
ENDBRANCH  19  22
ENDBRANCH  15  16
BRANCH  15  24
ATOM     24  O   LIG    1       31.769 -19.465   6.886  0.00  0.00    -0.386 OA
ATOM     25  H   LIG    1       31.503 -19.392   5.954  0.00  0.00    +0.210 HD
ENDBRANCH  15  24
ENDBRANCH   1  15
TORSDOF 9
ENDMDL
MODEL 7
REMARK VINA RESULT:      -8.6      2.291      3.187
REMARK  Name = *****
REMARK                            x       y       z     vdW  Elec       q    Type
REMARK                         _______ _______ _______ _____ _____    ______ ____
ROOT
ATOM      1  C   LIG    1       26.559 -21.848   7.779  0.00  0.00    +0.084 C 
ATOM      2  C   LIG    1       26.081 -20.594   8.515  0.00  0.00    +0.027 C 
ENDROOT
BRANCH   1   3
ATOM      3  N   LIG    1       27.814 -21.582   7.018  0.00  0.00    -0.305 NA
ATOM      4  H   LIG    1       28.510 -22.267   7.322  0.00  0.00    +0.123 HD
BRANCH   3   6
ATOM      5  C   LIG    1       28.471 -19.557   5.755  0.00  0.00    +0.027 C 
ATOM      6  C   LIG    1       28.365 -20.207   7.147  0.00  0.00    +0.088 C 
BRANCH   6   7
ATOM      7  C   LIG    1       29.748 -20.157   7.832  0.00  0.00    +0.247 C 
BRANCH   7   8
ATOM      8  O   LIG    1       30.478 -18.964   7.477  0.00  0.00    -0.490 OA
BRANCH   8   9
ATOM      9  C   LIG    1       30.879 -18.221   8.559  0.00  0.00    +0.121 A 
ATOM     10  C   LIG    1       29.977 -18.040   9.608  0.00  0.00    +0.045 A 
ATOM     11  C   LIG    1       30.318 -17.200  10.680  0.00  0.00    +0.004 A 
ATOM     12  C   LIG    1       31.568 -16.563  10.707  0.00  0.00    +0.000 A 
ATOM     13  C   LIG    1       32.479 -16.790   9.691  0.00  0.00    +0.004 A 
ATOM     14  C   LIG    1       32.145 -17.622   8.636  0.00  0.00    +0.045 A 
ENDBRANCH   8   9
ENDBRANCH   7   8
ENDBRANCH   6   7
ENDBRANCH   3   6
ENDBRANCH   1   3
BRANCH   1  15
ATOM     15  C   LIG    1       25.386 -22.432   6.908  0.00  0.00    +0.161 C 
BRANCH  15  16
ATOM     16  C   LIG    1       24.618 -21.433   6.056  0.00  0.00    -0.018 A 
ATOM     17  C   LIG    1       23.339 -21.007   6.448  0.00  0.00    +0.010 A 
ATOM     18  C   LIG    1       22.651 -20.030   5.726  0.00  0.00    +0.046 A 
ATOM     19  C   LIG    1       23.242 -19.473   4.596  0.00  0.00    +0.117 A 
ATOM     20  C   LIG    1       24.484 -19.906   4.163  0.00  0.00    +0.046 A 
ATOM     21  C   LIG    1       25.174 -20.881   4.888  0.00  0.00    +0.010 A 
BRANCH  19  22
ATOM     22  O   LIG    1       22.570 -18.481   3.944  0.00  0.00    -0.507 OA
ATOM     23  H   LIG    1       22.767 -18.554   2.996  0.00  0.00    +0.292 HD
ENDBRANCH  19  22
ENDBRANCH  15  16
BRANCH  15  24
ATOM     24  O   LIG    1       25.891 -23.521   6.122  0.00  0.00    -0.386 OA
ATOM     25  H   LIG    1       26.423 -23.141   5.402  0.00  0.00    +0.210 HD
ENDBRANCH  15  24
ENDBRANCH   1  15
TORSDOF 9
ENDMDL
MODEL 8
REMARK VINA RESULT:      -8.5      2.820      7.408
REMARK  Name = *****
REMARK                            x       y       z     vdW  Elec       q    Type
REMARK                         _______ _______ _______ _____ _____    ______ ____
ROOT
ATOM      1  C   LIG    1       25.351 -21.847   7.577  0.00  0.00    +0.084 C 
ATOM      2  C   LIG    1       24.036 -21.360   8.188  0.00  0.00    +0.027 C 
ENDROOT
BRANCH   1   3
ATOM      3  N   LIG    1       25.393 -23.336   7.500  0.00  0.00    -0.305 NA
ATOM      4  H   LIG    1       26.369 -23.623   7.609  0.00  0.00    +0.123 HD
BRANCH   3   6
ATOM      5  C   LIG    1       25.656 -25.159   5.848  0.00  0.00    +0.027 C 
ATOM      6  C   LIG    1       24.825 -23.932   6.262  0.00  0.00    +0.088 C 
BRANCH   6   7
ATOM      7  C   LIG    1       24.757 -22.947   5.076  0.00  0.00    +0.247 C 
BRANCH   7   8
ATOM      8  O   LIG    1       23.452 -22.345   4.952  0.00  0.00    -0.490 OA
BRANCH   8   9
ATOM      9  C   LIG    1       23.488 -21.009   4.638  0.00  0.00    +0.121 A 
ATOM     10  C   LIG    1       22.405 -20.213   5.011  0.00  0.00    +0.045 A 
ATOM     11  C   LIG    1       22.364 -18.868   4.613  0.00  0.00    +0.004 A 
ATOM     12  C   LIG    1       23.416 -18.321   3.862  0.00  0.00    +0.000 A 
ATOM     13  C   LIG    1       24.512 -19.102   3.543  0.00  0.00    +0.004 A 
ATOM     14  C   LIG    1       24.555 -20.427   3.939  0.00  0.00    +0.045 A 
ENDBRANCH   8   9
ENDBRANCH   7   8
ENDBRANCH   6   7
ENDBRANCH   3   6
ENDBRANCH   1   3
BRANCH   1  15
ATOM     15  C   LIG    1       26.564 -21.205   8.347  0.00  0.00    +0.161 C 
BRANCH  15  16
ATOM     16  C   LIG    1       27.559 -20.422   7.504  0.00  0.00    -0.018 A 
ATOM     17  C   LIG    1       27.307 -20.198   6.141  0.00  0.00    +0.010 A 
ATOM     18  C   LIG    1       28.166 -19.413   5.369  0.00  0.00    +0.046 A 
ATOM     19  C   LIG    1       29.291 -18.847   5.959  0.00  0.00    +0.117 A 
ATOM     20  C   LIG    1       29.586 -19.088   7.291  0.00  0.00    +0.046 A 
ATOM     21  C   LIG    1       28.725 -19.871   8.065  0.00  0.00    +0.010 A 
BRANCH  19  22
ATOM     22  O   LIG    1       30.080 -18.040   5.193  0.00  0.00    -0.507 OA
ATOM     23  H   LIG    1       29.720 -17.139   5.232  0.00  0.00    +0.292 HD
ENDBRANCH  19  22
ENDBRANCH  15  16
BRANCH  15  24
ATOM     24  O   LIG    1       26.057 -20.418   9.435  0.00  0.00    -0.386 OA
ATOM     25  H   LIG    1       25.164 -20.123   9.192  0.00  0.00    +0.210 HD
ENDBRANCH  15  24
ENDBRANCH   1  15
TORSDOF 9
ENDMDL
MODEL 9
REMARK VINA RESULT:      -8.5      2.550      4.365
REMARK  Name = *****
REMARK                            x       y       z     vdW  Elec       q    Type
REMARK                         _______ _______ _______ _____ _____    ______ ____
ROOT
ATOM      1  C   LIG    1       25.699 -23.471   6.577  0.00  0.00    +0.084 C 
ATOM      2  C   LIG    1       25.972 -24.962   6.787  0.00  0.00    +0.027 C 
ENDROOT
BRANCH   1   3
ATOM      3  N   LIG    1       25.549 -22.760   7.879  0.00  0.00    -0.305 NA
ATOM      4  H   LIG    1       24.623 -22.326   7.889  0.00  0.00    +0.123 HD
BRANCH   3   6
ATOM      5  C   LIG    1       25.926 -20.478   8.760  0.00  0.00    +0.027 C 
ATOM      6  C   LIG    1       26.589 -21.741   8.179  0.00  0.00    +0.088 C 
BRANCH   6   7
ATOM      7  C   LIG    1       27.437 -21.344   6.952  0.00  0.00    +0.247 C 
BRANCH   7   8
ATOM      8  O   LIG    1       28.830 -21.674   7.134  0.00  0.00    -0.490 OA
BRANCH   8   9
ATOM      9  C   LIG    1       29.585 -20.636   7.620  0.00  0.00    +0.121 A 
ATOM     10  C   LIG    1       29.279 -19.342   7.197  0.00  0.00    +0.045 A 
ATOM     11  C   LIG    1       30.096 -18.272   7.593  0.00  0.00    +0.004 A 
ATOM     12  C   LIG    1       31.201 -18.498   8.427  0.00  0.00    +0.000 A 
ATOM     13  C   LIG    1       31.466 -19.776   8.888  0.00  0.00    +0.004 A 
ATOM     14  C   LIG    1       30.658 -20.831   8.501  0.00  0.00    +0.045 A 
ENDBRANCH   8   9
ENDBRANCH   7   8
ENDBRANCH   6   7
ENDBRANCH   3   6
ENDBRANCH   1   3
BRANCH   1  15
ATOM     15  C   LIG    1       24.482 -23.288   5.596  0.00  0.00    +0.161 C 
BRANCH  15  16
ATOM     16  C   LIG    1       24.070 -21.855   5.294  0.00  0.00    -0.018 A 
ATOM     17  C   LIG    1       24.729 -21.128   4.291  0.00  0.00    +0.010 A 
ATOM     18  C   LIG    1       24.313 -19.842   3.941  0.00  0.00    +0.046 A 
ATOM     19  C   LIG    1       23.230 -19.270   4.601  0.00  0.00    +0.117 A 
ATOM     20  C   LIG    1       22.589 -19.950   5.624  0.00  0.00    +0.046 A 
ATOM     21  C   LIG    1       23.003 -21.238   5.972  0.00  0.00    +0.010 A 
BRANCH  19  22
ATOM     22  O   LIG    1       22.812 -18.036   4.200  0.00  0.00    -0.507 OA
ATOM     23  H   LIG    1       22.348 -18.134   3.352  0.00  0.00    +0.292 HD
ENDBRANCH  19  22
ENDBRANCH  15  16
BRANCH  15  24
ATOM     24  O   LIG    1       24.740 -24.029   4.395  0.00  0.00    -0.386 OA
ATOM     25  H   LIG    1       23.934 -24.528   4.179  0.00  0.00    +0.210 HD
ENDBRANCH  15  24
ENDBRANCH   1  15
TORSDOF 9
ENDMDL
