MODEL 1
REMARK VINA RESULT:      -8.3      0.000      0.000
REMARK  Name = *****
REMARK                            x       y       z     vdW  Elec       q    Type
REMARK                         _______ _______ _______ _____ _____    ______ ____
ROOT
ATOM      1  C   LIG    1       29.200 -20.752   7.523  0.00  0.00    +0.009 A 
ATOM      2  C   LIG    1       27.837 -21.093   7.556  0.00  0.00    +0.039 A 
ATOM      3  C   LIG    1       26.898 -20.629   6.601  0.00  0.00    +0.049 A 
ATOM      4  N   LIG    1       25.505 -20.954   6.655  0.00  0.00    -0.298 N 
ATOM      5  C   LIG    1       24.510 -20.499   5.735  0.00  0.00    +0.048 A 
ATOM      6  C   LIG    1       24.833 -19.673   4.635  0.00  0.00    +0.034 A 
ATOM      7  S   LIG    1       26.472 -19.116   4.259  0.00  0.00    -0.086 S 
ATOM      8  C   LIG    1       23.840 -19.227   3.739  0.00  0.00    +0.017 A 
ATOM      9  C   LIG    1       22.508 -19.578   3.901  0.00  0.00    +0.001 A 
ATOM     10  C   LIG    1       22.157 -20.383   4.972  0.00  0.00    +0.002 A 
ATOM     11  C   LIG    1       23.141 -20.828   5.861  0.00  0.00    +0.024 A 
ATOM     12  C   LIG    1       27.429 -19.804   5.584  0.00  0.00    +0.034 A 
ATOM     13  C   LIG    1       28.799 -19.471   5.545  0.00  0.00    +0.018 A 
ATOM     14  C   LIG    1       29.682 -19.940   6.508  0.00  0.00    +0.016 A 
ENDROOT
BRANCH   1  16
ATOM     15  C   LIG    1       31.356 -19.917   8.983  0.00  0.00    +0.090 C 
ATOM     16  S   LIG    1       30.319 -21.386   8.760  0.00  0.00    -0.129 S 
ENDBRANCH   1  16
BRANCH   4  17
ATOM     17  C   LIG    1       25.051 -21.880   7.731  0.00  0.00    +0.112 C 
BRANCH  17  18
ATOM     18  C   LIG    1       25.812 -23.217   7.680  0.00  0.00    +0.038 C 
BRANCH  18  19
ATOM     19  C   LIG    1       25.370 -24.183   6.546  0.00  0.00    +0.058 C 
ATOM     20  N   LIG    1       24.027 -24.789   6.750  0.00  0.00    -0.302 NA
ATOM     21  C   LIG    1       22.967 -23.771   6.807  0.00  0.00    +0.105 C 
ATOM     22  C   LIG    1       23.692 -25.733   5.664  0.00  0.00    +0.084 C 
ATOM     23  C   LIG    1       24.717 -26.854   5.543  0.00  0.00    +0.015 C 
ATOM     24  C   LIG    1       26.095 -26.279   5.267  0.00  0.00    +0.003 C 
ATOM     25  C   LIG    1       26.453 -25.270   6.350  0.00  0.00    +0.019 C 
ENDBRANCH  18  19
ENDBRANCH  17  18
ENDBRANCH   4  17
TORSDOF 4
ENDMDL
MODEL 2
REMARK VINA RESULT:      -7.3      2.176      5.660
REMARK  Name = *****
REMARK                            x       y       z     vdW  Elec       q    Type
REMARK                         _______ _______ _______ _____ _____    ______ ____
ROOT
ATOM      1  C   LIG    1       25.003 -24.579   6.398  0.00  0.00    +0.009 A 
ATOM      2  C   LIG    1       25.448 -23.342   5.899  0.00  0.00    +0.039 A 
ATOM      3  C   LIG    1       24.572 -22.272   5.589  0.00  0.00    +0.049 A 
ATOM      4  N   LIG    1       25.025 -21.024   5.053  0.00  0.00    -0.298 N 
ATOM      5  C   LIG    1       24.189 -19.919   4.703  0.00  0.00    +0.048 A 
ATOM      6  C   LIG    1       22.789 -19.956   4.884  0.00  0.00    +0.034 A 
ATOM      7  S   LIG    1       21.911 -21.338   5.560  0.00  0.00    -0.086 S 
ATOM      8  C   LIG    1       21.976 -18.859   4.529  0.00  0.00    +0.017 A 
ATOM      9  C   LIG    1       22.516 -17.703   3.985  0.00  0.00    +0.001 A 
ATOM     10  C   LIG    1       23.886 -17.636   3.790  0.00  0.00    +0.002 A 
ATOM     11  C   LIG    1       24.694 -18.722   4.144  0.00  0.00    +0.024 A 
ATOM     12  C   LIG    1       23.204 -22.520   5.837  0.00  0.00    +0.034 A 
ATOM     13  C   LIG    1       22.759 -23.757   6.349  0.00  0.00    +0.018 A 
ATOM     14  C   LIG    1       23.652 -24.783   6.628  0.00  0.00    +0.016 A 
ENDROOT
BRANCH   1  16
ATOM     15  C   LIG    1       26.079 -26.796   5.212  0.00  0.00    +0.090 C 
ATOM     16  S   LIG    1       26.173 -25.875   6.770  0.00  0.00    -0.129 S 
ENDBRANCH   1  16
BRANCH   4  17
ATOM     17  C   LIG    1       26.493 -20.835   4.883  0.00  0.00    +0.112 C 
BRANCH  17  18
ATOM     18  C   LIG    1       27.065 -19.888   5.953  0.00  0.00    +0.038 C 
BRANCH  18  19
ATOM     19  C   LIG    1       28.503 -20.230   6.433  0.00  0.00    +0.058 C 
ATOM     20  N   LIG    1       28.591 -20.624   7.865  0.00  0.00    -0.302 NA
ATOM     21  C   LIG    1       27.804 -21.833   8.152  0.00  0.00    +0.105 C 
ATOM     22  C   LIG    1       29.988 -20.886   8.267  0.00  0.00    +0.084 C 
ATOM     23  C   LIG    1       30.886 -19.675   8.040  0.00  0.00    +0.015 C 
ATOM     24  C   LIG    1       30.876 -19.280   6.575  0.00  0.00    +0.003 C 
ATOM     25  C   LIG    1       29.444 -19.042   6.119  0.00  0.00    +0.019 C 
ENDBRANCH  18  19
ENDBRANCH  17  18
ENDBRANCH   4  17
TORSDOF 4
ENDMDL
MODEL 3
REMARK VINA RESULT:      -7.2      1.625      5.294
REMARK  Name = *****
REMARK                            x       y       z     vdW  Elec       q    Type
REMARK                         _______ _______ _______ _____ _____    ______ ____
ROOT
ATOM      1  C   LIG    1       24.952 -19.891   4.506  0.00  0.00    +0.009 A 
ATOM      2  C   LIG    1       25.661 -20.389   5.613  0.00  0.00    +0.039 A 
ATOM      3  C   LIG    1       26.989 -19.999   5.922  0.00  0.00    +0.049 A 
ATOM      4  N   LIG    1       27.718 -20.530   7.034  0.00  0.00    -0.298 N 
ATOM      5  C   LIG    1       29.063 -20.193   7.382  0.00  0.00    +0.048 A 
ATOM      6  C   LIG    1       29.811 -19.251   6.642  0.00  0.00    +0.034 A 
ATOM      7  S   LIG    1       29.191 -18.381   5.227  0.00  0.00    -0.086 S 
ATOM      8  C   LIG    1       31.138 -18.931   6.994  0.00  0.00    +0.017 A 
ATOM      9  C   LIG    1       31.765 -19.530   8.076  0.00  0.00    +0.001 A 
ATOM     10  C   LIG    1       31.061 -20.462   8.821  0.00  0.00    +0.002 A 
ATOM     11  C   LIG    1       29.742 -20.779   8.475  0.00  0.00    +0.024 A 
ATOM     12  C   LIG    1       27.559 -19.049   5.047  0.00  0.00    +0.034 A 
ATOM     13  C   LIG    1       26.843 -18.541   3.942  0.00  0.00    +0.018 A 
ATOM     14  C   LIG    1       25.547 -18.959   3.670  0.00  0.00    +0.016 A 
ENDROOT
BRANCH   1  16
ATOM     15  C   LIG    1       22.405 -18.906   4.645  0.00  0.00    +0.090 C 
ATOM     16  S   LIG    1       23.279 -20.427   4.191  0.00  0.00    -0.129 S 
ENDBRANCH   1  16
BRANCH   4  17
ATOM     17  C   LIG    1       27.011 -21.483   7.935  0.00  0.00    +0.112 C 
BRANCH  17  18
ATOM     18  C   LIG    1       26.797 -22.847   7.255  0.00  0.00    +0.038 C 
BRANCH  18  19
ATOM     19  C   LIG    1       25.352 -23.412   7.355  0.00  0.00    +0.058 C 
ATOM     20  N   LIG    1       24.995 -24.368   6.273  0.00  0.00    -0.302 NA
ATOM     21  C   LIG    1       25.861 -25.557   6.282  0.00  0.00    +0.105 C 
ATOM     22  C   LIG    1       23.595 -24.826   6.400  0.00  0.00    +0.084 C 
ATOM     23  C   LIG    1       22.608 -23.665   6.368  0.00  0.00    +0.015 C 
ATOM     24  C   LIG    1       22.899 -22.696   7.500  0.00  0.00    +0.003 C 
ATOM     25  C   LIG    1       24.348 -22.237   7.421  0.00  0.00    +0.019 C 
ENDBRANCH  18  19
ENDBRANCH  17  18
ENDBRANCH   4  17
TORSDOF 4
ENDMDL
MODEL 4
REMARK VINA RESULT:      -7.0      1.429      4.973
REMARK  Name = *****
REMARK                            x       y       z     vdW  Elec       q    Type
REMARK                         _______ _______ _______ _____ _____    ______ ____
ROOT
ATOM      1  C   LIG    1       24.595 -20.107   4.685  0.00  0.00    +0.009 A 
ATOM      2  C   LIG    1       25.300 -20.707   5.743  0.00  0.00    +0.039 A 
ATOM      3  C   LIG    1       26.651 -20.402   6.045  0.00  0.00    +0.049 A 
ATOM      4  N   LIG    1       27.375 -21.036   7.104  0.00  0.00    -0.298 N 
ATOM      5  C   LIG    1       28.742 -20.787   7.441  0.00  0.00    +0.048 A 
ATOM      6  C   LIG    1       29.521 -19.838   6.743  0.00  0.00    +0.034 A 
ATOM      7  S   LIG    1       28.917 -18.853   5.400  0.00  0.00    -0.086 S 
ATOM      8  C   LIG    1       30.869 -19.606   7.083  0.00  0.00    +0.017 A 
ATOM      9  C   LIG    1       31.487 -20.300   8.113  0.00  0.00    +0.001 A 
ATOM     10  C   LIG    1       30.752 -21.242   8.814  0.00  0.00    +0.002 A 
ATOM     11  C   LIG    1       29.413 -21.472   8.480  0.00  0.00    +0.024 A 
ATOM     12  C   LIG    1       27.250 -19.428   5.216  0.00  0.00    +0.034 A 
ATOM     13  C   LIG    1       26.538 -18.818   4.161  0.00  0.00    +0.018 A 
ATOM     14  C   LIG    1       25.218 -19.154   3.895  0.00  0.00    +0.016 A 
ENDROOT
BRANCH   1  16
ATOM     15  C   LIG    1       22.161 -18.883   4.444  0.00  0.00    +0.090 C 
ATOM     16  S   LIG    1       22.891 -20.541   4.377  0.00  0.00    -0.129 S 
ENDBRANCH   1  16
BRANCH   4  17
ATOM     17  C   LIG    1       26.639 -22.008   7.962  0.00  0.00    +0.112 C 
BRANCH  17  18
ATOM     18  C   LIG    1       25.217 -22.263   7.430  0.00  0.00    +0.038 C 
BRANCH  18  19
ATOM     19  C   LIG    1       25.047 -23.572   6.610  0.00  0.00    +0.058 C 
ATOM     20  N   LIG    1       23.796 -24.319   6.906  0.00  0.00    -0.302 NA
ATOM     21  C   LIG    1       22.596 -23.526   6.596  0.00  0.00    +0.105 C 
ATOM     22  C   LIG    1       23.722 -25.575   6.132  0.00  0.00    +0.084 C 
ATOM     23  C   LIG    1       24.910 -26.489   6.409  0.00  0.00    +0.015 C 
ATOM     24  C   LIG    1       26.208 -25.785   6.057  0.00  0.00    +0.003 C 
ATOM     25  C   LIG    1       26.295 -24.465   6.810  0.00  0.00    +0.019 C 
ENDBRANCH  18  19
ENDBRANCH  17  18
ENDBRANCH   4  17
TORSDOF 4
ENDMDL
MODEL 5
REMARK VINA RESULT:      -6.8      6.228      9.945
REMARK  Name = *****
REMARK                            x       y       z     vdW  Elec       q    Type
REMARK                         _______ _______ _______ _____ _____    ______ ____
ROOT
ATOM      1  C   LIG    1       25.335 -26.558   6.530  0.00  0.00    +0.009 A 
ATOM      2  C   LIG    1       25.768 -27.398   7.570  0.00  0.00    +0.039 A 
ATOM      3  C   LIG    1       25.474 -28.784   7.621  0.00  0.00    +0.049 A 
ATOM      4  N   LIG    1       25.892 -29.630   8.697  0.00  0.00    -0.298 N 
ATOM      5  C   LIG    1       25.608 -31.027   8.813  0.00  0.00    +0.048 A 
ATOM      6  C   LIG    1       24.880 -31.724   7.824  0.00  0.00    +0.034 A 
ATOM      7  S   LIG    1       24.248 -30.979   6.346  0.00  0.00    -0.086 S 
ATOM      8  C   LIG    1       24.603 -33.100   7.955  0.00  0.00    +0.017 A 
ATOM      9  C   LIG    1       25.030 -33.824   9.058  0.00  0.00    +0.001 A 
ATOM     10  C   LIG    1       25.742 -33.169  10.048  0.00  0.00    +0.002 A 
ATOM     11  C   LIG    1       26.020 -31.803   9.920  0.00  0.00    +0.024 A 
ATOM     12  C   LIG    1       24.724 -29.282   6.533  0.00  0.00    +0.034 A 
ATOM     13  C   LIG    1       24.299 -28.441   5.484  0.00  0.00    +0.018 A 
ATOM     14  C   LIG    1       24.600 -27.086   5.480  0.00  0.00    +0.016 A 
ENDROOT
BRANCH   1  16
ATOM     15  C   LIG    1       24.082 -24.128   6.601  0.00  0.00    +0.090 C 
ATOM     16  S   LIG    1       25.755 -24.823   6.537  0.00  0.00    -0.129 S 
ENDBRANCH   1  16
BRANCH   4  17
ATOM     17  C   LIG    1       26.731 -29.025   9.770  0.00  0.00    +0.112 C 
BRANCH  17  18
ATOM     18  C   LIG    1       25.885 -28.648  10.999  0.00  0.00    +0.038 C 
BRANCH  18  19
ATOM     19  C   LIG    1       26.698 -28.180  12.238  0.00  0.00    +0.058 C 
ATOM     20  N   LIG    1       26.384 -28.919  13.490  0.00  0.00    -0.302 NA
ATOM     21  C   LIG    1       26.682 -30.354  13.369  0.00  0.00    +0.105 C 
ATOM     22  C   LIG    1       27.154 -28.391  14.635  0.00  0.00    +0.084 C 
ATOM     23  C   LIG    1       26.888 -26.908  14.867  0.00  0.00    +0.015 C 
ATOM     24  C   LIG    1       27.260 -26.107  13.633  0.00  0.00    +0.003 C 
ATOM     25  C   LIG    1       26.512 -26.655  12.425  0.00  0.00    +0.019 C 
ENDBRANCH  18  19
ENDBRANCH  17  18
ENDBRANCH   4  17
TORSDOF 4
ENDMDL
MODEL 6
REMARK VINA RESULT:      -6.7      7.987     10.456
REMARK  Name = *****
REMARK                            x       y       z     vdW  Elec       q    Type
REMARK                         _______ _______ _______ _____ _____    ______ ____
ROOT
ATOM      1  C   LIG    1       22.225 -30.591  11.181  0.00  0.00    +0.009 A 
ATOM      2  C   LIG    1       23.521 -30.064  11.323  0.00  0.00    +0.039 A 
ATOM      3  C   LIG    1       23.803 -28.890  12.066  0.00  0.00    +0.049 A 
ATOM      4  N   LIG    1       25.119 -28.340  12.183  0.00  0.00    -0.298 N 
ATOM      5  C   LIG    1       25.460 -27.150  12.899  0.00  0.00    +0.048 A 
ATOM      6  C   LIG    1       24.492 -26.397  13.599  0.00  0.00    +0.034 A 
ATOM      7  S   LIG    1       22.775 -26.824  13.686  0.00  0.00    -0.086 S 
ATOM      8  C   LIG    1       24.843 -25.223  14.296  0.00  0.00    +0.017 A 
ATOM      9  C   LIG    1       26.149 -24.758  14.321  0.00  0.00    +0.001 A 
ATOM     10  C   LIG    1       27.122 -25.470  13.641  0.00  0.00    +0.002 A 
ATOM     11  C   LIG    1       26.777 -26.637  12.950  0.00  0.00    +0.024 A 
ATOM     12  C   LIG    1       22.687 -28.283  12.682  0.00  0.00    +0.034 A 
ATOM     13  C   LIG    1       21.389 -28.819  12.550  0.00  0.00    +0.018 A 
ATOM     14  C   LIG    1       21.156 -29.966  11.803  0.00  0.00    +0.016 A 
ENDROOT
BRANCH   1  16
ATOM     15  C   LIG    1       20.146 -32.136  10.305  0.00  0.00    +0.090 C 
ATOM     16  S   LIG    1       21.956 -32.080  10.234  0.00  0.00    -0.129 S 
ENDBRANCH   1  16
BRANCH   4  17
ATOM     17  C   LIG    1       26.242 -29.085  11.546  0.00  0.00    +0.112 C 
BRANCH  17  18
ATOM     18  C   LIG    1       26.477 -28.617  10.099  0.00  0.00    +0.038 C 
BRANCH  18  19
ATOM     19  C   LIG    1       26.536 -29.754   9.041  0.00  0.00    +0.058 C 
ATOM     20  N   LIG    1       25.333 -29.841   8.171  0.00  0.00    -0.302 NA
ATOM     21  C   LIG    1       25.132 -28.613   7.387  0.00  0.00    +0.105 C 
ATOM     22  C   LIG    1       25.433 -30.972   7.225  0.00  0.00    +0.084 C 
ATOM     23  C   LIG    1       25.610 -32.305   7.944  0.00  0.00    +0.015 C 
ATOM     24  C   LIG    1       26.866 -32.281   8.795  0.00  0.00    +0.003 C 
ATOM     25  C   LIG    1       26.812 -31.100   9.754  0.00  0.00    +0.019 C 
ENDBRANCH  18  19
ENDBRANCH  17  18
ENDBRANCH   4  17
TORSDOF 4
ENDMDL
MODEL 7
REMARK VINA RESULT:      -6.7      6.007      9.704
REMARK  Name = *****
REMARK                            x       y       z     vdW  Elec       q    Type
REMARK                         _______ _______ _______ _____ _____    ______ ____
ROOT
ATOM      1  C   LIG    1       25.314 -26.488   6.576  0.00  0.00    +0.009 A 
ATOM      2  C   LIG    1       25.804 -27.366   7.558  0.00  0.00    +0.039 A 
ATOM      3  C   LIG    1       25.491 -28.748   7.587  0.00  0.00    +0.049 A 
ATOM      4  N   LIG    1       25.968 -29.634   8.605  0.00  0.00    -0.298 N 
ATOM      5  C   LIG    1       25.670 -31.029   8.698  0.00  0.00    +0.048 A 
ATOM      6  C   LIG    1       24.864 -31.685   7.742  0.00  0.00    +0.034 A 
ATOM      7  S   LIG    1       24.145 -30.885   6.333  0.00  0.00    -0.086 S 
ATOM      8  C   LIG    1       24.574 -33.061   7.849  0.00  0.00    +0.017 A 
ATOM      9  C   LIG    1       25.064 -33.825   8.898  0.00  0.00    +0.001 A 
ATOM     10  C   LIG    1       25.853 -33.211   9.856  0.00  0.00    +0.002 A 
ATOM     11  C   LIG    1       26.145 -31.846   9.750  0.00  0.00    +0.024 A 
ATOM     12  C   LIG    1       24.660 -29.201   6.539  0.00  0.00    +0.034 A 
ATOM     13  C   LIG    1       24.178 -28.322   5.547  0.00  0.00    +0.018 A 
ATOM     14  C   LIG    1       24.501 -26.972   5.563  0.00  0.00    +0.016 A 
ENDROOT
BRANCH   1  16
ATOM     15  C   LIG    1       24.100 -24.038   6.621  0.00  0.00    +0.090 C 
ATOM     16  S   LIG    1       25.762 -24.760   6.606  0.00  0.00    -0.129 S 
ENDBRANCH   1  16
BRANCH   4  17
ATOM     17  C   LIG    1       26.889 -29.075   9.635  0.00  0.00    +0.112 C 
BRANCH  17  18
ATOM     18  C   LIG    1       26.437 -29.453  11.057  0.00  0.00    +0.038 C 
BRANCH  18  19
ATOM     19  C   LIG    1       25.244 -28.625  11.610  0.00  0.00    +0.058 C 
ATOM     20  N   LIG    1       25.550 -27.869  12.854  0.00  0.00    -0.302 NA
ATOM     21  C   LIG    1       26.623 -26.885  12.648  0.00  0.00    +0.105 C 
ATOM     22  C   LIG    1       24.361 -27.147  13.351  0.00  0.00    +0.084 C 
ATOM     23  C   LIG    1       23.195 -28.088  13.630  0.00  0.00    +0.015 C 
ATOM     24  C   LIG    1       22.807 -28.833  12.366  0.00  0.00    +0.003 C 
ATOM     25  C   LIG    1       24.023 -29.556  11.805  0.00  0.00    +0.019 C 
ENDBRANCH  18  19
ENDBRANCH  17  18
ENDBRANCH   4  17
TORSDOF 4
ENDMDL
MODEL 8
REMARK VINA RESULT:      -6.5      8.111     10.026
REMARK  Name = *****
REMARK                            x       y       z     vdW  Elec       q    Type
REMARK                         _______ _______ _______ _____ _____    ______ ____
ROOT
ATOM      1  C   LIG    1       24.998 -26.387  13.709  0.00  0.00    +0.009 A 
ATOM      2  C   LIG    1       25.127 -27.541  12.916  0.00  0.00    +0.039 A 
ATOM      3  C   LIG    1       24.019 -28.319  12.497  0.00  0.00    +0.049 A 
ATOM      4  N   LIG    1       24.156 -29.511  11.715  0.00  0.00    -0.298 N 
ATOM      5  C   LIG    1       23.080 -30.347  11.281  0.00  0.00    +0.048 A 
ATOM      6  C   LIG    1       21.734 -30.044  11.579  0.00  0.00    +0.034 A 
ATOM      7  S   LIG    1       21.216 -28.621  12.499  0.00  0.00    -0.086 S 
ATOM      8  C   LIG    1       20.683 -30.881  11.149  0.00  0.00    +0.017 A 
ATOM      9  C   LIG    1       20.929 -32.034  10.419  0.00  0.00    +0.001 A 
ATOM     10  C   LIG    1       22.239 -32.362  10.113  0.00  0.00    +0.002 A 
ATOM     11  C   LIG    1       23.283 -31.533  10.537  0.00  0.00    +0.024 A 
ATOM     12  C   LIG    1       22.756 -27.846  12.912  0.00  0.00    +0.034 A 
ATOM     13  C   LIG    1       22.626 -26.681  13.698  0.00  0.00    +0.018 A 
ATOM     14  C   LIG    1       23.740 -25.954  14.096  0.00  0.00    +0.016 A 
ENDROOT
BRANCH   1  16
ATOM     15  C   LIG    1       25.625 -23.980  14.847  0.00  0.00    +0.090 C 
ATOM     16  S   LIG    1       26.444 -25.457  14.189  0.00  0.00    -0.129 S 
ENDBRANCH   1  16
BRANCH   4  17
ATOM     17  C   LIG    1       25.526 -29.897  11.274  0.00  0.00    +0.112 C 
BRANCH  17  18
ATOM     18  C   LIG    1       25.926 -29.168   9.978  0.00  0.00    +0.038 C 
BRANCH  18  19
ATOM     19  C   LIG    1       26.248 -30.097   8.774  0.00  0.00    +0.058 C 
ATOM     20  N   LIG    1       25.137 -30.234   7.795  0.00  0.00    -0.302 NA
ATOM     21  C   LIG    1       24.779 -28.944   7.186  0.00  0.00    +0.105 C 
ATOM     22  C   LIG    1       25.491 -31.168   6.706  0.00  0.00    +0.084 C 
ATOM     23  C   LIG    1       25.848 -32.552   7.233  0.00  0.00    +0.015 C 
ATOM     24  C   LIG    1       27.024 -32.465   8.188  0.00  0.00    +0.003 C 
ATOM     25  C   LIG    1       26.705 -31.478   9.302  0.00  0.00    +0.019 C 
ENDBRANCH  18  19
ENDBRANCH  17  18
ENDBRANCH   4  17
TORSDOF 4
ENDMDL
MODEL 9
REMARK VINA RESULT:      -6.5      8.309     11.094
REMARK  Name = *****
REMARK                            x       y       z     vdW  Elec       q    Type
REMARK                         _______ _______ _______ _____ _____    ______ ____
ROOT
ATOM      1  C   LIG    1       20.261 -30.874  11.663  0.00  0.00    +0.009 A 
ATOM      2  C   LIG    1       21.576 -30.804  11.172  0.00  0.00    +0.039 A 
ATOM      3  C   LIG    1       22.549 -29.911  11.689  0.00  0.00    +0.049 A 
ATOM      4  N   LIG    1       23.879 -29.821  11.166  0.00  0.00    -0.298 N 
ATOM      5  C   LIG    1       24.894 -28.928  11.631  0.00  0.00    +0.048 A 
ATOM      6  C   LIG    1       24.670 -28.038  12.704  0.00  0.00    +0.034 A 
ATOM      7  S   LIG    1       23.144 -27.921  13.596  0.00  0.00    -0.086 S 
ATOM      8  C   LIG    1       25.680 -27.159  13.148  0.00  0.00    +0.017 A 
ATOM      9  C   LIG    1       26.930 -27.130  12.549  0.00  0.00    +0.001 A 
ATOM     10  C   LIG    1       27.181 -27.988  11.491  0.00  0.00    +0.002 A 
ATOM     11  C   LIG    1       26.182 -28.862  11.050  0.00  0.00    +0.024 A 
ATOM     12  C   LIG    1       22.115 -29.098  12.758  0.00  0.00    +0.034 A 
ATOM     13  C   LIG    1       20.799 -29.178  13.259  0.00  0.00    +0.018 A 
ATOM     14  C   LIG    1       19.874 -30.059  12.716  0.00  0.00    +0.016 A 
ENDROOT
BRANCH   1  16
ATOM     15  C   LIG    1       20.261 -33.099  10.072  0.00  0.00    +0.090 C 
ATOM     16  S   LIG    1       19.097 -32.032  10.962  0.00  0.00    -0.129 S 
ENDBRANCH   1  16
BRANCH   4  17
ATOM     17  C   LIG    1       24.261 -30.762  10.076  0.00  0.00    +0.112 C 
BRANCH  17  18
ATOM     18  C   LIG    1       24.009 -30.146   8.688  0.00  0.00    +0.038 C 
BRANCH  18  19
ATOM     19  C   LIG    1       25.093 -30.465   7.621  0.00  0.00    +0.058 C 
ATOM     20  N   LIG    1       24.602 -30.416   6.218  0.00  0.00    -0.302 NA
ATOM     21  C   LIG    1       24.104 -29.081   5.856  0.00  0.00    +0.105 C 
ATOM     22  C   LIG    1       25.669 -30.778   5.261  0.00  0.00    +0.084 C 
ATOM     23  C   LIG    1       26.232 -32.168   5.531  0.00  0.00    +0.015 C 
ATOM     24  C   LIG    1       26.805 -32.240   6.934  0.00  0.00    +0.003 C 
ATOM     25  C   LIG    1       25.740 -31.833   7.943  0.00  0.00    +0.019 C 
ENDBRANCH  18  19
ENDBRANCH  17  18
ENDBRANCH   4  17
TORSDOF 4
ENDMDL
