MODEL 1
REMARK VINA RESULT:      -2.9      0.000      0.000
REMARK  Name = *****
REMARK                            x       y       z     vdW  Elec       q    Type
REMARK                         _______ _______ _______ _____ _____    ______ ____
ROOT
ATOM      1  C   LIG    1       23.915 -18.550   4.074  0.00  0.00    +0.011 C 
ATOM      2  C   LIG    1       22.726 -18.803   3.030  0.00  0.00    +0.013 C 
ATOM      3  C   LIG    1       21.697 -18.415   4.094  0.00  0.00    +0.002 C 
ATOM      4  C   LIG    1       22.767 -18.572   5.165  0.00  0.00    +0.013 C 
ENDROOT
BRANCH   1   5
ATOM      5  C   LIG    1       24.621 -17.096   3.778  0.00  0.00    -0.040 A 
ATOM      6  C   LIG    1       25.940 -16.954   3.322  0.00  0.00    +0.006 A 
ATOM      7  C   LIG    1       26.562 -15.707   3.174  0.00  0.00    +0.020 A 
ATOM      8  C   LIG    1       25.864 -14.548   3.531  0.00  0.00    +0.041 A 
ATOM      9 CL   LIG    1       26.639 -13.017   3.404  0.00  0.00    -0.084 Cl
ATOM     10  C   LIG    1       24.570 -14.636   3.993  0.00  0.00    +0.020 A 
ATOM     11  C   LIG    1       23.948 -15.885   4.097  0.00  0.00    +0.006 A 
ENDBRANCH   1   5
BRANCH   1  12
ATOM     12  C   LIG    1       24.953 -19.762   4.259  0.00  0.00    +0.067 C 
BRANCH  12  13
ATOM     13  N   LIG    1       24.392 -21.139   4.234  0.00  0.00    -0.305 NA
ATOM     14  C   LIG    1       23.787 -21.571   2.982  0.00  0.00    +0.105 C 
ATOM     15  C   LIG    1       23.590 -21.571   5.368  0.00  0.00    +0.105 C 
ENDBRANCH  12  13
BRANCH  12  16
ATOM     16  C   LIG    1       25.892 -19.535   5.491  0.00  0.00    +0.022 C 
BRANCH  16  18
ATOM     17  C   LIG    1       28.398 -19.651   5.763  0.00  0.00    +0.007 C 
ATOM     18  C   LIG    1       27.108 -20.491   5.732  0.00  0.00    -0.016 C 
ATOM     19  C   LIG    1       27.089 -21.353   7.000  0.00  0.00    +0.007 C 
ENDBRANCH  16  18
ENDBRANCH  12  16
ENDBRANCH   1  12
TORSDOF 5
ENDMDL
MODEL 2
REMARK VINA RESULT:      -1.8      3.404      6.489
REMARK  Name = *****
REMARK                            x       y       z     vdW  Elec       q    Type
REMARK                         _______ _______ _______ _____ _____    ______ ____
ROOT
ATOM      1  C   LIG    1       26.504 -14.459   3.552  0.00  0.00    +0.011 C 
ATOM      2  C   LIG    1       27.377 -13.905   2.327  0.00  0.00    +0.013 C 
ATOM      3  C   LIG    1       28.376 -13.287   3.308  0.00  0.00    +0.002 C 
ATOM      4  C   LIG    1       27.358 -13.452   4.427  0.00  0.00    +0.013 C 
ENDROOT
BRANCH   1   5
ATOM      5  C   LIG    1       26.800 -16.060   3.773  0.00  0.00    -0.040 A 
ATOM      6  C   LIG    1       25.908 -17.072   3.388  0.00  0.00    +0.006 A 
ATOM      7  C   LIG    1       26.127 -18.426   3.677  0.00  0.00    +0.020 A 
ATOM      8  C   LIG    1       27.258 -18.795   4.414  0.00  0.00    +0.041 A 
ATOM      9 CL   LIG    1       27.506 -20.447   4.820  0.00  0.00    -0.084 Cl
ATOM     10  C   LIG    1       28.158 -17.836   4.822  0.00  0.00    +0.020 A 
ATOM     11  C   LIG    1       27.948 -16.493   4.491  0.00  0.00    +0.006 A 
ENDBRANCH   1   5
BRANCH   1  12
ATOM     12  C   LIG    1       24.944 -14.073   3.529  0.00  0.00    +0.067 C 
BRANCH  12  13
ATOM     13  N   LIG    1       24.602 -12.674   3.159  0.00  0.00    -0.305 NA
ATOM     14  C   LIG    1       23.834 -11.913   4.135  0.00  0.00    +0.105 C 
ATOM     15  C   LIG    1       24.114 -12.422   1.812  0.00  0.00    +0.105 C 
ENDBRANCH  12  13
BRANCH  12  16
ATOM     16  C   LIG    1       24.219 -14.525   4.841  0.00  0.00    +0.022 C 
BRANCH  16  18
ATOM     17  C   LIG    1       22.960 -16.624   4.230  0.00  0.00    +0.007 C 
ATOM     18  C   LIG    1       22.803 -15.187   4.761  0.00  0.00    -0.016 C 
ATOM     19  C   LIG    1       21.984 -15.262   6.056  0.00  0.00    +0.007 C 
ENDBRANCH  16  18
ENDBRANCH  12  16
ENDBRANCH   1  12
TORSDOF 5
ENDMDL
MODEL 3
REMARK VINA RESULT:      -1.6      1.123      1.699
REMARK  Name = *****
REMARK                            x       y       z     vdW  Elec       q    Type
REMARK                         _______ _______ _______ _____ _____    ______ ____
ROOT
ATOM      1  C   LIG    1       24.813 -19.366   4.112  0.00  0.00    +0.011 C 
ATOM      2  C   LIG    1       24.284 -20.081   2.778  0.00  0.00    +0.013 C 
ATOM      3  C   LIG    1       22.837 -19.865   3.226  0.00  0.00    +0.002 C 
ATOM      4  C   LIG    1       23.331 -19.570   4.635  0.00  0.00    +0.013 C 
ENDROOT
BRANCH   1   5
ATOM      5  C   LIG    1       25.269 -17.823   3.778  0.00  0.00    -0.040 A 
ATOM      6  C   LIG    1       26.591 -17.454   3.484  0.00  0.00    +0.006 A 
ATOM      7  C   LIG    1       26.983 -16.120   3.305  0.00  0.00    +0.020 A 
ATOM      8  C   LIG    1       26.037 -15.101   3.462  0.00  0.00    +0.041 A 
ATOM      9 CL   LIG    1       26.522 -13.459   3.297  0.00  0.00    -0.084 Cl
ATOM     10  C   LIG    1       24.729 -15.414   3.759  0.00  0.00    +0.020 A 
ATOM     11  C   LIG    1       24.343 -16.751   3.896  0.00  0.00    +0.006 A 
ENDBRANCH   1   5
BRANCH   1  12
ATOM     12  C   LIG    1       25.882 -20.199   4.974  0.00  0.00    +0.067 C 
BRANCH  12  13
ATOM     13  N   LIG    1       25.342 -21.120   6.010  0.00  0.00    -0.305 NA
ATOM     14  C   LIG    1       24.036 -20.783   6.560  0.00  0.00    +0.105 C 
ATOM     15  C   LIG    1       26.241 -21.572   7.060  0.00  0.00    +0.105 C 
ENDBRANCH  12  13
BRANCH  12  16
ATOM     16  C   LIG    1       27.009 -19.274   5.545  0.00  0.00    +0.022 C 
BRANCH  16  18
ATOM     17  C   LIG    1       29.410 -18.507   5.667  0.00  0.00    +0.007 C 
ATOM     18  C   LIG    1       28.503 -19.738   5.487  0.00  0.00    -0.016 C 
ATOM     19  C   LIG    1       28.955 -20.795   6.503  0.00  0.00    +0.007 C 
ENDBRANCH  16  18
ENDBRANCH  12  16
ENDBRANCH   1  12
TORSDOF 5
ENDMDL
MODEL 4
REMARK VINA RESULT:      -1.3      1.401      3.042
REMARK  Name = *****
REMARK                            x       y       z     vdW  Elec       q    Type
REMARK                         _______ _______ _______ _____ _____    ______ ____
ROOT
ATOM      1  C   LIG    1       25.002 -19.427   3.835  0.00  0.00    +0.011 C 
ATOM      2  C   LIG    1       25.661 -20.057   2.516  0.00  0.00    +0.013 C 
ATOM      3  C   LIG    1       24.271 -20.389   1.970  0.00  0.00    +0.002 C 
ATOM      4  C   LIG    1       23.689 -20.174   3.359  0.00  0.00    +0.013 C 
ENDROOT
BRANCH   1   5
ATOM      5  C   LIG    1       24.995 -17.787   3.730  0.00  0.00    -0.040 A 
ATOM      6  C   LIG    1       26.119 -17.030   3.365  0.00  0.00    +0.006 A 
ATOM      7  C   LIG    1       26.127 -15.629   3.382  0.00  0.00    +0.020 A 
ATOM      8  C   LIG    1       24.988 -14.943   3.816  0.00  0.00    +0.041 A 
ATOM      9 CL   LIG    1       25.008 -13.225   3.892  0.00  0.00    -0.084 Cl
ATOM     10  C   LIG    1       23.863 -15.643   4.193  0.00  0.00    +0.020 A 
ATOM     11  C   LIG    1       23.855 -17.040   4.133  0.00  0.00    +0.006 A 
ENDBRANCH   1   5
BRANCH   1  12
ATOM     12  C   LIG    1       25.554 -19.997   5.232  0.00  0.00    +0.067 C 
BRANCH  12  13
ATOM     13  N   LIG    1       27.030 -20.123   5.372  0.00  0.00    -0.305 NA
ATOM     14  C   LIG    1       27.510 -20.917   6.495  0.00  0.00    +0.105 C 
ATOM     15  C   LIG    1       27.839 -18.926   5.206  0.00  0.00    +0.105 C 
ENDBRANCH  12  13
BRANCH  12  16
ATOM     16  C   LIG    1       24.812 -21.309   5.654  0.00  0.00    +0.022 C 
BRANCH  16  18
ATOM     17  C   LIG    1       23.337 -19.796   7.033  0.00  0.00    +0.007 C 
ATOM     18  C   LIG    1       23.483 -21.224   6.475  0.00  0.00    -0.016 C 
ATOM     19  C   LIG    1       22.178 -21.568   5.746  0.00  0.00    +0.007 C 
ENDBRANCH  16  18
ENDBRANCH  12  16
ENDBRANCH   1  12
TORSDOF 5
ENDMDL
MODEL 5
REMARK VINA RESULT:      -1.2      1.434      3.588
REMARK  Name = *****
REMARK                            x       y       z     vdW  Elec       q    Type
REMARK                         _______ _______ _______ _____ _____    ______ ____
ROOT
ATOM      1  C   LIG    1       24.559 -19.010   4.095  0.00  0.00    +0.011 C 
ATOM      2  C   LIG    1       25.990 -19.625   3.716  0.00  0.00    +0.013 C 
ATOM      3  C   LIG    1       25.441 -20.093   2.367  0.00  0.00    +0.002 C 
ATOM      4  C   LIG    1       24.026 -19.882   2.885  0.00  0.00    +0.013 C 
ENDROOT
BRANCH   1   5
ATOM      5  C   LIG    1       24.574 -17.381   3.878  0.00  0.00    -0.040 A 
ATOM      6  C   LIG    1       25.700 -16.669   3.437  0.00  0.00    +0.006 A 
ATOM      7  C   LIG    1       25.730 -15.270   3.357  0.00  0.00    +0.020 A 
ATOM      8  C   LIG    1       24.611 -14.538   3.768  0.00  0.00    +0.041 A 
ATOM      9 CL   LIG    1       24.658 -12.819   3.724  0.00  0.00    -0.084 Cl
ATOM     10  C   LIG    1       23.485 -15.191   4.217  0.00  0.00    +0.020 A 
ATOM     11  C   LIG    1       23.455 -16.589   4.253  0.00  0.00    +0.006 A 
ENDBRANCH   1   5
BRANCH   1  12
ATOM     12  C   LIG    1       23.946 -19.482   5.503  0.00  0.00    +0.067 C 
BRANCH  12  13
ATOM     13  N   LIG    1       24.487 -20.739   6.086  0.00  0.00    -0.305 NA
ATOM     14  C   LIG    1       23.551 -21.559   6.844  0.00  0.00    +0.105 C 
ATOM     15  C   LIG    1       25.779 -20.684   6.752  0.00  0.00    +0.105 C 
ENDBRANCH  12  13
BRANCH  12  16
ATOM     16  C   LIG    1       22.380 -19.474   5.482  0.00  0.00    +0.022 C 
BRANCH  16  18
ATOM     17  C   LIG    1       20.889 -21.183   4.376  0.00  0.00    +0.007 C 
ATOM     18  C   LIG    1       21.616 -19.842   4.166  0.00  0.00    -0.016 C 
ATOM     19  C   LIG    1       20.583 -18.836   3.644  0.00  0.00    +0.007 C 
ENDBRANCH  16  18
ENDBRANCH  12  16
ENDBRANCH   1  12
TORSDOF 5
ENDMDL
MODEL 6
REMARK VINA RESULT:      -1.1      3.370      5.717
REMARK  Name = *****
REMARK                            x       y       z     vdW  Elec       q    Type
REMARK                         _______ _______ _______ _____ _____    ______ ____
ROOT
ATOM      1  C   LIG    1       25.082 -14.423   3.798  0.00  0.00    +0.011 C 
ATOM      2  C   LIG    1       24.326 -13.099   4.295  0.00  0.00    +0.013 C 
ATOM      3  C   LIG    1       24.054 -12.700   2.843  0.00  0.00    +0.002 C 
ATOM      4  C   LIG    1       25.096 -13.709   2.384  0.00  0.00    +0.013 C 
ENDROOT
BRANCH   1   5
ATOM      5  C   LIG    1       24.092 -15.725   3.956  0.00  0.00    -0.040 A 
ATOM      6  C   LIG    1       22.883 -15.697   4.668  0.00  0.00    +0.006 A 
ATOM      7  C   LIG    1       22.103 -16.841   4.882  0.00  0.00    +0.020 A 
ATOM      8  C   LIG    1       22.555 -18.077   4.406  0.00  0.00    +0.041 A 
ATOM      9 CL   LIG    1       21.630 -19.494   4.712  0.00  0.00    -0.084 Cl
ATOM     10  C   LIG    1       23.740 -18.156   3.710  0.00  0.00    +0.020 A 
ATOM     11  C   LIG    1       24.489 -17.000   3.469  0.00  0.00    +0.006 A 
ENDBRANCH   1   5
BRANCH   1  12
ATOM     12  C   LIG    1       26.562 -14.644   4.384  0.00  0.00    +0.067 C 
BRANCH  12  13
ATOM     13  N   LIG    1       27.441 -13.446   4.462  0.00  0.00    -0.305 NA
ATOM     14  C   LIG    1       28.597 -13.430   3.577  0.00  0.00    +0.105 C 
ATOM     15  C   LIG    1       27.796 -12.942   5.780  0.00  0.00    +0.105 C 
ENDBRANCH  12  13
BRANCH  12  16
ATOM     16  C   LIG    1       27.280 -15.852   3.694  0.00  0.00    +0.022 C 
BRANCH  16  18
ATOM     17  C   LIG    1       26.950 -18.353   3.759  0.00  0.00    +0.007 C 
ATOM     18  C   LIG    1       27.566 -17.157   4.509  0.00  0.00    -0.016 C 
ATOM     19  C   LIG    1       29.032 -17.503   4.800  0.00  0.00    +0.007 C 
ENDBRANCH  16  18
ENDBRANCH  12  16
ENDBRANCH   1  12
TORSDOF 5
ENDMDL
MODEL 7
REMARK VINA RESULT:      -0.9      1.513      3.649
REMARK  Name = *****
REMARK                            x       y       z     vdW  Elec       q    Type
REMARK                         _______ _______ _______ _____ _____    ______ ____
ROOT
ATOM      1  C   LIG    1       24.785 -19.308   3.918  0.00  0.00    +0.011 C 
ATOM      2  C   LIG    1       25.628 -20.588   3.450  0.00  0.00    +0.013 C 
ATOM      3  C   LIG    1       24.884 -20.600   2.113  0.00  0.00    +0.002 C 
ATOM      4  C   LIG    1       23.833 -19.673   2.706  0.00  0.00    +0.013 C 
ENDROOT
BRANCH   1   5
ATOM      5  C   LIG    1       25.694 -17.949   3.757  0.00  0.00    -0.040 A 
ATOM      6  C   LIG    1       27.050 -17.878   4.111  0.00  0.00    +0.006 A 
ATOM      7  C   LIG    1       27.784 -16.685   4.067  0.00  0.00    +0.020 A 
ATOM      8  C   LIG    1       27.141 -15.499   3.694  0.00  0.00    +0.041 A 
ATOM      9 CL   LIG    1       28.021 -14.021   3.689  0.00  0.00    -0.084 Cl
ATOM     10  C   LIG    1       25.809 -15.517   3.346  0.00  0.00    +0.020 A 
ATOM     11  C   LIG    1       25.099 -16.721   3.356  0.00  0.00    +0.006 A 
ENDBRANCH   1   5
BRANCH   1  12
ATOM     12  C   LIG    1       24.042 -19.440   5.336  0.00  0.00    +0.067 C 
BRANCH  12  13
ATOM     13  N   LIG    1       24.319 -20.669   6.129  0.00  0.00    -0.305 NA
ATOM     14  C   LIG    1       23.165 -21.330   6.725  0.00  0.00    +0.105 C 
ATOM     15  C   LIG    1       25.436 -20.645   7.060  0.00  0.00    +0.105 C 
ENDBRANCH  12  13
BRANCH  12  16
ATOM     16  C   LIG    1       22.507 -19.158   5.213  0.00  0.00    +0.022 C 
BRANCH  16  18
ATOM     17  C   LIG    1       20.604 -18.372   3.754  0.00  0.00    +0.007 C 
ATOM     18  C   LIG    1       21.999 -18.000   4.289  0.00  0.00    -0.016 C 
ATOM     19  C   LIG    1       21.898 -16.598   4.904  0.00  0.00    +0.007 C 
ENDBRANCH  16  18
ENDBRANCH  12  16
ENDBRANCH   1  12
TORSDOF 5
ENDMDL
MODEL 8
REMARK VINA RESULT:      -0.7      3.405      6.965
REMARK  Name = *****
REMARK                            x       y       z     vdW  Elec       q    Type
REMARK                         _______ _______ _______ _____ _____    ______ ____
ROOT
ATOM      1  C   LIG    1       25.581 -14.884   3.574  0.00  0.00    +0.011 C 
ATOM      2  C   LIG    1       26.954 -14.742   2.759  0.00  0.00    +0.013 C 
ATOM      3  C   LIG    1       27.736 -14.671   4.073  0.00  0.00    +0.002 C 
ATOM      4  C   LIG    1       26.436 -14.398   4.815  0.00  0.00    +0.013 C 
ENDROOT
BRANCH   1   5
ATOM      5  C   LIG    1       25.095 -16.453   3.583  0.00  0.00    -0.040 A 
ATOM      6  C   LIG    1       23.805 -16.862   3.958  0.00  0.00    +0.006 A 
ATOM      7  C   LIG    1       23.438 -18.211   4.062  0.00  0.00    +0.020 A 
ATOM      8  C   LIG    1       24.397 -19.202   3.824  0.00  0.00    +0.041 A 
ATOM      9 CL   LIG    1       23.969 -20.858   4.003  0.00  0.00    -0.084 Cl
ATOM     10  C   LIG    1       25.678 -18.850   3.463  0.00  0.00    +0.020 A 
ATOM     11  C   LIG    1       26.020 -17.501   3.323  0.00  0.00    +0.006 A 
ENDBRANCH   1   5
BRANCH   1  12
ATOM     12  C   LIG    1       24.425 -13.838   3.184  0.00  0.00    +0.067 C 
BRANCH  12  13
ATOM     13  N   LIG    1       24.800 -12.735   2.258  0.00  0.00    -0.305 NA
ATOM     14  C   LIG    1       26.161 -12.227   2.370  0.00  0.00    +0.105 C 
ATOM     15  C   LIG    1       23.857 -11.642   2.078  0.00  0.00    +0.105 C 
ENDBRANCH  12  13
BRANCH  12  16
ATOM     16  C   LIG    1       23.675 -13.308   4.452  0.00  0.00    +0.022 C 
BRANCH  16  18
ATOM     17  C   LIG    1       22.744 -11.454   5.889  0.00  0.00    +0.007 C 
ATOM     18  C   LIG    1       23.877 -11.826   4.914  0.00  0.00    -0.016 C 
ATOM     19  C   LIG    1       25.204 -11.472   5.595  0.00  0.00    +0.007 C 
ENDBRANCH  16  18
ENDBRANCH  12  16
ENDBRANCH   1  12
TORSDOF 5
ENDMDL
MODEL 9
REMARK VINA RESULT:      -0.4      3.722      6.654
REMARK  Name = *****
REMARK                            x       y       z     vdW  Elec       q    Type
REMARK                         _______ _______ _______ _____ _____    ______ ____
ROOT
ATOM      1  C   LIG    1       25.549 -14.535   3.726  0.00  0.00    +0.011 C 
ATOM      2  C   LIG    1       25.424 -13.878   2.269  0.00  0.00    +0.013 C 
ATOM      3  C   LIG    1       26.685 -14.618   1.818  0.00  0.00    +0.002 C 
ATOM      4  C   LIG    1       27.022 -14.903   3.275  0.00  0.00    +0.013 C 
ENDROOT
BRANCH   1   5
ATOM      5  C   LIG    1       24.490 -15.783   3.871  0.00  0.00    -0.040 A 
ATOM      6  C   LIG    1       23.208 -15.650   4.425  0.00  0.00    +0.006 A 
ATOM      7  C   LIG    1       22.357 -16.743   4.638  0.00  0.00    +0.020 A 
ATOM      8  C   LIG    1       22.806 -18.031   4.327  0.00  0.00    +0.041 A 
ATOM      9 CL   LIG    1       21.788 -19.383   4.636  0.00  0.00    -0.084 Cl
ATOM     10  C   LIG    1       24.060 -18.213   3.790  0.00  0.00    +0.020 A 
ATOM     11  C   LIG    1       24.884 -17.110   3.545  0.00  0.00    +0.006 A 
ENDBRANCH   1   5
BRANCH   1  12
ATOM     12  C   LIG    1       25.530 -13.507   4.961  0.00  0.00    +0.067 C 
BRANCH  12  13
ATOM     13  N   LIG    1       24.838 -12.207   4.744  0.00  0.00    -0.305 NA
ATOM     14  C   LIG    1       24.345 -11.528   5.934  0.00  0.00    +0.105 C 
ATOM     15  C   LIG    1       23.869 -12.120   3.663  0.00  0.00    +0.105 C 
ENDBRANCH  12  13
BRANCH  12  16
ATOM     16  C   LIG    1       26.957 -13.314   5.574  0.00  0.00    +0.022 C 
BRANCH  16  18
ATOM     17  C   LIG    1       29.011 -11.884   5.900  0.00  0.00    +0.007 C 
ATOM     18  C   LIG    1       27.995 -12.386   4.857  0.00  0.00    -0.016 C 
ATOM     19  C   LIG    1       28.790 -12.984   3.690  0.00  0.00    +0.007 C 
ENDBRANCH  16  18
ENDBRANCH  12  16
ENDBRANCH   1  12
TORSDOF 5
ENDMDL
