MODEL 1
REMARK VINA RESULT:      -7.5      0.000      0.000
REMARK  Name = *****
REMARK                            x       y       z     vdW  Elec       q    Type
REMARK                         _______ _______ _______ _____ _____    ______ ____
ROOT
ATOM      1  C   LIG    1       25.819 -20.374   5.194  0.00  0.00    +0.206 A 
ATOM      2  C   LIG    1       26.923 -20.092   6.010  0.00  0.00    +0.184 A 
ATOM      3  C   LIG    1       26.948 -20.407   7.371  0.00  0.00    +0.022 A 
ATOM      4  C   LIG    1       28.136 -20.086   8.152  0.00  0.00    +0.019 C 
ATOM      5  C   LIG    1       29.178 -19.496   7.561  0.00  0.00    +0.092 C 
ATOM      6  C   LIG    1       29.183 -19.148   6.131  0.00  0.00    +0.337 C 
ATOM      7  O   LIG    1       30.162 -18.621   5.617  0.00  0.00    -0.245 OA
ATOM      8  C   LIG    1       25.836 -21.019   7.973  0.00  0.00    +0.023 A 
ATOM      9  C   LIG    1       24.702 -21.298   7.184  0.00  0.00    +0.025 A 
ATOM     10  C   LIG    1       23.427 -21.876   7.419  0.00  0.00    +0.050 A 
ATOM     11  C   LIG    1       22.764 -21.859   6.213  0.00  0.00    +0.196 A 
ATOM     12  O   LIG    1       23.544 -21.313   5.247  0.00  0.00    -0.459 OA
ATOM     13  O   LIG    1       28.038 -19.455   5.413  0.00  0.00    -0.418 OA
ATOM     14  C   LIG    1       24.727 -20.965   5.832  0.00  0.00    +0.180 A 
ENDROOT
BRANCH   1  16
ATOM     15  C   LIG    1       25.062 -18.801   3.684  0.00  0.00    +0.277 C 
ATOM     16  O   LIG    1       25.758 -20.033   3.868  0.00  0.00    -0.488 OA
ENDBRANCH   1  16
TORSDOF 1
ENDMDL
MODEL 2
REMARK VINA RESULT:      -7.5      2.083      3.149
REMARK  Name = *****
REMARK                            x       y       z     vdW  Elec       q    Type
REMARK                         _______ _______ _______ _____ _____    ______ ____
ROOT
ATOM      1  C   LIG    1       26.184 -21.709   6.942  0.00  0.00    +0.206 A 
ATOM      2  C   LIG    1       27.465 -21.149   7.043  0.00  0.00    +0.184 A 
ATOM      3  C   LIG    1       27.914 -20.146   6.180  0.00  0.00    +0.022 A 
ATOM      4  C   LIG    1       29.257 -19.610   6.354  0.00  0.00    +0.019 C 
ATOM      5  C   LIG    1       30.040 -20.083   7.328  0.00  0.00    +0.092 C 
ATOM      6  C   LIG    1       29.598 -21.140   8.252  0.00  0.00    +0.337 C 
ATOM      7  O   LIG    1       30.336 -21.539   9.145  0.00  0.00    -0.245 OA
ATOM      8  C   LIG    1       27.077 -19.671   5.157  0.00  0.00    +0.023 A 
ATOM      9  C   LIG    1       25.791 -20.228   5.015  0.00  0.00    +0.025 A 
ATOM     10  C   LIG    1       24.697 -20.031   4.131  0.00  0.00    +0.050 A 
ATOM     11  C   LIG    1       23.713 -20.907   4.528  0.00  0.00    +0.196 A 
ATOM     12  O   LIG    1       24.122 -21.631   5.600  0.00  0.00    -0.459 OA
ATOM     13  O   LIG    1       28.320 -21.639   8.060  0.00  0.00    -0.418 OA
ATOM     14  C   LIG    1       25.390 -21.225   5.901  0.00  0.00    +0.180 A 
ENDROOT
BRANCH   1  16
ATOM     15  C   LIG    1       25.870 -23.990   7.105  0.00  0.00    +0.277 C 
ATOM     16  O   LIG    1       25.742 -22.723   7.750  0.00  0.00    -0.488 OA
ENDBRANCH   1  16
TORSDOF 1
ENDMDL
MODEL 3
REMARK VINA RESULT:      -7.2      1.950      5.163
REMARK  Name = *****
REMARK                            x       y       z     vdW  Elec       q    Type
REMARK                         _______ _______ _______ _____ _____    ______ ____
ROOT
ATOM      1  C   LIG    1       26.239 -21.488   7.016  0.00  0.00    +0.206 A 
ATOM      2  C   LIG    1       25.523 -20.890   5.970  0.00  0.00    +0.184 A 
ATOM      3  C   LIG    1       26.111 -19.982   5.084  0.00  0.00    +0.022 A 
ATOM      4  C   LIG    1       25.302 -19.407   4.018  0.00  0.00    +0.019 C 
ATOM      5  C   LIG    1       24.015 -19.750   3.902  0.00  0.00    +0.092 C 
ATOM      6  C   LIG    1       23.366 -20.700   4.820  0.00  0.00    +0.337 C 
ATOM      7  O   LIG    1       22.188 -21.004   4.675  0.00  0.00    -0.245 OA
ATOM      8  C   LIG    1       27.462 -19.630   5.231  0.00  0.00    +0.023 A 
ATOM      9  C   LIG    1       28.204 -20.198   6.285  0.00  0.00    +0.025 A 
ATOM     10  C   LIG    1       29.540 -20.088   6.754  0.00  0.00    +0.050 A 
ATOM     11  C   LIG    1       29.638 -20.915   7.849  0.00  0.00    +0.196 A 
ATOM     12  O   LIG    1       28.454 -21.533   8.088  0.00  0.00    -0.459 OA
ATOM     13  O   LIG    1       24.155 -21.225   5.831  0.00  0.00    -0.418 OA
ATOM     14  C   LIG    1       27.573 -21.098   7.140  0.00  0.00    +0.180 A 
ENDROOT
BRANCH   1  16
ATOM     15  C   LIG    1       25.747 -23.697   7.470  0.00  0.00    +0.277 C 
ATOM     16  O   LIG    1       25.670 -22.345   7.921  0.00  0.00    -0.488 OA
ENDBRANCH   1  16
TORSDOF 1
ENDMDL
MODEL 4
REMARK VINA RESULT:      -6.9      2.197      4.616
REMARK  Name = *****
REMARK                            x       y       z     vdW  Elec       q    Type
REMARK                         _______ _______ _______ _____ _____    ______ ____
ROOT
ATOM      1  C   LIG    1       25.004 -20.807   4.896  0.00  0.00    +0.206 A 
ATOM      2  C   LIG    1       24.530 -21.956   5.544  0.00  0.00    +0.184 A 
ATOM      3  C   LIG    1       23.179 -22.139   5.854  0.00  0.00    +0.022 A 
ATOM      4  C   LIG    1       22.765 -23.364   6.524  0.00  0.00    +0.019 C 
ATOM      5  C   LIG    1       23.676 -24.292   6.834  0.00  0.00    +0.092 C 
ATOM      6  C   LIG    1       25.105 -24.129   6.524  0.00  0.00    +0.337 C 
ATOM      7  O   LIG    1       25.911 -25.007   6.809  0.00  0.00    -0.245 OA
ATOM      8  C   LIG    1       22.242 -21.146   5.527  0.00  0.00    +0.023 A 
ATOM      9  C   LIG    1       22.688 -19.970   4.893  0.00  0.00    +0.025 A 
ATOM     10  C   LIG    1       22.073 -18.776   4.431  0.00  0.00    +0.050 A 
ATOM     11  C   LIG    1       23.078 -18.001   3.898  0.00  0.00    +0.196 A 
ATOM     12  O   LIG    1       24.273 -18.636   3.995  0.00  0.00    -0.459 OA
ATOM     13  O   LIG    1       25.475 -22.951   5.896  0.00  0.00    -0.418 OA
ATOM     14  C   LIG    1       24.044 -19.836   4.604  0.00  0.00    +0.180 A 
ENDROOT
BRANCH   1  16
ATOM     15  C   LIG    1       27.011 -20.069   5.763  0.00  0.00    +0.277 C 
ATOM     16  O   LIG    1       26.329 -20.590   4.623  0.00  0.00    -0.488 OA
ENDBRANCH   1  16
TORSDOF 1
ENDMDL
MODEL 5
REMARK VINA RESULT:      -6.7      0.723      4.660
REMARK  Name = *****
REMARK                            x       y       z     vdW  Elec       q    Type
REMARK                         _______ _______ _______ _____ _____    ______ ____
ROOT
ATOM      1  C   LIG    1       26.157 -20.080   5.118  0.00  0.00    +0.206 A 
ATOM      2  C   LIG    1       25.082 -20.660   5.805  0.00  0.00    +0.184 A 
ATOM      3  C   LIG    1       25.169 -21.040   7.148  0.00  0.00    +0.022 A 
ATOM      4  C   LIG    1       24.006 -21.631   7.795  0.00  0.00    +0.019 C 
ATOM      5  C   LIG    1       22.878 -21.807   7.100  0.00  0.00    +0.092 C 
ATOM      6  C   LIG    1       22.754 -21.421   5.686  0.00  0.00    +0.337 C 
ATOM      7  O   LIG    1       21.700 -21.581   5.083  0.00  0.00    -0.245 OA
ATOM      8  C   LIG    1       26.369 -20.855   7.855  0.00  0.00    +0.023 A 
ATOM      9  C   LIG    1       27.474 -20.292   7.187  0.00  0.00    +0.025 A 
ATOM     10  C   LIG    1       28.811 -19.969   7.541  0.00  0.00    +0.050 A 
ATOM     11  C   LIG    1       29.395 -19.439   6.414  0.00  0.00    +0.196 A 
ATOM     12  O   LIG    1       28.509 -19.408   5.386  0.00  0.00    -0.459 OA
ATOM     13  O   LIG    1       23.878 -20.869   5.091  0.00  0.00    -0.418 OA
ATOM     14  C   LIG    1       27.336 -19.930   5.849  0.00  0.00    +0.180 A 
ENDROOT
BRANCH   1  16
ATOM     15  C   LIG    1       25.510 -18.458   3.608  0.00  0.00    +0.277 C 
ATOM     16  O   LIG    1       26.105 -19.742   3.791  0.00  0.00    -0.488 OA
ENDBRANCH   1  16
TORSDOF 1
ENDMDL
MODEL 6
REMARK VINA RESULT:      -6.1      3.774      5.987
REMARK  Name = *****
REMARK                            x       y       z     vdW  Elec       q    Type
REMARK                         _______ _______ _______ _____ _____    ______ ____
ROOT
ATOM      1  C   LIG    1       23.637 -23.784   6.844  0.00  0.00    +0.206 A 
ATOM      2  C   LIG    1       24.407 -24.896   6.475  0.00  0.00    +0.184 A 
ATOM      3  C   LIG    1       25.805 -24.889   6.526  0.00  0.00    +0.022 A 
ATOM      4  C   LIG    1       26.534 -26.087   6.132  0.00  0.00    +0.019 C 
ATOM      5  C   LIG    1       25.863 -27.169   5.726  0.00  0.00    +0.092 C 
ATOM      6  C   LIG    1       24.393 -27.208   5.659  0.00  0.00    +0.337 C 
ATOM      7  O   LIG    1       23.809 -28.222   5.298  0.00  0.00    -0.245 OA
ATOM      8  C   LIG    1       26.488 -23.737   6.946  0.00  0.00    +0.023 A 
ATOM      9  C   LIG    1       25.744 -22.595   7.304  0.00  0.00    +0.025 A 
ATOM     10  C   LIG    1       26.058 -21.284   7.751  0.00  0.00    +0.050 A 
ATOM     11  C   LIG    1       24.858 -20.635   7.926  0.00  0.00    +0.196 A 
ATOM     12  O   LIG    1       23.821 -21.456   7.621  0.00  0.00    -0.459 OA
ATOM     13  O   LIG    1       23.723 -26.053   6.030  0.00  0.00    -0.418 OA
ATOM     14  C   LIG    1       24.354 -22.652   7.237  0.00  0.00    +0.180 A 
ENDROOT
BRANCH   1  16
ATOM     15  C   LIG    1       21.828 -22.704   5.902  0.00  0.00    +0.277 C 
ATOM     16  O   LIG    1       22.270 -23.756   6.759  0.00  0.00    -0.488 OA
ENDBRANCH   1  16
TORSDOF 1
ENDMDL
MODEL 7
REMARK VINA RESULT:      -6.0      2.828      6.428
REMARK  Name = *****
REMARK                            x       y       z     vdW  Elec       q    Type
REMARK                         _______ _______ _______ _____ _____    ______ ____
ROOT
ATOM      1  C   LIG    1       30.058 -20.780   8.670  0.00  0.00    +0.206 A 
ATOM      2  C   LIG    1       28.948 -20.800   7.814  0.00  0.00    +0.184 A 
ATOM      3  C   LIG    1       28.642 -19.738   6.958  0.00  0.00    +0.022 A 
ATOM      4  C   LIG    1       27.474 -19.837   6.094  0.00  0.00    +0.019 C 
ATOM      5  C   LIG    1       26.712 -20.935   6.132  0.00  0.00    +0.092 C 
ATOM      6  C   LIG    1       27.004 -22.069   7.023  0.00  0.00    +0.337 C 
ATOM      7  O   LIG    1       26.294 -23.067   7.020  0.00  0.00    -0.245 OA
ATOM      8  C   LIG    1       29.452 -18.591   6.944  0.00  0.00    +0.023 A 
ATOM      9  C   LIG    1       30.564 -18.530   7.806  0.00  0.00    +0.025 A 
ATOM     10  C   LIG    1       31.577 -17.574   8.083  0.00  0.00    +0.050 A 
ATOM     11  C   LIG    1       32.381 -18.128   9.051  0.00  0.00    +0.196 A 
ATOM     12  O   LIG    1       31.937 -19.364   9.392  0.00  0.00    -0.459 OA
ATOM     13  O   LIG    1       28.116 -21.946   7.841  0.00  0.00    -0.418 OA
ATOM     14  C   LIG    1       30.827 -19.615   8.639  0.00  0.00    +0.180 A 
ENDROOT
BRANCH   1  16
ATOM     15  C   LIG    1       31.486 -22.538   9.114  0.00  0.00    +0.277 C 
ATOM     16  O   LIG    1       30.349 -21.791   9.546  0.00  0.00    -0.488 OA
ENDBRANCH   1  16
TORSDOF 1
ENDMDL
MODEL 8
REMARK VINA RESULT:      -5.9      1.859      3.837
REMARK  Name = *****
REMARK                            x       y       z     vdW  Elec       q    Type
REMARK                         _______ _______ _______ _____ _____    ______ ____
ROOT
ATOM      1  C   LIG    1       26.506 -20.982   5.840  0.00  0.00    +0.206 A 
ATOM      2  C   LIG    1       25.685 -20.196   5.019  0.00  0.00    +0.184 A 
ATOM      3  C   LIG    1       24.346 -20.515   4.774  0.00  0.00    +0.022 A 
ATOM      4  C   LIG    1       23.557 -19.644   3.913  0.00  0.00    +0.019 C 
ATOM      5  C   LIG    1       24.119 -18.560   3.370  0.00  0.00    +0.092 C 
ATOM      6  C   LIG    1       25.526 -18.199   3.606  0.00  0.00    +0.337 C 
ATOM      7  O   LIG    1       26.005 -17.189   3.105  0.00  0.00    -0.245 OA
ATOM      8  C   LIG    1       23.780 -21.664   5.348  0.00  0.00    +0.023 A 
ATOM      9  C   LIG    1       24.584 -22.487   6.162  0.00  0.00    +0.025 A 
ATOM     10  C   LIG    1       24.388 -23.694   6.884  0.00  0.00    +0.050 A 
ATOM     11  C   LIG    1       25.590 -23.988   7.484  0.00  0.00    +0.196 A 
ATOM     12  O   LIG    1       26.517 -23.043   7.185  0.00  0.00    -0.459 OA
ATOM     13  O   LIG    1       26.258 -19.048   4.421  0.00  0.00    -0.418 OA
ATOM     14  C   LIG    1       25.912 -22.126   6.377  0.00  0.00    +0.180 A 
ENDROOT
BRANCH   1  16
ATOM     15  C   LIG    1       28.029 -20.081   7.322  0.00  0.00    +0.277 C 
ATOM     16  O   LIG    1       27.831 -20.711   6.057  0.00  0.00    -0.488 OA
ENDBRANCH   1  16
TORSDOF 1
ENDMDL
MODEL 9
REMARK VINA RESULT:      -5.8      3.643      5.280
REMARK  Name = *****
REMARK                            x       y       z     vdW  Elec       q    Type
REMARK                         _______ _______ _______ _____ _____    ______ ____
ROOT
ATOM      1  C   LIG    1       25.868 -22.910   6.679  0.00  0.00    +0.206 A 
ATOM      2  C   LIG    1       25.601 -24.250   6.367  0.00  0.00    +0.184 A 
ATOM      3  C   LIG    1       24.303 -24.768   6.337  0.00  0.00    +0.022 A 
ATOM      4  C   LIG    1       24.107 -26.171   5.998  0.00  0.00    +0.019 C 
ATOM      5  C   LIG    1       25.164 -26.941   5.724  0.00  0.00    +0.092 C 
ATOM      6  C   LIG    1       26.542 -26.428   5.749  0.00  0.00    +0.337 C 
ATOM      7  O   LIG    1       27.488 -27.159   5.477  0.00  0.00    -0.245 OA
ATOM      8  C   LIG    1       23.208 -23.942   6.639  0.00  0.00    +0.023 A 
ATOM      9  C   LIG    1       23.444 -22.594   6.976  0.00  0.00    +0.025 A 
ATOM     10  C   LIG    1       22.632 -21.488   7.341  0.00  0.00    +0.050 A 
ATOM     11  C   LIG    1       23.487 -20.430   7.552  0.00  0.00    +0.196 A 
ATOM     12  O   LIG    1       24.773 -20.806   7.339  0.00  0.00    -0.459 OA
ATOM     13  O   LIG    1       26.703 -25.093   6.083  0.00  0.00    -0.418 OA
ATOM     14  C   LIG    1       24.755 -22.126   6.990  0.00  0.00    +0.180 A 
ENDROOT
BRANCH   1  16
ATOM     15  C   LIG    1       27.393 -21.852   8.050  0.00  0.00    +0.277 C 
ATOM     16  O   LIG    1       27.135 -22.395   6.756  0.00  0.00    -0.488 OA
ENDBRANCH   1  16
TORSDOF 1
ENDMDL
