MODEL 1
REMARK VINA RESULT:      -8.3      0.000      0.000
REMARK  Name = *****
REMARK                            x       y       z     vdW  Elec       q    Type
REMARK                         _______ _______ _______ _____ _____    ______ ____
ROOT
ATOM      1  N   LIG    1       28.966 -20.570   6.951  0.00  0.00    -0.297 N 
ATOM      2  C   LIG    1       27.926 -21.242   7.604  0.00  0.00    +0.226 C 
ATOM      3  O   LIG    1       28.245 -21.862   8.692  0.00  0.00    -0.275 OA
ENDROOT
BRANCH   1   5
ATOM      4  C   LIG    1       29.513 -18.424   5.475  0.00  0.00    +0.024 C 
ATOM      5  C   LIG    1       28.646 -19.603   5.890  0.00  0.00    +0.105 C 
ENDBRANCH   1   5
BRANCH   2   6
ATOM      6  C   LIG    1       26.372 -21.315   7.212  0.00  0.00    +0.130 C 
BRANCH   6   7
ATOM      7  C   LIG    1       25.516 -22.579   6.860  0.00  0.00    -0.033 A 
ATOM      8  C   LIG    1       24.106 -22.454   6.768  0.00  0.00    +0.004 A 
ATOM      9  C   LIG    1       23.265 -23.581   6.717  0.00  0.00    +0.000 A 
ATOM     10  C   LIG    1       23.801 -24.845   6.518  0.00  0.00    +0.000 A 
ATOM     11  C   LIG    1       25.178 -24.984   6.474  0.00  0.00    +0.000 A 
ATOM     12  C   LIG    1       26.001 -23.897   6.804  0.00  0.00    +0.004 A 
ENDBRANCH   6   7
BRANCH   6  13
ATOM     13  C   LIG    1       25.541 -20.449   8.218  0.00  0.00    +0.173 C 
BRANCH  13  14
ATOM     14  O   LIG    1       25.973 -20.480   9.581  0.00  0.00    -0.394 OA
ATOM     15  H   LIG    1       26.847 -20.044   9.639  0.00  0.00    +0.209 HD
ENDBRANCH  13  14
ENDBRANCH   6  13
ENDBRANCH   2   6
BRANCH   1  16
ATOM     16  C   LIG    1       30.227 -20.446   7.698  0.00  0.00    +0.143 C 
BRANCH  16  17
ATOM     17  C   LIG    1       30.566 -19.143   8.392  0.00  0.00    -0.027 A 
ATOM     18  C   LIG    1       29.637 -18.502   9.219  0.00  0.00    +0.025 A 
ATOM     19  C   LIG    1       30.003 -17.339   9.878  0.00  0.00    +0.111 A 
ATOM     20  N   LIG    1       31.201 -16.740   9.726  0.00  0.00    -0.263 NA
ATOM     21  C   LIG    1       32.066 -17.332   8.876  0.00  0.00    +0.111 A 
ATOM     22  C   LIG    1       31.803 -18.518   8.202  0.00  0.00    +0.025 A 
ENDBRANCH  16  17
ENDBRANCH   1  16
TORSDOF 7
ENDMDL
MODEL 2
REMARK VINA RESULT:      -8.2      1.995      3.287
REMARK  Name = *****
REMARK                            x       y       z     vdW  Elec       q    Type
REMARK                         _______ _______ _______ _____ _____    ______ ____
ROOT
ATOM      1  N   LIG    1       26.484 -21.129   6.491  0.00  0.00    -0.297 N 
ATOM      2  C   LIG    1       25.862 -22.232   7.087  0.00  0.00    +0.226 C 
ATOM      3  O   LIG    1       26.115 -22.418   8.341  0.00  0.00    -0.275 OA
ENDROOT
BRANCH   1   5
ATOM      4  C   LIG    1       24.637 -20.140   4.850  0.00  0.00    +0.024 C 
ATOM      5  C   LIG    1       26.026 -20.668   5.172  0.00  0.00    +0.105 C 
ENDBRANCH   1   5
BRANCH   2   6
ATOM      6  C   LIG    1       24.836 -23.281   6.439  0.00  0.00    +0.130 C 
BRANCH   6   7
ATOM      7  C   LIG    1       25.000 -24.831   6.280  0.00  0.00    -0.033 A 
ATOM      8  C   LIG    1       26.301 -25.394   6.315  0.00  0.00    +0.004 A 
ATOM      9  C   LIG    1       26.544 -26.724   5.922  0.00  0.00    +0.000 A 
ATOM     10  C   LIG    1       25.484 -27.594   5.712  0.00  0.00    +0.000 A 
ATOM     11  C   LIG    1       24.192 -27.102   5.797  0.00  0.00    +0.000 A 
ATOM     12  C   LIG    1       23.976 -25.722   5.913  0.00  0.00    +0.004 A 
ENDBRANCH   6   7
BRANCH   6  13
ATOM     13  C   LIG    1       23.398 -23.015   6.998  0.00  0.00    +0.173 C 
BRANCH  13  14
ATOM     14  O   LIG    1       23.227 -21.810   7.750  0.00  0.00    -0.394 OA
ATOM     15  H   LIG    1       22.635 -21.998   8.506  0.00  0.00    +0.209 HD
ENDBRANCH  13  14
ENDBRANCH   6  13
ENDBRANCH   2   6
BRANCH   1  16
ATOM     16  C   LIG    1       27.146 -20.186   7.405  0.00  0.00    +0.143 C 
BRANCH  16  17
ATOM     17  C   LIG    1       28.656 -20.065   7.398  0.00  0.00    -0.027 A 
ATOM     18  C   LIG    1       29.305 -19.172   6.539  0.00  0.00    +0.025 A 
ATOM     19  C   LIG    1       30.685 -19.053   6.599  0.00  0.00    +0.111 A 
ATOM     20  N   LIG    1       31.464 -19.797   7.408  0.00  0.00    -0.263 NA
ATOM     21  C   LIG    1       30.833 -20.700   8.187  0.00  0.00    +0.111 A 
ATOM     22  C   LIG    1       29.454 -20.865   8.224  0.00  0.00    +0.025 A 
ENDBRANCH  16  17
ENDBRANCH   1  16
TORSDOF 7
ENDMDL
MODEL 3
REMARK VINA RESULT:      -8.1      2.007      7.286
REMARK  Name = *****
REMARK                            x       y       z     vdW  Elec       q    Type
REMARK                         _______ _______ _______ _____ _____    ______ ____
ROOT
ATOM      1  N   LIG    1       26.189 -20.271   6.968  0.00  0.00    -0.297 N 
ATOM      2  C   LIG    1       27.248 -20.286   7.883  0.00  0.00    +0.226 C 
ATOM      3  O   LIG    1       26.929 -20.502   9.117  0.00  0.00    -0.275 OA
ENDROOT
BRANCH   1   5
ATOM      4  C   LIG    1       25.496 -20.020   4.410  0.00  0.00    +0.024 C 
ATOM      5  C   LIG    1       26.479 -20.334   5.527  0.00  0.00    +0.105 C 
ENDBRANCH   1   5
BRANCH   2   6
ATOM      6  C   LIG    1       28.819 -20.114   7.608  0.00  0.00    +0.130 C 
BRANCH   6   7
ATOM      7  C   LIG    1       29.780 -18.990   8.125  0.00  0.00    -0.033 A 
ATOM      8  C   LIG    1       31.097 -18.915   7.605  0.00  0.00    +0.004 A 
ATOM      9  C   LIG    1       32.085 -18.110   8.203  0.00  0.00    +0.000 A 
ATOM     10  C   LIG    1       31.737 -17.186   9.178  0.00  0.00    +0.000 A 
ATOM     11  C   LIG    1       30.425 -17.146   9.618  0.00  0.00    +0.000 A 
ATOM     12  C   LIG    1       29.521 -18.138   9.213  0.00  0.00    +0.004 A 
ENDBRANCH   6   7
BRANCH   6  13
ATOM     13  C   LIG    1       29.539 -21.487   7.830  0.00  0.00    +0.173 C 
BRANCH  13  14
ATOM     14  O   LIG    1       29.923 -21.786   9.175  0.00  0.00    -0.394 OA
ATOM     15  H   LIG    1       30.900 -21.779   9.227  0.00  0.00    +0.209 HD
ENDBRANCH  13  14
ENDBRANCH   6  13
ENDBRANCH   2   6
BRANCH   1  16
ATOM     16  C   LIG    1       24.889 -20.740   7.473  0.00  0.00    +0.143 C 
BRANCH  16  17
ATOM     17  C   LIG    1       24.426 -22.148   7.165  0.00  0.00    -0.027 A 
ATOM     18  C   LIG    1       23.068 -22.442   7.001  0.00  0.00    +0.025 A 
ATOM     19  C   LIG    1       22.687 -23.734   6.669  0.00  0.00    +0.111 A 
ATOM     20  N   LIG    1       23.553 -24.759   6.548  0.00  0.00    -0.263 NA
ATOM     21  C   LIG    1       24.854 -24.478   6.771  0.00  0.00    +0.111 A 
ATOM     22  C   LIG    1       25.333 -23.209   7.070  0.00  0.00    +0.025 A 
ENDBRANCH  16  17
ENDBRANCH   1  16
TORSDOF 7
ENDMDL
MODEL 4
REMARK VINA RESULT:      -7.9      2.208      7.085
REMARK  Name = *****
REMARK                            x       y       z     vdW  Elec       q    Type
REMARK                         _______ _______ _______ _____ _____    ______ ____
ROOT
ATOM      1  N   LIG    1       27.989 -20.564   6.737  0.00  0.00    -0.297 N 
ATOM      2  C   LIG    1       28.820 -20.797   7.839  0.00  0.00    +0.226 C 
ATOM      3  O   LIG    1       28.374 -21.632   8.719  0.00  0.00    -0.275 OA
ENDROOT
BRANCH   1   5
ATOM      4  C   LIG    1       28.984 -18.424   5.505  0.00  0.00    +0.024 C 
ATOM      5  C   LIG    1       28.534 -19.876   5.556  0.00  0.00    +0.105 C 
ENDBRANCH   1   5
BRANCH   2   6
ATOM      6  C   LIG    1       30.279 -20.205   8.144  0.00  0.00    +0.130 C 
BRANCH   6   7
ATOM      7  C   LIG    1       30.653 -18.855   8.846  0.00  0.00    -0.033 A 
ATOM      8  C   LIG    1       31.822 -18.165   8.437  0.00  0.00    +0.004 A 
ATOM      9  C   LIG    1       32.356 -17.101   9.188  0.00  0.00    +0.000 A 
ATOM     10  C   LIG    1       31.624 -16.543  10.226  0.00  0.00    +0.000 A 
ATOM     11  C   LIG    1       30.412 -17.118  10.570  0.00  0.00    +0.000 A 
ATOM     12  C   LIG    1       30.031 -18.339   9.996  0.00  0.00    +0.004 A 
ENDBRANCH   6   7
BRANCH   6  13
ATOM     13  C   LIG    1       31.175 -21.325   8.771  0.00  0.00    +0.173 C 
BRANCH  13  14
ATOM     14  O   LIG    1       30.815 -21.757  10.086  0.00  0.00    -0.394 OA
ATOM     15  H   LIG    1       29.957 -21.351  10.321  0.00  0.00    +0.209 HD
ENDBRANCH  13  14
ENDBRANCH   6  13
ENDBRANCH   2   6
BRANCH   1  16
ATOM     16  C   LIG    1       26.837 -21.465   6.591  0.00  0.00    +0.143 C 
BRANCH  16  17
ATOM     17  C   LIG    1       25.504 -20.915   6.126  0.00  0.00    -0.027 A 
ATOM     18  C   LIG    1       25.356 -20.364   4.849  0.00  0.00    +0.025 A 
ATOM     19  C   LIG    1       24.108 -19.919   4.442  0.00  0.00    +0.111 A 
ATOM     20  N   LIG    1       23.017 -19.928   5.233  0.00  0.00    -0.263 NA
ATOM     21  C   LIG    1       23.186 -20.403   6.485  0.00  0.00    +0.111 A 
ATOM     22  C   LIG    1       24.387 -20.905   6.969  0.00  0.00    +0.025 A 
ENDBRANCH  16  17
ENDBRANCH   1  16
TORSDOF 7
ENDMDL
MODEL 5
REMARK VINA RESULT:      -7.8      1.675      2.490
REMARK  Name = *****
REMARK                            x       y       z     vdW  Elec       q    Type
REMARK                         _______ _______ _______ _____ _____    ______ ____
ROOT
ATOM      1  N   LIG    1       27.248 -20.670   7.012  0.00  0.00    -0.297 N 
ATOM      2  C   LIG    1       26.239 -21.450   7.589  0.00  0.00    +0.226 C 
ATOM      3  O   LIG    1       26.178 -21.435   8.880  0.00  0.00    -0.275 OA
ENDROOT
BRANCH   1   5
ATOM      4  C   LIG    1       25.991 -19.900   4.796  0.00  0.00    +0.024 C 
ATOM      5  C   LIG    1       27.206 -20.389   5.569  0.00  0.00    +0.105 C 
ENDBRANCH   1   5
BRANCH   2   6
ATOM      6  C   LIG    1       25.112 -22.333   6.866  0.00  0.00    +0.130 C 
BRANCH   6   7
ATOM      7  C   LIG    1       25.139 -23.864   6.536  0.00  0.00    -0.033 A 
ATOM      8  C   LIG    1       23.938 -24.506   6.140  0.00  0.00    +0.004 A 
ATOM      9  C   LIG    1       23.831 -25.908   6.083  0.00  0.00    +0.000 A 
ATOM     10  C   LIG    1       24.966 -26.700   6.186  0.00  0.00    +0.000 A 
ATOM     11  C   LIG    1       26.181 -26.089   6.446  0.00  0.00    +0.000 A 
ATOM     12  C   LIG    1       26.223 -24.727   6.775  0.00  0.00    +0.004 A 
ENDBRANCH   6   7
BRANCH   6  13
ATOM     13  C   LIG    1       23.716 -22.013   7.500  0.00  0.00    +0.173 C 
BRANCH  13  14
ATOM     14  O   LIG    1       23.452 -20.636   7.780  0.00  0.00    -0.394 OA
ATOM     15  H   LIG    1       23.372 -20.156   6.932  0.00  0.00    +0.209 HD
ENDBRANCH  13  14
ENDBRANCH   6  13
ENDBRANCH   2   6
BRANCH   1  16
ATOM     16  C   LIG    1       27.952 -19.747   7.916  0.00  0.00    +0.143 C 
BRANCH  16  17
ATOM     17  C   LIG    1       29.377 -20.044   8.335  0.00  0.00    -0.027 A 
ATOM     18  C   LIG    1       30.295 -19.012   8.554  0.00  0.00    +0.025 A 
ATOM     19  C   LIG    1       31.575 -19.322   8.987  0.00  0.00    +0.111 A 
ATOM     20  N   LIG    1       32.020 -20.582   9.159  0.00  0.00    -0.263 NA
ATOM     21  C   LIG    1       31.146 -21.572   8.884  0.00  0.00    +0.111 A 
ATOM     22  C   LIG    1       29.833 -21.359   8.482  0.00  0.00    +0.025 A 
ENDBRANCH  16  17
ENDBRANCH   1  16
TORSDOF 7
ENDMDL
MODEL 6
REMARK VINA RESULT:      -7.8      4.330      6.576
REMARK  Name = *****
REMARK                            x       y       z     vdW  Elec       q    Type
REMARK                         _______ _______ _______ _____ _____    ______ ____
ROOT
ATOM      1  N   LIG    1       24.880 -23.238   7.254  0.00  0.00    -0.297 N 
ATOM      2  C   LIG    1       24.519 -24.502   6.771  0.00  0.00    +0.226 C 
ATOM      3  O   LIG    1       23.258 -24.691   6.563  0.00  0.00    -0.275 OA
ENDROOT
BRANCH   1   5
ATOM      4  C   LIG    1       26.880 -21.623   7.941  0.00  0.00    +0.024 C 
ATOM      5  C   LIG    1       26.294 -22.834   7.233  0.00  0.00    +0.105 C 
ENDBRANCH   1   5
BRANCH   2   6
ATOM      6  C   LIG    1       25.464 -25.743   6.395  0.00  0.00    +0.130 C 
BRANCH   6   7
ATOM      7  C   LIG    1       25.468 -27.183   7.012  0.00  0.00    -0.033 A 
ATOM      8  C   LIG    1       24.556 -28.149   6.516  0.00  0.00    +0.004 A 
ATOM      9  C   LIG    1       24.325 -29.363   7.189  0.00  0.00    +0.000 A 
ATOM     10  C   LIG    1       25.156 -29.754   8.229  0.00  0.00    +0.000 A 
ATOM     11  C   LIG    1       26.144 -28.883   8.654  0.00  0.00    +0.000 A 
ATOM     12  C   LIG    1       26.179 -27.571   8.161  0.00  0.00    +0.004 A 
ENDBRANCH   6   7
BRANCH   6  13
ATOM     13  C   LIG    1       25.523 -25.898   4.838  0.00  0.00    +0.173 C 
BRANCH  13  14
ATOM     14  O   LIG    1       24.851 -24.889   4.079  0.00  0.00    -0.394 OA
ATOM     15  H   LIG    1       23.966 -25.225   3.832  0.00  0.00    +0.209 HD
ENDBRANCH  13  14
ENDBRANCH   6  13
ENDBRANCH   2   6
BRANCH   1  16
ATOM     16  C   LIG    1       23.826 -22.212   7.235  0.00  0.00    +0.143 C 
BRANCH  16  17
ATOM     17  C   LIG    1       23.694 -21.291   6.040  0.00  0.00    -0.027 A 
ATOM     18  C   LIG    1       22.798 -20.216   6.051  0.00  0.00    +0.025 A 
ATOM     19  C   LIG    1       22.743 -19.365   4.958  0.00  0.00    +0.111 A 
ATOM     20  N   LIG    1       23.471 -19.542   3.838  0.00  0.00    -0.263 NA
ATOM     21  C   LIG    1       24.285 -20.617   3.812  0.00  0.00    +0.111 A 
ATOM     22  C   LIG    1       24.435 -21.503   4.872  0.00  0.00    +0.025 A 
ENDBRANCH  16  17
ENDBRANCH   1  16
TORSDOF 7
ENDMDL
MODEL 7
REMARK VINA RESULT:      -7.8      2.531      3.382
REMARK  Name = *****
REMARK                            x       y       z     vdW  Elec       q    Type
REMARK                         _______ _______ _______ _____ _____    ______ ____
ROOT
ATOM      1  N   LIG    1       30.390 -19.717   8.014  0.00  0.00    -0.297 N 
ATOM      2  C   LIG    1       29.584 -19.187   7.000  0.00  0.00    +0.226 C 
ATOM      3  O   LIG    1       29.892 -17.999   6.593  0.00  0.00    -0.275 OA
ENDROOT
BRANCH   1   5
ATOM      4  C   LIG    1       31.334 -21.949   9.115  0.00  0.00    +0.024 C 
ATOM      5  C   LIG    1       30.308 -21.153   8.324  0.00  0.00    +0.105 C 
ENDBRANCH   1   5
BRANCH   2   6
ATOM      6  C   LIG    1       28.350 -19.868   6.235  0.00  0.00    +0.130 C 
BRANCH   6   7
ATOM      7  C   LIG    1       27.012 -20.413   6.840  0.00  0.00    -0.033 A 
ATOM      8  C   LIG    1       25.906 -20.638   5.980  0.00  0.00    +0.004 A 
ATOM      9  C   LIG    1       24.613 -20.872   6.482  0.00  0.00    +0.000 A 
ATOM     10  C   LIG    1       24.423 -21.123   7.833  0.00  0.00    +0.000 A 
ATOM     11  C   LIG    1       25.512 -21.038   8.685  0.00  0.00    +0.000 A 
ATOM     12  C   LIG    1       26.731 -20.533   8.212  0.00  0.00    +0.004 A 
ENDBRANCH   6   7
BRANCH   6  13
ATOM     13  C   LIG    1       27.983 -19.012   4.976  0.00  0.00    +0.173 C 
BRANCH  13  14
ATOM     14  O   LIG    1       28.944 -18.031   4.579  0.00  0.00    -0.394 OA
ATOM     15  H   LIG    1       29.810 -18.272   4.966  0.00  0.00    +0.209 HD
ENDBRANCH  13  14
ENDBRANCH   6  13
ENDBRANCH   2   6
BRANCH   1  16
ATOM     16  C   LIG    1       31.621 -18.972   8.321  0.00  0.00    +0.143 C 
BRANCH  16  17
ATOM     17  C   LIG    1       31.626 -17.956   9.444  0.00  0.00    -0.027 A 
ATOM     18  C   LIG    1       30.683 -18.016  10.477  0.00  0.00    +0.025 A 
ATOM     19  C   LIG    1       30.753 -17.099  11.514  0.00  0.00    +0.111 A 
ATOM     20  N   LIG    1       31.653 -16.097  11.565  0.00  0.00    -0.263 NA
ATOM     21  C   LIG    1       32.517 -16.011  10.533  0.00  0.00    +0.111 A 
ATOM     22  C   LIG    1       32.548 -16.904   9.470  0.00  0.00    +0.025 A 
ENDBRANCH  16  17
ENDBRANCH   1  16
TORSDOF 7
ENDMDL
MODEL 8
REMARK VINA RESULT:      -7.6      2.120      2.909
REMARK  Name = *****
REMARK                            x       y       z     vdW  Elec       q    Type
REMARK                         _______ _______ _______ _____ _____    ______ ____
ROOT
ATOM      1  N   LIG    1       27.112 -20.479   6.559  0.00  0.00    -0.297 N 
ATOM      2  C   LIG    1       26.114 -20.359   5.583  0.00  0.00    +0.226 C 
ATOM      3  O   LIG    1       26.373 -19.557   4.603  0.00  0.00    -0.275 OA
ENDROOT
BRANCH   1   5
ATOM      4  C   LIG    1       26.129 -21.618   8.754  0.00  0.00    +0.024 C 
ATOM      5  C   LIG    1       27.038 -21.576   7.535  0.00  0.00    +0.105 C 
ENDBRANCH   1   5
BRANCH   2   6
ATOM      6  C   LIG    1       24.704 -21.116   5.488  0.00  0.00    +0.130 C 
BRANCH   6   7
ATOM      7  C   LIG    1       24.413 -22.650   5.614  0.00  0.00    -0.033 A 
ATOM      8  C   LIG    1       23.344 -23.085   6.440  0.00  0.00    +0.004 A 
ATOM      9  C   LIG    1       23.192 -24.436   6.804  0.00  0.00    +0.000 A 
ATOM     10  C   LIG    1       23.944 -25.418   6.176  0.00  0.00    +0.000 A 
ATOM     11  C   LIG    1       24.912 -25.032   5.264  0.00  0.00    +0.000 A 
ATOM     12  C   LIG    1       25.239 -23.676   5.123  0.00  0.00    +0.004 A 
ENDBRANCH   6   7
BRANCH   6  13
ATOM     13  C   LIG    1       23.649 -20.364   6.368  0.00  0.00    +0.173 C 
BRANCH  13  14
ATOM     14  O   LIG    1       22.640 -19.639   5.659  0.00  0.00    -0.394 OA
ATOM     15  H   LIG    1       22.909 -18.700   5.611  0.00  0.00    +0.209 HD
ENDBRANCH  13  14
ENDBRANCH   6  13
ENDBRANCH   2   6
BRANCH   1  16
ATOM     16  C   LIG    1       28.414 -19.877   6.232  0.00  0.00    +0.143 C 
BRANCH  16  17
ATOM     17  C   LIG    1       29.516 -19.859   7.270  0.00  0.00    -0.027 A 
ATOM     18  C   LIG    1       29.977 -21.043   7.856  0.00  0.00    +0.025 A 
ATOM     19  C   LIG    1       31.023 -20.990   8.764  0.00  0.00    +0.111 A 
ATOM     20  N   LIG    1       31.600 -19.842   9.171  0.00  0.00    -0.263 NA
ATOM     21  C   LIG    1       31.105 -18.702   8.648  0.00  0.00    +0.111 A 
ATOM     22  C   LIG    1       30.087 -18.658   7.705  0.00  0.00    +0.025 A 
ENDBRANCH  16  17
ENDBRANCH   1  16
TORSDOF 7
ENDMDL
MODEL 9
REMARK VINA RESULT:      -7.5      2.664      3.679
REMARK  Name = *****
REMARK                            x       y       z     vdW  Elec       q    Type
REMARK                         _______ _______ _______ _____ _____    ______ ____
ROOT
ATOM      1  N   LIG    1       27.392 -20.381   7.380  0.00  0.00    -0.297 N 
ATOM      2  C   LIG    1       26.111 -20.797   7.763  0.00  0.00    +0.226 C 
ATOM      3  O   LIG    1       25.843 -20.718   9.025  0.00  0.00    -0.275 OA
ENDROOT
BRANCH   1   5
ATOM      4  C   LIG    1       28.538 -19.029   5.395  0.00  0.00    +0.024 C 
ATOM      5  C   LIG    1       27.680 -20.152   5.956  0.00  0.00    +0.105 C 
ENDBRANCH   1   5
BRANCH   2   6
ATOM      6  C   LIG    1       24.905 -21.320   6.844  0.00  0.00    +0.130 C 
BRANCH   6   7
ATOM      7  C   LIG    1       24.128 -20.546   5.726  0.00  0.00    -0.033 A 
ATOM      8  C   LIG    1       24.812 -20.177   4.539  0.00  0.00    +0.004 A 
ATOM      9  C   LIG    1       24.261 -19.266   3.619  0.00  0.00    +0.000 A 
ATOM     10  C   LIG    1       22.933 -18.880   3.728  0.00  0.00    +0.000 A 
ATOM     11  C   LIG    1       22.197 -19.329   4.812  0.00  0.00    +0.000 A 
ATOM     12  C   LIG    1       22.838 -20.006   5.860  0.00  0.00    +0.004 A 
ENDBRANCH   6   7
BRANCH   6  13
ATOM     13  C   LIG    1       25.261 -22.736   6.276  0.00  0.00    +0.173 C 
BRANCH  13  14
ATOM     14  O   LIG    1       24.180 -23.470   5.696  0.00  0.00    -0.394 OA
ATOM     15  H   LIG    1       24.324 -24.422   5.869  0.00  0.00    +0.209 HD
ENDBRANCH  13  14
ENDBRANCH   6  13
ENDBRANCH   2   6
BRANCH   1  16
ATOM     16  C   LIG    1       28.182 -19.685   8.407  0.00  0.00    +0.143 C 
BRANCH  16  17
ATOM     17  C   LIG    1       29.617 -20.099   8.661  0.00  0.00    -0.027 A 
ATOM     18  C   LIG    1       30.628 -19.144   8.811  0.00  0.00    +0.025 A 
ATOM     19  C   LIG    1       31.920 -19.561   9.095  0.00  0.00    +0.111 A 
ATOM     20  N   LIG    1       32.284 -20.855   9.181  0.00  0.00    -0.263 NA
ATOM     21  C   LIG    1       31.314 -21.769   8.972  0.00  0.00    +0.111 A 
ATOM     22  C   LIG    1       29.986 -21.447   8.720  0.00  0.00    +0.025 A 
ENDBRANCH  16  17
ENDBRANCH   1  16
TORSDOF 7
ENDMDL
