MODEL 1
REMARK VINA RESULT:      -9.3      0.000      0.000
REMARK  Name = *****
REMARK                            x       y       z     vdW  Elec       q    Type
REMARK                         _______ _______ _______ _____ _____    ______ ____
ROOT
ATOM      1  C   LIG    1       26.764 -21.326   6.707  0.00  0.00    +0.325 C 
ATOM      2  C   LIG    1       25.684 -20.713   5.869  0.00  0.00    +0.109 A 
ATOM      3  C   LIG    1       24.336 -20.996   6.093  0.00  0.00    +0.144 A 
ATOM      4  C   LIG    1       23.345 -20.341   5.356  0.00  0.00    +0.048 A 
ATOM      5  C   LIG    1       23.705 -19.430   4.362  0.00  0.00    +0.023 A 
ATOM      6  C   LIG    1       25.053 -19.172   4.116  0.00  0.00    +0.042 A 
ATOM      7 CL   LIG    1       25.495 -18.050   2.890  0.00  0.00    -0.084 Cl
ATOM      8  O   LIG    1       23.916 -21.885   7.048  0.00  0.00    -0.451 OA
ATOM      9  C   LIG    1       24.366 -23.166   6.825  0.00  0.00    +0.179 A 
ATOM     10  C   LIG    1       25.731 -23.479   6.805  0.00  0.00    +0.218 A 
ATOM     11  C   LIG    1       26.096 -24.811   6.577  0.00  0.00    +0.059 A 
ATOM     12  C   LIG    1       25.130 -25.800   6.368  0.00  0.00    +0.004 A 
ATOM     13  C   LIG    1       23.777 -25.472   6.404  0.00  0.00    +0.004 A 
ATOM     14  C   LIG    1       23.392 -24.153   6.640  0.00  0.00    +0.051 A 
ATOM     15  C   LIG    1       26.044 -19.805   4.863  0.00  0.00    +0.039 A 
ATOM     16  N   LIG    1       26.760 -22.572   7.094  0.00  0.00    -0.038 NA
ENDROOT
BRANCH   1  21
ATOM     17  C   LIG    1       31.157 -20.187   8.732  0.00  0.00    +0.105 C 
ATOM     18  N   LIG    1       30.351 -19.207   8.006  0.00  0.00    -0.298 NA
ATOM     19  C   LIG    1       30.136 -19.615   6.600  0.00  0.00    +0.127 C 
ATOM     20  C   LIG    1       29.148 -20.784   6.392  0.00  0.00    +0.241 C 
ATOM     21  N   LIG    1       27.852 -20.514   7.056  0.00  0.00    -0.217 N 
ATOM     22  C   LIG    1       28.026 -20.154   8.482  0.00  0.00    +0.241 C 
ATOM     23  C   LIG    1       29.036 -18.998   8.648  0.00  0.00    +0.127 C 
ENDBRANCH   1  21
TORSDOF 1
ENDMDL
MODEL 2
REMARK VINA RESULT:      -7.8      3.046      5.833
REMARK  Name = *****
REMARK                            x       y       z     vdW  Elec       q    Type
REMARK                         _______ _______ _______ _____ _____    ______ ____
ROOT
ATOM      1  C   LIG    1       25.040 -23.020   5.856  0.00  0.00    +0.325 C 
ATOM      2  C   LIG    1       25.746 -22.108   6.811  0.00  0.00    +0.109 A 
ATOM      3  C   LIG    1       25.059 -21.129   7.529  0.00  0.00    +0.144 A 
ATOM      4  C   LIG    1       25.726 -20.351   8.481  0.00  0.00    +0.048 A 
ATOM      5  C   LIG    1       27.095 -20.527   8.686  0.00  0.00    +0.023 A 
ATOM      6  C   LIG    1       27.788 -21.483   7.945  0.00  0.00    +0.042 A 
ATOM      7 CL   LIG    1       29.476 -21.697   8.198  0.00  0.00    -0.084 Cl
ATOM      8  O   LIG    1       23.716 -20.901   7.371  0.00  0.00    -0.451 OA
ATOM      9  C   LIG    1       23.386 -20.499   6.097  0.00  0.00    +0.179 A 
ATOM     10  C   LIG    1       23.614 -21.314   4.981  0.00  0.00    +0.218 A 
ATOM     11  C   LIG    1       23.240 -20.825   3.724  0.00  0.00    +0.059 A 
ATOM     12  C   LIG    1       22.662 -19.558   3.582  0.00  0.00    +0.004 A 
ATOM     13  C   LIG    1       22.432 -18.768   4.705  0.00  0.00    +0.004 A 
ATOM     14  C   LIG    1       22.787 -19.241   5.967  0.00  0.00    +0.051 A 
ATOM     15  C   LIG    1       27.123 -22.276   7.011  0.00  0.00    +0.039 A 
ATOM     16  N   LIG    1       24.101 -22.627   5.039  0.00  0.00    -0.038 NA
ENDROOT
BRANCH   1  21
ATOM     17  C   LIG    1       24.535 -27.960   6.061  0.00  0.00    +0.105 C 
ATOM     18  N   LIG    1       25.824 -27.313   5.819  0.00  0.00    -0.298 NA
ATOM     19  C   LIG    1       25.801 -26.501   4.583  0.00  0.00    +0.127 C 
ATOM     20  C   LIG    1       25.001 -25.182   4.671  0.00  0.00    +0.241 C 
ATOM     21  N   LIG    1       25.446 -24.362   5.821  0.00  0.00    -0.217 N 
ATOM     22  C   LIG    1       25.431 -25.129   7.087  0.00  0.00    +0.241 C 
ATOM     23  C   LIG    1       26.222 -26.449   6.950  0.00  0.00    +0.127 C 
ENDBRANCH   1  21
TORSDOF 1
ENDMDL
MODEL 3
REMARK VINA RESULT:      -7.4      1.844      5.640
REMARK  Name = *****
REMARK                            x       y       z     vdW  Elec       q    Type
REMARK                         _______ _______ _______ _____ _____    ______ ____
ROOT
ATOM      1  C   LIG    1       26.141 -21.805   6.485  0.00  0.00    +0.325 C 
ATOM      2  C   LIG    1       25.528 -20.769   5.593  0.00  0.00    +0.109 A 
ATOM      3  C   LIG    1       26.305 -20.000   4.726  0.00  0.00    +0.144 A 
ATOM      4  C   LIG    1       25.699 -19.105   3.840  0.00  0.00    +0.048 A 
ATOM      5  C   LIG    1       24.312 -18.948   3.850  0.00  0.00    +0.023 A 
ATOM      6  C   LIG    1       23.539 -19.693   4.740  0.00  0.00    +0.042 A 
ATOM      7 CL   LIG    1       21.830 -19.497   4.751  0.00  0.00    -0.084 Cl
ATOM      8  O   LIG    1       27.672 -20.101   4.671  0.00  0.00    -0.451 OA
ATOM      9  C   LIG    1       28.283 -19.765   5.857  0.00  0.00    +0.179 A 
ATOM     10  C   LIG    1       28.048 -20.477   7.040  0.00  0.00    +0.218 A 
ATOM     11  C   LIG    1       28.720 -20.067   8.197  0.00  0.00    +0.059 A 
ATOM     12  C   LIG    1       29.595 -18.975   8.178  0.00  0.00    +0.004 A 
ATOM     13  C   LIG    1       29.825 -18.288   6.989  0.00  0.00    +0.004 A 
ATOM     14  C   LIG    1       29.174 -18.686   5.823  0.00  0.00    +0.051 A 
ATOM     15  C   LIG    1       24.136 -20.603   5.609  0.00  0.00    +0.039 A 
ATOM     16  N   LIG    1       27.262 -21.634   7.130  0.00  0.00    -0.038 NA
ENDROOT
BRANCH   1  21
ATOM     17  C   LIG    1       24.122 -26.152   5.171  0.00  0.00    +0.105 C 
ATOM     18  N   LIG    1       24.051 -25.637   6.537  0.00  0.00    -0.298 NA
ATOM     19  C   LIG    1       25.399 -25.460   7.122  0.00  0.00    +0.127 C 
ATOM     20  C   LIG    1       26.211 -24.269   6.568  0.00  0.00    +0.241 C 
ATOM     21  N   LIG    1       25.440 -23.007   6.657  0.00  0.00    -0.217 N 
ATOM     22  C   LIG    1       24.103 -23.132   6.033  0.00  0.00    +0.241 C 
ATOM     23  C   LIG    1       23.333 -24.346   6.598  0.00  0.00    +0.127 C 
ENDBRANCH   1  21
TORSDOF 1
ENDMDL
MODEL 4
REMARK VINA RESULT:      -7.1      2.656      6.006
REMARK  Name = *****
REMARK                            x       y       z     vdW  Elec       q    Type
REMARK                         _______ _______ _______ _____ _____    ______ ____
ROOT
ATOM      1  C   LIG    1       25.665 -20.818   5.806  0.00  0.00    +0.325 C 
ATOM      2  C   LIG    1       25.701 -22.254   6.230  0.00  0.00    +0.109 A 
ATOM      3  C   LIG    1       26.242 -22.640   7.458  0.00  0.00    +0.144 A 
ATOM      4  C   LIG    1       26.181 -23.974   7.868  0.00  0.00    +0.048 A 
ATOM      5  C   LIG    1       25.615 -24.936   7.030  0.00  0.00    +0.023 A 
ATOM      6  C   LIG    1       25.104 -24.555   5.789  0.00  0.00    +0.042 A 
ATOM      7 CL   LIG    1       24.408 -25.741   4.756  0.00  0.00    -0.084 Cl
ATOM      8  O   LIG    1       26.818 -21.748   8.325  0.00  0.00    -0.451 OA
ATOM      9  C   LIG    1       27.923 -21.122   7.795  0.00  0.00    +0.179 A 
ATOM     10  C   LIG    1       27.841 -20.312   6.655  0.00  0.00    +0.218 A 
ATOM     11  C   LIG    1       29.016 -19.710   6.191  0.00  0.00    +0.059 A 
ATOM     12  C   LIG    1       30.239 -19.913   6.840  0.00  0.00    +0.004 A 
ATOM     13  C   LIG    1       30.298 -20.711   7.980  0.00  0.00    +0.004 A 
ATOM     14  C   LIG    1       29.137 -21.311   8.465  0.00  0.00    +0.051 A 
ATOM     15  C   LIG    1       25.142 -23.223   5.385  0.00  0.00    +0.039 A 
ATOM     16  N   LIG    1       26.648 -19.982   5.997  0.00  0.00    -0.038 NA
ENDROOT
BRANCH   1  21
ATOM     17  C   LIG    1       22.031 -17.668   4.556  0.00  0.00    +0.105 C 
ATOM     18  N   LIG    1       22.156 -18.996   3.958  0.00  0.00    -0.298 NA
ATOM     19  C   LIG    1       23.440 -19.150   3.241  0.00  0.00    +0.127 C 
ATOM     20  C   LIG    1       24.690 -19.286   4.138  0.00  0.00    +0.241 C 
ATOM     21  N   LIG    1       24.520 -20.371   5.132  0.00  0.00    -0.217 N 
ATOM     22  C   LIG    1       23.268 -20.219   5.907  0.00  0.00    +0.241 C 
ATOM     23  C   LIG    1       22.047 -20.065   4.974  0.00  0.00    +0.127 C 
ENDBRANCH   1  21
TORSDOF 1
ENDMDL
MODEL 5
REMARK VINA RESULT:      -7.0      6.896      9.056
REMARK  Name = *****
REMARK                            x       y       z     vdW  Elec       q    Type
REMARK                         _______ _______ _______ _____ _____    ______ ____
ROOT
ATOM      1  C   LIG    1       25.799 -29.813   8.569  0.00  0.00    +0.325 C 
ATOM      2  C   LIG    1       25.412 -28.874   7.468  0.00  0.00    +0.109 A 
ATOM      3  C   LIG    1       24.640 -29.297   6.385  0.00  0.00    +0.144 A 
ATOM      4  C   LIG    1       24.217 -28.380   5.419  0.00  0.00    +0.048 A 
ATOM      5  C   LIG    1       24.601 -27.042   5.514  0.00  0.00    +0.023 A 
ATOM      6  C   LIG    1       25.399 -26.626   6.579  0.00  0.00    +0.042 A 
ATOM      7 CL   LIG    1       25.873 -24.977   6.695  0.00  0.00    -0.084 Cl
ATOM      8  O   LIG    1       24.235 -30.597   6.228  0.00  0.00    -0.451 OA
ATOM      9  C   LIG    1       25.286 -31.475   6.094  0.00  0.00    +0.179 A 
ATOM     10  C   LIG    1       26.237 -31.652   7.106  0.00  0.00    +0.218 A 
ATOM     11  C   LIG    1       27.269 -32.571   6.885  0.00  0.00    +0.059 A 
ATOM     12  C   LIG    1       27.354 -33.289   5.687  0.00  0.00    +0.004 A 
ATOM     13  C   LIG    1       26.390 -33.109   4.697  0.00  0.00    +0.004 A 
ATOM     14  C   LIG    1       25.349 -32.205   4.902  0.00  0.00    +0.051 A 
ATOM     15  C   LIG    1       25.805 -27.531   7.557  0.00  0.00    +0.039 A 
ATOM     16  N   LIG    1       26.179 -31.045   8.369  0.00  0.00    -0.038 NA
ENDROOT
BRANCH   1  21
ATOM     17  C   LIG    1       26.444 -29.885  13.496  0.00  0.00    +0.105 C 
ATOM     18  N   LIG    1       25.941 -28.709  12.789  0.00  0.00    -0.298 NA
ATOM     19  C   LIG    1       26.923 -28.205  11.804  0.00  0.00    +0.127 C 
ATOM     20  C   LIG    1       27.090 -29.067  10.533  0.00  0.00    +0.241 C 
ATOM     21  N   LIG    1       25.784 -29.316   9.880  0.00  0.00    -0.217 N 
ATOM     22  C   LIG    1       24.790 -29.872  10.826  0.00  0.00    +0.241 C 
ATOM     23  C   LIG    1       24.669 -28.993  12.091  0.00  0.00    +0.127 C 
ENDBRANCH   1  21
TORSDOF 1
ENDMDL
