MODEL 1
REMARK VINA RESULT:      31.7      0.000      0.000
REMARK  Name = *****
REMARK                            x       y       z     vdW  Elec       q    Type
REMARK                         _______ _______ _______ _____ _____    ______ ____
ROOT
ATOM      1  C   LIG    1       22.986 -15.091   4.234  0.00  0.00    +0.107 C 
ENDROOT
BRANCH   1   2
ATOM      2  N   LIG    1       22.769 -16.554   4.136  0.00  0.00    -0.308 N 
ATOM      3  H   LIG    1       23.309 -17.164   4.742  0.00  0.00    +0.149 HD
ATOM      4  C   LIG    1       21.693 -17.102   3.457  0.00  0.00    +0.234 C 
ATOM      5  O   LIG    1       20.781 -16.423   2.991  0.00  0.00    -0.274 OA
BRANCH   4   6
ATOM      6  C   LIG    1       21.664 -18.648   3.438  0.00  0.00    +0.168 C 
BRANCH   6   7
ATOM      7  N   LIG    1       22.897 -19.143   4.062  0.00  0.00    -0.298 N 
ATOM      8  H   LIG    1       23.580 -19.642   3.501  0.00  0.00    +0.150 HD
ATOM      9  C   LIG    1       23.119 -19.061   5.426  0.00  0.00    +0.263 C 
ATOM     10  O   LIG    1       22.330 -18.582   6.207  0.00  0.00    -0.269 OA
BRANCH   9  11
ATOM     11  C   LIG    1       24.409 -19.669   5.893  0.00  0.00    +0.126 A 
ATOM     12  N   LIG    1       25.564 -19.114   5.444  0.00  0.00    -0.242 NA
ATOM     13  C   LIG    1       26.719 -19.667   5.866  0.00  0.00    +0.072 A 
ATOM     14  C   LIG    1       26.755 -20.851   6.638  0.00  0.00    +0.000 A 
ATOM     15  C   LIG    1       27.982 -21.424   7.013  0.00  0.00    +0.010 A 
ATOM     16  C   LIG    1       29.179 -20.787   6.700  0.00  0.00    +0.001 A 
ATOM     17  C   LIG    1       29.153 -19.589   5.995  0.00  0.00    +0.002 A 
ATOM     18  C   LIG    1       25.541 -21.412   7.047  0.00  0.00    +0.012 A 
ATOM     19  C   LIG    1       27.930 -19.053   5.571  0.00  0.00    +0.028 A 
ATOM     20  C   LIG    1       24.348 -20.783   6.717  0.00  0.00    +0.034 A 
ENDBRANCH   9  11
ENDBRANCH   6   7
BRANCH   6  21
ATOM     21  C   LIG    1       20.452 -19.200   4.188  0.00  0.00    +0.127 C 
BRANCH  21  22
ATOM     22  C   LIG    1       20.683 -20.621   4.647  0.00  0.00    +0.213 C 
ATOM     23  O   LIG    1       19.798 -21.400   4.976  0.00  0.00    -0.276 OA
ATOM     24  N   LIG    1       21.990 -21.013   4.644  0.00  0.00    -0.329 N 
ATOM     25  H   LIG    1       22.197 -21.953   4.956  0.00  0.00    +0.145 HD
ATOM     26  H   LIG    1       22.750 -20.428   4.327  0.00  0.00    +0.145 HD
ENDBRANCH  21  22
ENDBRANCH   6  21
ENDBRANCH   4   6
ENDBRANCH   1   2
BRANCH   1  27
ATOM     27  C   LIG    1       24.085 -14.639   3.215  0.00  0.00    +0.149 C 
BRANCH  27  28
ATOM     28  O   LIG    1       25.205 -14.239   4.031  0.00  0.00    -0.389 OA
ATOM     29  H   LIG    1       26.016 -14.563   3.603  0.00  0.00    +0.210 HD
ENDBRANCH  27  28
BRANCH  27  30
ATOM     30  C   LIG    1       24.574 -15.730   2.195  0.00  0.00    +0.118 C 
BRANCH  30  32
ATOM     31  C   LIG    1       26.866 -16.448   2.959  0.00  0.00    +0.143 C 
ATOM     32  N   LIG    1       26.058 -15.745   1.913  0.00  0.00    -0.289 NA
ATOM     33  C   LIG    1       26.644 -14.379   1.851  0.00  0.00    +0.089 C 
ATOM     34  C   LIG    1       26.442 -13.550   3.138  0.00  0.00    +0.006 C 
ATOM     35  C   LIG    1       26.913 -14.307   4.413  0.00  0.00    -0.005 C 
ATOM     36  C   LIG    1       28.375 -14.014   4.785  0.00  0.00    +0.004 C 
ATOM     37  C   LIG    1       28.661 -12.520   4.807  0.00  0.00    +0.000 C 
ATOM     38  C   LIG    1       28.457 -11.940   3.420  0.00  0.00    +0.000 C 
ATOM     39  C   LIG    1       27.015 -12.124   2.966  0.00  0.00    +0.005 C 
ATOM     40  C   LIG    1       26.671 -15.845   4.361  0.00  0.00    +0.032 C 
BRANCH  31  43
ATOM     41  N   LIG    1       25.466 -18.482   2.869  0.00  0.00    -0.309 N 
ATOM     42  H   LIG    1       24.796 -17.841   3.289  0.00  0.00    +0.149 HD
ATOM     43  C   LIG    1       26.770 -18.001   2.876  0.00  0.00    +0.231 C 
ATOM     44  O   LIG    1       27.753 -18.707   2.667  0.00  0.00    -0.274 OA
BRANCH  41  46
ATOM     45  C   LIG    1       26.098 -20.641   1.818  0.00  0.00    +0.031 C 
ATOM     46  C   LIG    1       25.027 -19.877   2.611  0.00  0.00    +0.026 C 
ATOM     47  C   LIG    1       24.793 -20.577   3.967  0.00  0.00    +0.031 C 
ATOM     48  C   LIG    1       23.692 -19.973   1.845  0.00  0.00    +0.031 C 
ENDBRANCH  41  46
ENDBRANCH  31  43
ENDBRANCH  30  32
ENDBRANCH  27  30
ENDBRANCH   1  27
BRANCH   1  49
ATOM     49  C   LIG    1       23.121 -14.645   5.707  0.00  0.00    +0.060 C 
BRANCH  49  50
ATOM     50  C   LIG    1       24.261 -13.709   6.048  0.00  0.00    -0.045 A 
ATOM     51  C   LIG    1       24.138 -12.323   5.885  0.00  0.00    +0.003 A 
ATOM     52  C   LIG    1       25.212 -11.475   6.180  0.00  0.00    +0.000 A 
ATOM     53  C   LIG    1       26.402 -11.994   6.683  0.00  0.00    +0.000 A 
ATOM     54  C   LIG    1       26.524 -13.365   6.888  0.00  0.00    +0.000 A 
ATOM     55  C   LIG    1       25.464 -14.217   6.566  0.00  0.00    +0.003 A 
ENDBRANCH  49  50
ENDBRANCH   1  49
TORSDOF 14
ENDMDL
MODEL 2
REMARK VINA RESULT:      32.8      2.195      7.191
REMARK  Name = *****
REMARK                            x       y       z     vdW  Elec       q    Type
REMARK                         _______ _______ _______ _____ _____    ______ ____
ROOT
ATOM      1  C   LIG    1       28.928 -16.968   4.893  0.00  0.00    +0.107 C 
ENDROOT
BRANCH   1   2
ATOM      2  N   LIG    1       28.559 -15.534   4.816  0.00  0.00    -0.308 N 
ATOM      3  H   LIG    1       28.454 -15.016   5.683  0.00  0.00    +0.149 HD
ATOM      4  C   LIG    1       28.608 -14.817   3.633  0.00  0.00    +0.234 C 
ATOM      5  O   LIG    1       29.070 -15.276   2.592  0.00  0.00    -0.274 OA
BRANCH   4   6
ATOM      6  C   LIG    1       28.148 -13.345   3.754  0.00  0.00    +0.168 C 
BRANCH   6   7
ATOM      7  N   LIG    1       26.869 -13.316   4.473  0.00  0.00    -0.298 N 
ATOM      8  H   LIG    1       26.640 -14.060   5.124  0.00  0.00    +0.150 HD
ATOM      9  C   LIG    1       25.897 -12.366   4.213  0.00  0.00    +0.263 C 
ATOM     10  O   LIG    1       26.015 -11.493   3.383  0.00  0.00    -0.269 OA
BRANCH   9  11
ATOM     11  C   LIG    1       24.631 -12.524   5.003  0.00  0.00    +0.126 A 
ATOM     12  N   LIG    1       23.970 -13.706   4.898  0.00  0.00    -0.242 NA
ATOM     13  C   LIG    1       22.832 -13.841   5.609  0.00  0.00    +0.072 A 
ATOM     14  C   LIG    1       22.261 -12.772   6.337  0.00  0.00    +0.000 A 
ATOM     15  C   LIG    1       21.047 -12.941   7.023  0.00  0.00    +0.010 A 
ATOM     16  C   LIG    1       20.430 -14.188   7.061  0.00  0.00    +0.001 A 
ATOM     17  C   LIG    1       21.015 -15.261   6.400  0.00  0.00    +0.002 A 
ATOM     18  C   LIG    1       22.957 -11.559   6.388  0.00  0.00    +0.012 A 
ATOM     19  C   LIG    1       22.194 -15.075   5.669  0.00  0.00    +0.028 A 
ATOM     20  C   LIG    1       24.189 -11.448   5.756  0.00  0.00    +0.034 A 
ENDBRANCH   9  11
ENDBRANCH   6   7
BRANCH   6  21
ATOM     21  C   LIG    1       29.175 -12.491   4.498  0.00  0.00    +0.127 C 
BRANCH  21  22
ATOM     22  C   LIG    1       28.722 -12.181   5.906  0.00  0.00    +0.213 C 
ATOM     23  O   LIG    1       29.447 -11.745   6.791  0.00  0.00    -0.276 OA
ATOM     24  N   LIG    1       27.394 -12.394   6.135  0.00  0.00    -0.329 N 
ATOM     25  H   LIG    1       27.046 -12.213   7.069  0.00  0.00    +0.145 HD
ATOM     26  H   LIG    1       26.744 -12.697   5.424  0.00  0.00    +0.145 HD
ENDBRANCH  21  22
ENDBRANCH   6  21
ENDBRANCH   4   6
ENDBRANCH   1   2
BRANCH   1  27
ATOM     27  C   LIG    1       28.202 -17.774   3.766  0.00  0.00    +0.149 C 
BRANCH  27  28
ATOM     28  O   LIG    1       27.767 -18.994   4.402  0.00  0.00    -0.389 OA
ATOM     29  H   LIG    1       27.125 -18.756   5.093  0.00  0.00    +0.210 HD
ENDBRANCH  27  28
BRANCH  27  30
ATOM     30  C   LIG    1       26.954 -17.078   3.111  0.00  0.00    +0.118 C 
BRANCH  30  32
ATOM     31  C   LIG    1       24.596 -17.006   4.003  0.00  0.00    +0.143 C 
ATOM     32  N   LIG    1       25.980 -16.439   4.074  0.00  0.00    -0.289 NA
ATOM     33  C   LIG    1       25.796 -14.984   3.822  0.00  0.00    +0.089 C 
ATOM     34  C   LIG    1       25.300 -14.652   2.398  0.00  0.00    +0.006 C 
ATOM     35  C   LIG    1       24.026 -15.456   2.009  0.00  0.00    -0.005 C 
ATOM     36  C   LIG    1       22.720 -14.716   2.338  0.00  0.00    +0.004 C 
ATOM     37  C   LIG    1       22.737 -13.287   1.816  0.00  0.00    +0.000 C 
ATOM     38  C   LIG    1       23.844 -12.507   2.501  0.00  0.00    +0.000 C 
ATOM     39  C   LIG    1       25.203 -13.121   2.196  0.00  0.00    +0.005 C 
ATOM     40  C   LIG    1       23.986 -16.899   2.595  0.00  0.00    +0.032 C 
BRANCH  31  43
ATOM     41  N   LIG    1       23.189 -18.951   4.588  0.00  0.00    -0.309 N 
ATOM     42  H   LIG    1       22.457 -18.260   4.438  0.00  0.00    +0.149 HD
ATOM     43  C   LIG    1       24.461 -18.397   4.691  0.00  0.00    +0.231 C 
ATOM     44  O   LIG    1       25.431 -19.008   5.128  0.00  0.00    -0.274 OA
BRANCH  41  46
ATOM     45  C   LIG    1       21.297 -20.559   4.636  0.00  0.00    +0.031 C 
ATOM     46  C   LIG    1       22.780 -20.328   4.963  0.00  0.00    +0.026 C 
ATOM     47  C   LIG    1       23.644 -21.330   4.167  0.00  0.00    +0.031 C 
ATOM     48  C   LIG    1       23.008 -20.657   6.452  0.00  0.00    +0.031 C 
ENDBRANCH  41  46
ENDBRANCH  31  43
ENDBRANCH  30  32
ENDBRANCH  27  30
ENDBRANCH   1  27
BRANCH   1  49
ATOM     49  C   LIG    1       28.837 -17.489   6.345  0.00  0.00    +0.060 C 
BRANCH  49  50
ATOM     50  C   LIG    1       28.358 -18.912   6.544  0.00  0.00    -0.045 A 
ATOM     51  C   LIG    1       27.015 -19.196   6.822  0.00  0.00    +0.003 A 
ATOM     52  C   LIG    1       26.595 -20.514   7.028  0.00  0.00    +0.000 A 
ATOM     53  C   LIG    1       27.498 -21.568   6.915  0.00  0.00    +0.000 A 
ATOM     54  C   LIG    1       28.827 -21.304   6.598  0.00  0.00    +0.000 A 
ATOM     55  C   LIG    1       29.256 -19.986   6.421  0.00  0.00    +0.003 A 
ENDBRANCH  49  50
ENDBRANCH   1  49
TORSDOF 14
ENDMDL
MODEL 3
REMARK VINA RESULT:      34.2      1.523      2.455
REMARK  Name = *****
REMARK                            x       y       z     vdW  Elec       q    Type
REMARK                         _______ _______ _______ _____ _____    ______ ____
ROOT
ATOM      1  C   LIG    1       22.736 -14.330   3.196  0.00  0.00    +0.107 C 
ENDROOT
BRANCH   1   2
ATOM      2  N   LIG    1       22.529 -15.043   4.480  0.00  0.00    -0.308 N 
ATOM      3  H   LIG    1       22.468 -14.494   5.333  0.00  0.00    +0.149 HD
ATOM      4  C   LIG    1       22.156 -16.375   4.539  0.00  0.00    +0.234 C 
ATOM      5  O   LIG    1       21.855 -17.030   3.544  0.00  0.00    -0.274 OA
BRANCH   4   6
ATOM      6  C   LIG    1       22.027 -16.944   5.971  0.00  0.00    +0.168 C 
BRANCH   6   7
ATOM      7  N   LIG    1       23.218 -17.753   6.258  0.00  0.00    -0.298 N 
ATOM      8  H   LIG    1       24.000 -17.339   6.755  0.00  0.00    +0.150 HD
ATOM      9  C   LIG    1       23.371 -19.040   5.772  0.00  0.00    +0.263 C 
ATOM     10  O   LIG    1       22.551 -19.599   5.080  0.00  0.00    -0.269 OA
BRANCH   9  11
ATOM     11  C   LIG    1       24.677 -19.695   6.118  0.00  0.00    +0.126 A 
ATOM     12  N   LIG    1       25.814 -19.096   5.678  0.00  0.00    -0.242 NA
ATOM     13  C   LIG    1       26.984 -19.690   5.991  0.00  0.00    +0.072 A 
ATOM     14  C   LIG    1       27.047 -20.948   6.634  0.00  0.00    +0.000 A 
ATOM     15  C   LIG    1       28.286 -21.557   6.895  0.00  0.00    +0.010 A 
ATOM     16  C   LIG    1       29.472 -20.891   6.598  0.00  0.00    +0.001 A 
ATOM     17  C   LIG    1       29.421 -19.627   6.022  0.00  0.00    +0.002 A 
ATOM     18  C   LIG    1       25.849 -21.548   7.036  0.00  0.00    +0.012 A 
ATOM     19  C   LIG    1       28.184 -19.049   5.709  0.00  0.00    +0.028 A 
ATOM     20  C   LIG    1       24.646 -20.887   6.824  0.00  0.00    +0.034 A 
ENDBRANCH   9  11
ENDBRANCH   6   7
BRANCH   6  21
ATOM     21  C   LIG    1       21.900 -15.832   7.013  0.00  0.00    +0.127 C 
BRANCH  21  22
ATOM     22  C   LIG    1       21.456 -14.532   6.384  0.00  0.00    +0.213 C 
ATOM     23  O   LIG    1       22.212 -13.665   5.967  0.00  0.00    -0.276 OA
ATOM     24  N   LIG    1       20.103 -14.387   6.276  0.00  0.00    -0.329 N 
ATOM     25  H   LIG    1       19.756 -13.525   5.874  0.00  0.00    +0.145 HD
ATOM     26  H   LIG    1       19.440 -15.096   6.552  0.00  0.00    +0.145 HD
ENDBRANCH  21  22
ENDBRANCH   6  21
ENDBRANCH   4   6
ENDBRANCH   1   2
BRANCH   1  27
ATOM     27  C   LIG    1       23.808 -15.074   2.334  0.00  0.00    +0.149 C 
BRANCH  27  28
ATOM     28  O   LIG    1       24.770 -14.058   1.980  0.00  0.00    -0.389 OA
ATOM     29  H   LIG    1       24.578 -13.268   2.514  0.00  0.00    +0.210 HD
ENDBRANCH  27  28
BRANCH  27  30
ATOM     30  C   LIG    1       24.566 -16.256   3.038  0.00  0.00    +0.118 C 
BRANCH  30  32
ATOM     31  C   LIG    1       26.788 -17.360   3.488  0.00  0.00    +0.143 C 
ATOM     32  N   LIG    1       25.978 -16.507   2.562  0.00  0.00    -0.289 NA
ATOM     33  C   LIG    1       26.769 -15.254   2.429  0.00  0.00    +0.089 C 
ATOM     34  C   LIG    1       26.876 -14.437   3.735  0.00  0.00    +0.006 C 
ATOM     35  C   LIG    1       27.377 -15.294   4.932  0.00  0.00    -0.005 C 
ATOM     36  C   LIG    1       28.904 -15.254   5.108  0.00  0.00    +0.004 C 
ATOM     37  C   LIG    1       29.434 -13.828   5.099  0.00  0.00    +0.000 C 
ATOM     38  C   LIG    1       29.149 -13.187   3.753  0.00  0.00    +0.000 C 
ATOM     39  C   LIG    1       27.651 -13.120   3.494  0.00  0.00    +0.005 C 
ATOM     40  C   LIG    1       26.880 -16.770   4.906  0.00  0.00    +0.032 C 
BRANCH  31  43
ATOM     41  N   LIG    1       25.060 -19.119   3.324  0.00  0.00    -0.309 N 
ATOM     42  H   LIG    1       24.488 -18.363   3.694  0.00  0.00    +0.149 HD
ATOM     43  C   LIG    1       26.426 -18.873   3.411  0.00  0.00    +0.231 C 
ATOM     44  O   LIG    1       27.280 -19.744   3.272  0.00  0.00    -0.274 OA
BRANCH  41  46
ATOM     45  C   LIG    1       22.955 -20.205   2.581  0.00  0.00    +0.031 C 
ATOM     46  C   LIG    1       24.401 -20.421   3.049  0.00  0.00    +0.026 C 
ATOM     47  C   LIG    1       25.196 -21.149   1.944  0.00  0.00    +0.031 C 
ATOM     48  C   LIG    1       24.385 -21.374   4.261  0.00  0.00    +0.031 C 
ENDBRANCH  41  46
ENDBRANCH  31  43
ENDBRANCH  30  32
ENDBRANCH  27  30
ENDBRANCH   1  27
BRANCH   1  49
ATOM     49  C   LIG    1       22.898 -12.810   3.423  0.00  0.00    +0.060 C 
BRANCH  49  50
ATOM     50  C   LIG    1       23.955 -12.365   4.412  0.00  0.00    -0.045 A 
ATOM     51  C   LIG    1       25.318 -12.411   4.092  0.00  0.00    +0.003 A 
ATOM     52  C   LIG    1       26.281 -12.020   5.028  0.00  0.00    +0.000 A 
ATOM     53  C   LIG    1       25.896 -11.537   6.276  0.00  0.00    +0.000 A 
ATOM     54  C   LIG    1       24.544 -11.447   6.593  0.00  0.00    +0.000 A 
ATOM     55  C   LIG    1       23.581 -11.865   5.671  0.00  0.00    +0.003 A 
ENDBRANCH  49  50
ENDBRANCH   1  49
TORSDOF 14
ENDMDL
