MODEL 1
REMARK VINA RESULT:      -3.4      0.000      0.000
REMARK  Name = *****
REMARK                            x       y       z     vdW  Elec       q    Type
REMARK                         _______ _______ _______ _____ _____    ______ ____
ROOT
ATOM      1  N   LIG    1       25.666 -16.036   3.559  0.00  0.00    -0.300 N 
ATOM      2  C   LIG    1       24.850 -17.184   3.686  0.00  0.00    +0.037 A 
ATOM      3  C   LIG    1       23.504 -17.173   4.110  0.00  0.00    -0.026 A 
ATOM      4  C   LIG    1       22.763 -18.381   4.107  0.00  0.00    +0.005 A 
ATOM      5  C   LIG    1       23.323 -19.587   3.699  0.00  0.00    +0.000 A 
ATOM      6  C   LIG    1       24.639 -19.610   3.271  0.00  0.00    +0.002 A 
ATOM      7  C   LIG    1       22.727 -15.953   4.558  0.00  0.00    +0.041 C 
ATOM      8  C   LIG    1       23.521 -14.759   5.067  0.00  0.00    +0.041 C 
ATOM      9  C   LIG    1       24.229 -14.065   3.939  0.00  0.00    -0.026 A 
ATOM     10  C   LIG    1       23.866 -12.757   3.578  0.00  0.00    +0.005 A 
ATOM     11  C   LIG    1       24.506 -12.101   2.528  0.00  0.00    +0.000 A 
ATOM     12  C   LIG    1       25.521 -12.747   1.830  0.00  0.00    +0.002 A 
ATOM     13  C   LIG    1       25.891 -14.042   2.191  0.00  0.00    +0.024 A 
ATOM     14  C   LIG    1       25.381 -18.427   3.264  0.00  0.00    +0.024 A 
ATOM     15  C   LIG    1       25.257 -14.721   3.246  0.00  0.00    +0.037 A 
ENDROOT
BRANCH   1  16
ATOM     16  C   LIG    1       27.029 -16.101   4.147  0.00  0.00    +0.112 C 
BRANCH  16  17
ATOM     17  C   LIG    1       27.617 -17.517   4.064  0.00  0.00    +0.035 C 
BRANCH  17  18
ATOM     18  C   LIG    1       28.740 -17.707   5.093  0.00  0.00    +0.085 C 
BRANCH  18  20
ATOM     19  C   LIG    1       29.475 -19.176   6.902  0.00  0.00    +0.104 C 
ATOM     20  N   LIG    1       28.880 -19.096   5.565  0.00  0.00    -0.308 NA
ATOM     21  C   LIG    1       27.574 -19.763   5.567  0.00  0.00    +0.104 C 
ENDBRANCH  18  20
ENDBRANCH  17  18
ENDBRANCH  16  17
ENDBRANCH   1  16
TORSDOF 4
ENDMDL
MODEL 2
REMARK VINA RESULT:      -2.9      2.056      2.974
REMARK  Name = *****
REMARK                            x       y       z     vdW  Elec       q    Type
REMARK                         _______ _______ _______ _____ _____    ______ ____
ROOT
ATOM      1  N   LIG    1       25.261 -15.905   3.404  0.00  0.00    -0.300 N 
ATOM      2  C   LIG    1       24.393 -16.976   3.724  0.00  0.00    +0.037 A 
ATOM      3  C   LIG    1       23.210 -16.854   4.484  0.00  0.00    -0.026 A 
ATOM      4  C   LIG    1       22.376 -17.986   4.658  0.00  0.00    +0.005 A 
ATOM      5  C   LIG    1       22.687 -19.223   4.103  0.00  0.00    +0.000 A 
ATOM      6  C   LIG    1       23.840 -19.353   3.349  0.00  0.00    +0.002 A 
ATOM      7  C   LIG    1       22.702 -15.584   5.132  0.00  0.00    +0.041 C 
ATOM      8  C   LIG    1       23.715 -14.490   5.433  0.00  0.00    +0.041 C 
ATOM      9  C   LIG    1       24.176 -13.824   4.168  0.00  0.00    -0.026 A 
ATOM     10  C   LIG    1       23.866 -12.475   3.930  0.00  0.00    +0.005 A 
ATOM     11  C   LIG    1       24.278 -11.843   2.758  0.00  0.00    +0.000 A 
ATOM     12  C   LIG    1       25.009 -12.554   1.812  0.00  0.00    +0.002 A 
ATOM     13  C   LIG    1       25.327 -13.891   2.049  0.00  0.00    +0.024 A 
ATOM     14  C   LIG    1       24.671 -18.246   3.164  0.00  0.00    +0.024 A 
ATOM     15  C   LIG    1       24.920 -14.547   3.224  0.00  0.00    +0.037 A 
ENDROOT
BRANCH   1  16
ATOM     16  C   LIG    1       26.715 -16.121   3.617  0.00  0.00    +0.112 C 
BRANCH  16  17
ATOM     17  C   LIG    1       27.315 -15.065   4.557  0.00  0.00    +0.035 C 
BRANCH  17  18
ATOM     18  C   LIG    1       28.087 -13.999   3.766  0.00  0.00    +0.085 C 
BRANCH  18  20
ATOM     19  C   LIG    1       27.236 -12.622   5.596  0.00  0.00    +0.104 C 
ATOM     20  N   LIG    1       27.951 -12.639   4.317  0.00  0.00    -0.308 NA
ATOM     21  C   LIG    1       29.273 -12.027   4.483  0.00  0.00    +0.104 C 
ENDBRANCH  18  20
ENDBRANCH  17  18
ENDBRANCH  16  17
ENDBRANCH   1  16
TORSDOF 4
ENDMDL
MODEL 3
REMARK VINA RESULT:      -1.8      1.802      4.354
REMARK  Name = *****
REMARK                            x       y       z     vdW  Elec       q    Type
REMARK                         _______ _______ _______ _____ _____    ______ ____
ROOT
ATOM      1  N   LIG    1       25.560 -18.069   3.875  0.00  0.00    -0.300 N 
ATOM      2  C   LIG    1       26.813 -18.385   4.451  0.00  0.00    +0.037 A 
ATOM      3  C   LIG    1       27.875 -17.471   4.620  0.00  0.00    -0.026 A 
ATOM      4  C   LIG    1       29.049 -17.886   5.296  0.00  0.00    +0.005 A 
ATOM      5  C   LIG    1       29.191 -19.175   5.800  0.00  0.00    +0.000 A 
ATOM      6  C   LIG    1       28.154 -20.077   5.649  0.00  0.00    +0.002 A 
ATOM      7  C   LIG    1       27.881 -16.028   4.164  0.00  0.00    +0.041 C 
ATOM      8  C   LIG    1       26.938 -15.640   3.035  0.00  0.00    +0.041 C 
ATOM      9  C   LIG    1       25.513 -15.629   3.507  0.00  0.00    -0.026 A 
ATOM     10  C   LIG    1       24.796 -14.421   3.554  0.00  0.00    +0.005 A 
ATOM     11  C   LIG    1       23.475 -14.391   3.998  0.00  0.00    +0.000 A 
ATOM     12  C   LIG    1       22.855 -15.571   4.395  0.00  0.00    +0.002 A 
ATOM     13  C   LIG    1       23.559 -16.773   4.341  0.00  0.00    +0.024 A 
ATOM     14  C   LIG    1       26.988 -19.682   4.989  0.00  0.00    +0.024 A 
ATOM     15  C   LIG    1       24.893 -16.824   3.898  0.00  0.00    +0.037 A 
ENDROOT
BRANCH   1  16
ATOM     16  C   LIG    1       25.031 -18.998   2.843  0.00  0.00    +0.112 C 
BRANCH  16  17
ATOM     17  C   LIG    1       23.750 -19.701   3.314  0.00  0.00    +0.035 C 
BRANCH  17  18
ATOM     18  C   LIG    1       24.069 -21.063   3.945  0.00  0.00    +0.085 C 
BRANCH  18  20
ATOM     19  C   LIG    1       24.413 -21.571   6.310  0.00  0.00    +0.104 C 
ATOM     20  N   LIG    1       23.437 -21.268   5.261  0.00  0.00    -0.308 NA
ATOM     21  C   LIG    1       22.661 -20.083   5.638  0.00  0.00    +0.104 C 
ENDBRANCH  18  20
ENDBRANCH  17  18
ENDBRANCH  16  17
ENDBRANCH   1  16
TORSDOF 4
ENDMDL
MODEL 4
REMARK VINA RESULT:      -1.3      1.705      5.713
REMARK  Name = *****
REMARK                            x       y       z     vdW  Elec       q    Type
REMARK                         _______ _______ _______ _____ _____    ______ ____
ROOT
ATOM      1  N   LIG    1       25.656 -18.716   4.394  0.00  0.00    -0.300 N 
ATOM      2  C   LIG    1       24.244 -18.641   4.382  0.00  0.00    +0.037 A 
ATOM      3  C   LIG    1       23.379 -19.689   4.764  0.00  0.00    -0.026 A 
ATOM      4  C   LIG    1       21.981 -19.460   4.797  0.00  0.00    +0.005 A 
ATOM      5  C   LIG    1       21.428 -18.228   4.461  0.00  0.00    +0.000 A 
ATOM      6  C   LIG    1       22.266 -17.191   4.093  0.00  0.00    +0.002 A 
ATOM      7  C   LIG    1       23.805 -21.078   5.189  0.00  0.00    +0.041 C 
ATOM      8  C   LIG    1       25.166 -21.572   4.723  0.00  0.00    +0.041 C 
ATOM      9  C   LIG    1       26.272 -20.860   5.448  0.00  0.00    -0.026 A 
ATOM     10  C   LIG    1       27.113 -21.572   6.320  0.00  0.00    +0.005 A 
ATOM     11  C   LIG    1       28.139 -20.926   7.009  0.00  0.00    +0.000 A 
ATOM     12  C   LIG    1       28.337 -19.561   6.829  0.00  0.00    +0.002 A 
ATOM     13  C   LIG    1       27.510 -18.854   5.957  0.00  0.00    +0.024 A 
ATOM     14  C   LIG    1       23.647 -17.399   4.060  0.00  0.00    +0.024 A 
ATOM     15  C   LIG    1       26.469 -19.486   5.254  0.00  0.00    +0.037 A 
ENDROOT
BRANCH   1  16
ATOM     16  C   LIG    1       26.373 -18.236   3.184  0.00  0.00    +0.112 C 
BRANCH  16  17
ATOM     17  C   LIG    1       27.126 -16.925   3.452  0.00  0.00    +0.035 C 
BRANCH  17  18
ATOM     18  C   LIG    1       26.191 -15.715   3.311  0.00  0.00    +0.085 C 
BRANCH  18  20
ATOM     19  C   LIG    1       25.829 -13.541   2.257  0.00  0.00    +0.104 C 
ATOM     20  N   LIG    1       26.808 -14.569   2.619  0.00  0.00    -0.308 NA
ATOM     21  C   LIG    1       27.855 -13.977   3.459  0.00  0.00    +0.104 C 
ENDBRANCH  18  20
ENDBRANCH  17  18
ENDBRANCH  16  17
ENDBRANCH   1  16
TORSDOF 4
ENDMDL
MODEL 5
REMARK VINA RESULT:      -1.2      1.830      4.845
REMARK  Name = *****
REMARK                            x       y       z     vdW  Elec       q    Type
REMARK                         _______ _______ _______ _____ _____    ______ ____
ROOT
ATOM      1  N   LIG    1       26.065 -18.736   3.948  0.00  0.00    -0.300 N 
ATOM      2  C   LIG    1       26.591 -19.585   4.950  0.00  0.00    +0.037 A 
ATOM      3  C   LIG    1       27.781 -19.342   5.669  0.00  0.00    -0.026 A 
ATOM      4  C   LIG    1       28.154 -20.223   6.714  0.00  0.00    +0.005 A 
ATOM      5  C   LIG    1       27.382 -21.328   7.057  0.00  0.00    +0.000 A 
ATOM      6  C   LIG    1       26.208 -21.572   6.366  0.00  0.00    +0.002 A 
ATOM      7  C   LIG    1       28.723 -18.178   5.453  0.00  0.00    +0.041 C 
ATOM      8  C   LIG    1       28.700 -17.494   4.094  0.00  0.00    +0.041 C 
ATOM      9  C   LIG    1       27.444 -16.689   3.920  0.00  0.00    -0.026 A 
ATOM     10  C   LIG    1       27.513 -15.289   3.821  0.00  0.00    +0.005 A 
ATOM     11  C   LIG    1       26.356 -14.526   3.669  0.00  0.00    +0.000 A 
ATOM     12  C   LIG    1       25.118 -15.156   3.609  0.00  0.00    +0.002 A 
ATOM     13  C   LIG    1       25.046 -16.545   3.697  0.00  0.00    +0.024 A 
ATOM     14  C   LIG    1       25.824 -20.711   5.336  0.00  0.00    +0.024 A 
ATOM     15  C   LIG    1       26.200 -17.334   3.853  0.00  0.00    +0.037 A 
ENDROOT
BRANCH   1  16
ATOM     16  C   LIG    1       25.630 -19.370   2.677  0.00  0.00    +0.112 C 
BRANCH  16  17
ATOM     17  C   LIG    1       24.507 -20.392   2.907  0.00  0.00    +0.035 C 
BRANCH  17  18
ATOM     18  C   LIG    1       23.153 -19.691   3.086  0.00  0.00    +0.085 C 
BRANCH  18  20
ATOM     19  C   LIG    1       21.978 -18.173   4.597  0.00  0.00    +0.104 C 
ATOM     20  N   LIG    1       22.845 -19.349   4.486  0.00  0.00    -0.308 NA
ATOM     21  C   LIG    1       22.214 -20.490   5.157  0.00  0.00    +0.104 C 
ENDBRANCH  18  20
ENDBRANCH  17  18
ENDBRANCH  16  17
ENDBRANCH   1  16
TORSDOF 4
ENDMDL
MODEL 6
REMARK VINA RESULT:      -0.5      1.683      5.610
REMARK  Name = *****
REMARK                            x       y       z     vdW  Elec       q    Type
REMARK                         _______ _______ _______ _____ _____    ______ ____
ROOT
ATOM      1  N   LIG    1       26.086 -18.902   4.432  0.00  0.00    -0.300 N 
ATOM      2  C   LIG    1       24.722 -19.138   4.727  0.00  0.00    +0.037 A 
ATOM      3  C   LIG    1       24.245 -20.186   5.544  0.00  0.00    -0.026 A 
ATOM      4  C   LIG    1       22.862 -20.262   5.840  0.00  0.00    +0.005 A 
ATOM      5  C   LIG    1       21.951 -19.333   5.347  0.00  0.00    +0.000 A 
ATOM      6  C   LIG    1       22.408 -18.296   4.554  0.00  0.00    +0.002 A 
ATOM      7  C   LIG    1       25.092 -21.263   6.187  0.00  0.00    +0.041 C 
ATOM      8  C   LIG    1       26.443 -21.569   5.557  0.00  0.00    +0.041 C 
ATOM      9  C   LIG    1       27.418 -20.456   5.811  0.00  0.00    -0.026 A 
ATOM     10  C   LIG    1       28.549 -20.680   6.614  0.00  0.00    +0.005 A 
ATOM     11  C   LIG    1       29.460 -19.657   6.868  0.00  0.00    +0.000 A 
ATOM     12  C   LIG    1       29.251 -18.397   6.317  0.00  0.00    +0.002 A 
ATOM     13  C   LIG    1       28.135 -18.172   5.512  0.00  0.00    +0.024 A 
ATOM     14  C   LIG    1       23.769 -18.204   4.256  0.00  0.00    +0.024 A 
ATOM     15  C   LIG    1       27.203 -19.191   5.245  0.00  0.00    +0.037 A 
ENDROOT
BRANCH   1  16
ATOM     16  C   LIG    1       26.442 -18.659   3.011  0.00  0.00    +0.112 C 
BRANCH  16  17
ATOM     17  C   LIG    1       26.034 -17.251   2.555  0.00  0.00    +0.035 C 
BRANCH  17  18
ATOM     18  C   LIG    1       26.781 -16.175   3.355  0.00  0.00    +0.085 C 
BRANCH  18  20
ATOM     19  C   LIG    1       25.179 -14.381   3.783  0.00  0.00    +0.104 C 
ATOM     20  N   LIG    1       26.364 -14.799   3.030  0.00  0.00    -0.308 NA
ATOM     21  C   LIG    1       27.465 -13.865   3.286  0.00  0.00    +0.104 C 
ENDBRANCH  18  20
ENDBRANCH  17  18
ENDBRANCH  16  17
ENDBRANCH   1  16
TORSDOF 4
ENDMDL
