MODEL 1
REMARK VINA RESULT:      -5.2      0.000      0.000
REMARK  Name = *****
REMARK                            x       y       z     vdW  Elec       q    Type
REMARK                         _______ _______ _______ _____ _____    ______ ____
ROOT
ATOM      1  C   LIG    1       26.128 -16.313   3.482  0.00  0.00    +0.234 C 
ATOM      2  N   LIG    1       24.841 -16.785   3.625  0.00  0.00    -0.284 N 
ATOM      3  H   LIG    1       24.131 -16.057   3.621  0.00  0.00    +0.155 HD
ATOM      4  O   LIG    1       27.146 -17.000   3.367  0.00  0.00    -0.274 OA
ENDROOT
BRANCH   2   5
ATOM      5  C   LIG    1       24.421 -18.124   3.831  0.00  0.00    +0.036 A 
ATOM      6  C   LIG    1       23.117 -18.390   4.295  0.00  0.00    -0.029 A 
ATOM      7  C   LIG    1       22.132 -17.309   4.645  0.00  0.00    +0.045 C 
ATOM      8  C   LIG    1       22.676 -19.728   4.379  0.00  0.00    +0.005 A 
ATOM      9  C   LIG    1       23.532 -20.788   4.086  0.00  0.00    +0.000 A 
ATOM     10  C   LIG    1       24.841 -20.527   3.713  0.00  0.00    +0.002 A 
ATOM     11  C   LIG    1       25.279 -19.206   3.583  0.00  0.00    +0.023 A 
ENDBRANCH   2   5
BRANCH   1  12
ATOM     12  C   LIG    1       26.247 -14.778   3.409  0.00  0.00    +0.138 C 
ATOM     13  C   LIG    1       27.604 -14.314   3.941  0.00  0.00    +0.034 C 
BRANCH  12  14
ATOM     14  N   LIG    1       26.047 -14.281   2.017  0.00  0.00    -0.306 NA
ATOM     15  H   LIG    1       26.970 -14.037   1.646  0.00  0.00    +0.123 HD
BRANCH  14  16
ATOM     16  C   LIG    1       25.222 -13.061   2.009  0.00  0.00    +0.081 C 
BRANCH  16  18
ATOM     17  C   LIG    1       23.884 -11.949   3.834  0.00  0.00    +0.005 C 
ATOM     18  C   LIG    1       24.059 -13.206   2.992  0.00  0.00    +0.012 C 
ENDBRANCH  16  18
ENDBRANCH  14  16
ENDBRANCH  12  14
ENDBRANCH   1  12
TORSDOF 5
ENDMDL
MODEL 2
REMARK VINA RESULT:      -5.2      1.415      5.422
REMARK  Name = *****
REMARK                            x       y       z     vdW  Elec       q    Type
REMARK                         _______ _______ _______ _____ _____    ______ ____
ROOT
ATOM      1  C   LIG    1       26.253 -17.763   3.685  0.00  0.00    +0.234 C 
ATOM      2  N   LIG    1       25.287 -16.804   3.461  0.00  0.00    -0.284 N 
ATOM      3  H   LIG    1       24.356 -17.185   3.311  0.00  0.00    +0.155 HD
ATOM      4  O   LIG    1       27.432 -17.550   3.980  0.00  0.00    -0.274 OA
ENDROOT
BRANCH   2   5
ATOM      5  C   LIG    1       25.459 -15.401   3.359  0.00  0.00    +0.036 A 
ATOM      6  C   LIG    1       24.486 -14.531   3.893  0.00  0.00    -0.029 A 
ATOM      7  C   LIG    1       23.216 -15.015   4.537  0.00  0.00    +0.045 C 
ATOM      8  C   LIG    1       24.729 -13.142   3.890  0.00  0.00    +0.005 A 
ATOM      9  C   LIG    1       25.876 -12.612   3.300  0.00  0.00    +0.000 A 
ATOM     10  C   LIG    1       26.790 -13.463   2.698  0.00  0.00    +0.002 A 
ATOM     11  C   LIG    1       26.584 -14.845   2.732  0.00  0.00    +0.023 A 
ENDBRANCH   2   5
BRANCH   1  12
ATOM     12  C   LIG    1       25.750 -19.217   3.604  0.00  0.00    +0.138 C 
ATOM     13  C   LIG    1       26.199 -20.015   4.830  0.00  0.00    +0.034 C 
BRANCH  12  14
ATOM     14  N   LIG    1       24.266 -19.274   3.473  0.00  0.00    -0.306 NA
ATOM     15  H   LIG    1       23.904 -18.346   3.711  0.00  0.00    +0.123 HD
BRANCH  14  16
ATOM     16  C   LIG    1       23.692 -20.239   4.427  0.00  0.00    +0.081 C 
BRANCH  16  18
ATOM     17  C   LIG    1       22.016 -18.356   4.471  0.00  0.00    +0.005 C 
ATOM     18  C   LIG    1       22.526 -19.602   5.184  0.00  0.00    +0.012 C 
ENDBRANCH  16  18
ENDBRANCH  14  16
ENDBRANCH  12  14
ENDBRANCH   1  12
TORSDOF 5
ENDMDL
MODEL 3
REMARK VINA RESULT:      -5.1      1.234      1.994
REMARK  Name = *****
REMARK                            x       y       z     vdW  Elec       q    Type
REMARK                         _______ _______ _______ _____ _____    ______ ____
ROOT
ATOM      1  C   LIG    1       25.698 -16.620   3.353  0.00  0.00    +0.234 C 
ATOM      2  N   LIG    1       24.514 -17.302   3.541  0.00  0.00    -0.284 N 
ATOM      3  H   LIG    1       23.684 -16.741   3.368  0.00  0.00    +0.155 HD
ATOM      4  O   LIG    1       26.832 -17.104   3.413  0.00  0.00    -0.274 OA
ENDROOT
BRANCH   2   5
ATOM      5  C   LIG    1       24.337 -18.635   3.993  0.00  0.00    +0.036 A 
ATOM      6  C   LIG    1       23.058 -19.083   4.380  0.00  0.00    -0.029 A 
ATOM      7  C   LIG    1       21.844 -18.195   4.393  0.00  0.00    +0.045 C 
ATOM      8  C   LIG    1       22.877 -20.442   4.713  0.00  0.00    +0.005 A 
ATOM      9  C   LIG    1       23.954 -21.327   4.738  0.00  0.00    +0.000 A 
ATOM     10  C   LIG    1       25.227 -20.864   4.441  0.00  0.00    +0.002 A 
ATOM     11  C   LIG    1       25.414 -19.531   4.068  0.00  0.00    +0.023 A 
ENDBRANCH   2   5
BRANCH   1  12
ATOM     12  C   LIG    1       25.534 -15.134   2.981  0.00  0.00    +0.138 C 
ATOM     13  C   LIG    1       25.027 -14.329   4.179  0.00  0.00    +0.034 C 
BRANCH  12  14
ATOM     14  N   LIG    1       26.813 -14.553   2.479  0.00  0.00    -0.306 NA
ATOM     15  H   LIG    1       27.560 -15.215   2.711  0.00  0.00    +0.123 HD
BRANCH  14  16
ATOM     16  C   LIG    1       27.113 -13.281   3.159  0.00  0.00    +0.081 C 
BRANCH  16  18
ATOM     17  C   LIG    1       28.729 -12.246   4.793  0.00  0.00    +0.005 C 
ATOM     18  C   LIG    1       28.537 -13.304   3.715  0.00  0.00    +0.012 C 
ENDBRANCH  16  18
ENDBRANCH  14  16
ENDBRANCH  12  14
ENDBRANCH   1  12
TORSDOF 5
ENDMDL
MODEL 4
REMARK VINA RESULT:      -4.8      1.744      5.947
REMARK  Name = *****
REMARK                            x       y       z     vdW  Elec       q    Type
REMARK                         _______ _______ _______ _____ _____    ______ ____
ROOT
ATOM      1  C   LIG    1       24.927 -18.303   3.675  0.00  0.00    +0.234 C 
ATOM      2  N   LIG    1       24.527 -16.983   3.673  0.00  0.00    -0.284 N 
ATOM      3  H   LIG    1       23.520 -16.857   3.611  0.00  0.00    +0.155 HD
ATOM      4  O   LIG    1       26.080 -18.712   3.831  0.00  0.00    -0.274 OA
ENDROOT
BRANCH   2   5
ATOM      5  C   LIG    1       25.345 -15.824   3.686  0.00  0.00    +0.036 A 
ATOM      6  C   LIG    1       24.785 -14.570   4.006  0.00  0.00    -0.029 A 
ATOM      7  C   LIG    1       23.322 -14.372   4.292  0.00  0.00    +0.045 C 
ATOM      8  C   LIG    1       25.633 -13.450   4.132  0.00  0.00    +0.005 A 
ATOM      9  C   LIG    1       26.998 -13.547   3.871  0.00  0.00    +0.000 A 
ATOM     10  C   LIG    1       27.533 -14.763   3.471  0.00  0.00    +0.002 A 
ATOM     11  C   LIG    1       26.713 -15.891   3.385  0.00  0.00    +0.023 A 
ENDBRANCH   2   5
BRANCH   1  12
ATOM     12  C   LIG    1       23.783 -19.323   3.520  0.00  0.00    +0.138 C 
ATOM     13  C   LIG    1       24.337 -20.718   3.224  0.00  0.00    +0.034 C 
BRANCH  12  14
ATOM     14  N   LIG    1       22.920 -19.363   4.735  0.00  0.00    -0.306 NA
ATOM     15  H   LIG    1       23.359 -18.765   5.441  0.00  0.00    +0.123 HD
BRANCH  14  16
ATOM     16  C   LIG    1       22.851 -20.729   5.284  0.00  0.00    +0.081 C 
BRANCH  16  18
ATOM     17  C   LIG    1       24.799 -20.744   6.885  0.00  0.00    +0.005 C 
ATOM     18  C   LIG    1       23.282 -20.729   6.751  0.00  0.00    +0.012 C 
ENDBRANCH  16  18
ENDBRANCH  14  16
ENDBRANCH  12  14
ENDBRANCH   1  12
TORSDOF 5
ENDMDL
MODEL 5
REMARK VINA RESULT:      -4.8      1.637      2.753
REMARK  Name = *****
REMARK                            x       y       z     vdW  Elec       q    Type
REMARK                         _______ _______ _______ _____ _____    ______ ____
ROOT
ATOM      1  C   LIG    1       25.302 -15.919   3.513  0.00  0.00    +0.234 C 
ATOM      2  N   LIG    1       25.363 -17.296   3.453  0.00  0.00    -0.284 N 
ATOM      3  H   LIG    1       26.198 -17.652   2.995  0.00  0.00    +0.155 HD
ATOM      4  O   LIG    1       24.440 -15.255   4.094  0.00  0.00    -0.274 OA
ENDROOT
BRANCH   2   5
ATOM      5  C   LIG    1       24.392 -18.232   3.892  0.00  0.00    +0.036 A 
ATOM      6  C   LIG    1       24.799 -19.472   4.425  0.00  0.00    -0.029 A 
ATOM      7  C   LIG    1       26.239 -19.897   4.511  0.00  0.00    +0.045 C 
ATOM      8  C   LIG    1       23.828 -20.340   4.966  0.00  0.00    +0.005 A 
ATOM      9  C   LIG    1       22.471 -20.026   4.914  0.00  0.00    +0.000 A 
ATOM     10  C   LIG    1       22.066 -18.844   4.311  0.00  0.00    +0.002 A 
ATOM     11  C   LIG    1       23.019 -17.955   3.809  0.00  0.00    +0.023 A 
ENDBRANCH   2   5
BRANCH   1  12
ATOM     12  C   LIG    1       26.472 -15.191   2.822  0.00  0.00    +0.138 C 
ATOM     13  C   LIG    1       26.013 -13.847   2.254  0.00  0.00    +0.034 C 
BRANCH  12  14
ATOM     14  N   LIG    1       27.615 -14.987   3.757  0.00  0.00    -0.306 NA
ATOM     15  H   LIG    1       27.255 -15.106   4.709  0.00  0.00    +0.123 HD
BRANCH  14  16
ATOM     16  C   LIG    1       28.145 -13.617   3.645  0.00  0.00    +0.081 C 
BRANCH  16  18
ATOM     17  C   LIG    1       26.896 -13.340   5.817  0.00  0.00    +0.005 C 
ATOM     18  C   LIG    1       28.121 -12.930   5.011  0.00  0.00    +0.012 C 
ENDBRANCH  16  18
ENDBRANCH  14  16
ENDBRANCH  12  14
ENDBRANCH   1  12
TORSDOF 5
ENDMDL
MODEL 6
REMARK VINA RESULT:      -4.7      1.919      6.151
REMARK  Name = *****
REMARK                            x       y       z     vdW  Elec       q    Type
REMARK                         _______ _______ _______ _____ _____    ______ ____
ROOT
ATOM      1  C   LIG    1       24.511 -18.129   3.736  0.00  0.00    +0.234 C 
ATOM      2  N   LIG    1       25.363 -17.066   3.522  0.00  0.00    -0.284 N 
ATOM      3  H   LIG    1       26.290 -17.338   3.204  0.00  0.00    +0.155 HD
ATOM      4  O   LIG    1       23.316 -18.054   4.035  0.00  0.00    -0.274 OA
ENDROOT
BRANCH   2   5
ATOM      5  C   LIG    1       25.112 -15.689   3.748  0.00  0.00    +0.036 A 
ATOM      6  C   LIG    1       26.189 -14.784   3.845  0.00  0.00    -0.029 A 
ATOM      7  C   LIG    1       27.630 -15.210   3.774  0.00  0.00    +0.045 C 
ATOM      8  C   LIG    1       25.920 -13.404   3.950  0.00  0.00    +0.005 A 
ATOM      9  C   LIG    1       24.612 -12.929   4.035  0.00  0.00    +0.000 A 
ATOM     10  C   LIG    1       23.557 -13.828   4.026  0.00  0.00    +0.002 A 
ATOM     11  C   LIG    1       23.806 -15.195   3.879  0.00  0.00    +0.023 A 
ENDBRANCH   2   5
BRANCH   1  12
ATOM     12  C   LIG    1       25.143 -19.517   3.515  0.00  0.00    +0.138 C 
ATOM     13  C   LIG    1       26.176 -19.821   4.602  0.00  0.00    +0.034 C 
BRANCH  12  14
ATOM     14  N   LIG    1       24.108 -20.589   3.481  0.00  0.00    -0.306 NA
ATOM     15  H   LIG    1       23.193 -20.129   3.479  0.00  0.00    +0.123 HD
BRANCH  14  16
ATOM     16  C   LIG    1       24.185 -21.431   4.688  0.00  0.00    +0.081 C 
BRANCH  16  18
ATOM     17  C   LIG    1       23.365 -20.751   6.973  0.00  0.00    +0.005 C 
ATOM     18  C   LIG    1       22.961 -21.194   5.573  0.00  0.00    +0.012 C 
ENDBRANCH  16  18
ENDBRANCH  14  16
ENDBRANCH  12  14
ENDBRANCH   1  12
TORSDOF 5
ENDMDL
MODEL 7
REMARK VINA RESULT:      -4.6      1.781      3.139
REMARK  Name = *****
REMARK                            x       y       z     vdW  Elec       q    Type
REMARK                         _______ _______ _______ _____ _____    ______ ____
ROOT
ATOM      1  C   LIG    1       24.054 -15.073   4.148  0.00  0.00    +0.234 C 
ATOM      2  N   LIG    1       24.494 -16.321   3.761  0.00  0.00    -0.284 N 
ATOM      3  H   LIG    1       25.353 -16.305   3.217  0.00  0.00    +0.155 HD
ATOM      4  O   LIG    1       23.094 -14.838   4.885  0.00  0.00    -0.274 OA
ENDROOT
BRANCH   2   5
ATOM      5  C   LIG    1       23.866 -17.574   3.981  0.00  0.00    +0.036 A 
ATOM      6  C   LIG    1       24.608 -18.766   3.852  0.00  0.00    -0.029 A 
ATOM      7  C   LIG    1       26.052 -18.794   3.434  0.00  0.00    +0.045 C 
ATOM      8  C   LIG    1       24.001 -19.993   4.190  0.00  0.00    +0.005 A 
ATOM      9  C   LIG    1       22.663 -20.054   4.574  0.00  0.00    +0.000 A 
ATOM     10  C   LIG    1       21.910 -18.890   4.616  0.00  0.00    +0.002 A 
ATOM     11  C   LIG    1       22.509 -17.661   4.326  0.00  0.00    +0.023 A 
ENDBRANCH   2   5
BRANCH   1  12
ATOM     12  C   LIG    1       24.909 -13.899   3.631  0.00  0.00    +0.138 C 
ATOM     13  C   LIG    1       24.083 -12.988   2.721  0.00  0.00    +0.034 C 
BRANCH  12  14
ATOM     14  N   LIG    1       25.488 -13.110   4.755  0.00  0.00    -0.306 NA
ATOM     15  H   LIG    1       25.686 -12.170   4.397  0.00  0.00    +0.123 HD
BRANCH  14  16
ATOM     16  C   LIG    1       26.763 -13.697   5.205  0.00  0.00    +0.081 C 
BRANCH  16  18
ATOM     17  C   LIG    1       28.700 -13.011   3.746  0.00  0.00    +0.005 C 
ATOM     18  C   LIG    1       27.629 -14.062   4.000  0.00  0.00    +0.012 C 
ENDBRANCH  16  18
ENDBRANCH  14  16
ENDBRANCH  12  14
ENDBRANCH   1  12
TORSDOF 5
ENDMDL
MODEL 8
REMARK VINA RESULT:      -4.2      1.498      5.576
REMARK  Name = *****
REMARK                            x       y       z     vdW  Elec       q    Type
REMARK                         _______ _______ _______ _____ _____    ______ ____
ROOT
ATOM      1  C   LIG    1       26.965 -15.925   3.667  0.00  0.00    +0.234 C 
ATOM      2  N   LIG    1       25.711 -15.562   3.223  0.00  0.00    -0.284 N 
ATOM      3  H   LIG    1       25.137 -16.347   2.922  0.00  0.00    +0.155 HD
ATOM      4  O   LIG    1       27.805 -15.170   4.163  0.00  0.00    -0.274 OA
ENDROOT
BRANCH   2   5
ATOM      5  C   LIG    1       25.178 -14.255   3.086  0.00  0.00    +0.036 A 
ATOM      6  C   LIG    1       24.063 -13.865   3.857  0.00  0.00    -0.029 A 
ATOM      7  C   LIG    1       23.352 -14.793   4.803  0.00  0.00    +0.045 C 
ATOM      8  C   LIG    1       23.621 -12.527   3.797  0.00  0.00    +0.005 A 
ATOM      9  C   LIG    1       24.217 -11.608   2.936  0.00  0.00    +0.000 A 
ATOM     10  C   LIG    1       25.258 -12.016   2.115  0.00  0.00    +0.002 A 
ATOM     11  C   LIG    1       25.735 -13.327   2.194  0.00  0.00    +0.023 A 
ENDBRANCH   2   5
BRANCH   1  12
ATOM     12  C   LIG    1       27.275 -17.431   3.564  0.00  0.00    +0.138 C 
ATOM     13  C   LIG    1       28.043 -17.910   4.797  0.00  0.00    +0.034 C 
BRANCH  12  14
ATOM     14  N   LIG    1       26.030 -18.233   3.395  0.00  0.00    -0.306 NA
ATOM     15  H   LIG    1       25.244 -17.639   3.675  0.00  0.00    +0.123 HD
BRANCH  14  16
ATOM     16  C   LIG    1       26.041 -19.411   4.280  0.00  0.00    +0.081 C 
BRANCH  16  18
ATOM     17  C   LIG    1       23.529 -19.426   4.062  0.00  0.00    +0.005 C 
ATOM     18  C   LIG    1       24.798 -20.267   4.033  0.00  0.00    +0.012 C 
ENDBRANCH  16  18
ENDBRANCH  14  16
ENDBRANCH  12  14
ENDBRANCH   1  12
TORSDOF 5
ENDMDL
MODEL 9
REMARK VINA RESULT:      -4.2      2.141      5.965
REMARK  Name = *****
REMARK                            x       y       z     vdW  Elec       q    Type
REMARK                         _______ _______ _______ _____ _____    ______ ____
ROOT
ATOM      1  C   LIG    1       25.512 -18.099   3.405  0.00  0.00    +0.234 C 
ATOM      2  N   LIG    1       25.249 -16.916   4.062  0.00  0.00    -0.284 N 
ATOM      3  H   LIG    1       24.833 -17.039   4.983  0.00  0.00    +0.155 HD
ATOM      4  O   LIG    1       26.093 -18.215   2.322  0.00  0.00    -0.274 OA
ENDROOT
BRANCH   2   5
ATOM      5  C   LIG    1       25.431 -15.593   3.584  0.00  0.00    +0.036 A 
ATOM      6  C   LIG    1       24.431 -14.623   3.799  0.00  0.00    -0.029 A 
ATOM      7  C   LIG    1       23.124 -14.925   4.477  0.00  0.00    +0.045 C 
ATOM      8  C   LIG    1       24.679 -13.286   3.424  0.00  0.00    +0.005 A 
ATOM      9  C   LIG    1       25.861 -12.925   2.778  0.00  0.00    +0.000 A 
ATOM     10  C   LIG    1       26.806 -13.898   2.490  0.00  0.00    +0.002 A 
ATOM     11  C   LIG    1       26.593 -15.219   2.894  0.00  0.00    +0.023 A 
ENDBRANCH   2   5
BRANCH   1  12
ATOM     12  C   LIG    1       25.072 -19.368   4.160  0.00  0.00    +0.138 C 
ATOM     13  C   LIG    1       24.157 -20.228   3.286  0.00  0.00    +0.034 C 
BRANCH  12  14
ATOM     14  N   LIG    1       26.246 -20.169   4.612  0.00  0.00    -0.306 NA
ATOM     15  H   LIG    1       26.281 -21.012   4.032  0.00  0.00    +0.123 HD
BRANCH  14  16
ATOM     16  C   LIG    1       26.082 -20.594   6.013  0.00  0.00    +0.081 C 
BRANCH  16  18
ATOM     17  C   LIG    1       28.451 -19.740   5.910  0.00  0.00    +0.005 C 
ATOM     18  C   LIG    1       27.394 -20.412   6.776  0.00  0.00    +0.012 C 
ENDBRANCH  16  18
ENDBRANCH  14  16
ENDBRANCH  12  14
ENDBRANCH   1  12
TORSDOF 5
ENDMDL
