MODEL 1
REMARK VINA RESULT:      -6.3      0.000      0.000
REMARK  Name = *****
REMARK                            x       y       z     vdW  Elec       q    Type
REMARK                         _______ _______ _______ _____ _____    ______ ____
ROOT
ATOM      1  O   LIG    1       24.645 -17.296   3.337  0.00  0.00    -0.421 OA
ENDROOT
BRANCH   1   3
ATOM      2  C   LIG    1       23.294 -19.013   4.346  0.00  0.00    +0.101 A 
ATOM      3  C   LIG    1       24.554 -18.586   3.909  0.00  0.00    +0.146 A 
ATOM      4  C   LIG    1       25.674 -19.404   4.065  0.00  0.00    +0.047 A 
ATOM      5  C   LIG    1       25.526 -20.682   4.602  0.00  0.00    +0.004 A 
ATOM      6  C   LIG    1       24.271 -21.135   5.004  0.00  0.00    +0.001 A 
ATOM      7  C   LIG    1       23.156 -20.300   4.885  0.00  0.00    +0.019 A 
BRANCH   2   9
ATOM      8  O   LIG    1       21.028 -18.597   3.720  0.00  0.00    -0.245 OA
ATOM      9  C   LIG    1       22.055 -18.189   4.252  0.00  0.00    +0.340 C 
BRANCH   9  10
ATOM     10  O   LIG    1       22.131 -16.982   4.870  0.00  0.00    -0.477 OA
ATOM     11  H   LIG    1       21.412 -16.810   5.509  0.00  0.00    +0.295 HD
ENDBRANCH   9  10
ENDBRANCH   2   9
ENDBRANCH   1   3
BRANCH   1  12
ATOM     12  C   LIG    1       25.776 -16.488   3.392  0.00  0.00    +0.348 C 
ATOM     13  O   LIG    1       26.938 -16.839   3.341  0.00  0.00    -0.244 OA
BRANCH  12  14
ATOM     14  C   LIG    1       25.346 -15.067   3.367  0.00  0.00    +0.101 A 
ATOM     15  C   LIG    1       26.001 -14.078   2.622  0.00  0.00    +0.131 A 
ATOM     16  C   LIG    1       25.576 -12.750   2.693  0.00  0.00    +0.046 A 
ATOM     17  C   LIG    1       24.491 -12.406   3.503  0.00  0.00    +0.004 A 
ATOM     18  C   LIG    1       23.819 -13.387   4.229  0.00  0.00    +0.001 A 
ATOM     19  C   LIG    1       24.242 -14.717   4.159  0.00  0.00    +0.019 A 
BRANCH  15  20
ATOM     20  O   LIG    1       27.061 -14.397   1.813  0.00  0.00    -0.506 OA
ATOM     21  H   LIG    1       27.635 -13.614   1.729  0.00  0.00    +0.292 HD
ENDBRANCH  15  20
ENDBRANCH  12  14
ENDBRANCH   1  12
TORSDOF 6
ENDMDL
MODEL 2
REMARK VINA RESULT:      -6.1      1.856      5.498
REMARK  Name = *****
REMARK                            x       y       z     vdW  Elec       q    Type
REMARK                         _______ _______ _______ _____ _____    ______ ____
ROOT
ATOM      1  O   LIG    1       25.268 -16.694   3.184  0.00  0.00    -0.421 OA
ENDROOT
BRANCH   1   3
ATOM      2  C   LIG    1       25.190 -14.433   4.005  0.00  0.00    +0.101 A 
ATOM      3  C   LIG    1       25.958 -15.542   3.627  0.00  0.00    +0.146 A 
ATOM      4  C   LIG    1       27.351 -15.486   3.665  0.00  0.00    +0.047 A 
ATOM      5  C   LIG    1       27.983 -14.339   4.144  0.00  0.00    +0.004 A 
ATOM      6  C   LIG    1       27.230 -13.243   4.562  0.00  0.00    +0.001 A 
ATOM      7  C   LIG    1       25.835 -13.285   4.486  0.00  0.00    +0.019 A 
BRANCH   2   9
ATOM      8  O   LIG    1       22.997 -14.975   4.781  0.00  0.00    -0.245 OA
ATOM      9  C   LIG    1       23.700 -14.395   3.959  0.00  0.00    +0.340 C 
BRANCH   9  10
ATOM     10  O   LIG    1       23.185 -13.605   2.981  0.00  0.00    -0.477 OA
ATOM     11  H   LIG    1       22.477 -14.025   2.455  0.00  0.00    +0.295 HD
ENDBRANCH   9  10
ENDBRANCH   2   9
ENDBRANCH   1   3
BRANCH   1  12
ATOM     12  C   LIG    1       25.668 -18.000   3.445  0.00  0.00    +0.348 C 
ATOM     13  O   LIG    1       26.794 -18.454   3.385  0.00  0.00    -0.244 OA
BRANCH  12  14
ATOM     14  C   LIG    1       24.506 -18.757   3.976  0.00  0.00    +0.101 A 
ATOM     15  C   LIG    1       24.599 -20.065   4.467  0.00  0.00    +0.131 A 
ATOM     16  C   LIG    1       23.453 -20.736   4.896  0.00  0.00    +0.046 A 
ATOM     17  C   LIG    1       22.210 -20.100   4.844  0.00  0.00    +0.004 A 
ATOM     18  C   LIG    1       22.112 -18.790   4.379  0.00  0.00    +0.001 A 
ATOM     19  C   LIG    1       23.258 -18.117   3.949  0.00  0.00    +0.019 A 
BRANCH  15  20
ATOM     20  O   LIG    1       25.811 -20.702   4.538  0.00  0.00    -0.506 OA
ATOM     21  H   LIG    1       26.008 -20.892   5.474  0.00  0.00    +0.292 HD
ENDBRANCH  15  20
ENDBRANCH  12  14
ENDBRANCH   1  12
TORSDOF 6
ENDMDL
MODEL 3
REMARK VINA RESULT:      -5.5      1.483      2.593
REMARK  Name = *****
REMARK                            x       y       z     vdW  Elec       q    Type
REMARK                         _______ _______ _______ _____ _____    ______ ____
ROOT
ATOM      1  O   LIG    1       25.320 -17.504   3.004  0.00  0.00    -0.421 OA
ENDROOT
BRANCH   1   3
ATOM      2  C   LIG    1       24.697 -19.328   4.446  0.00  0.00    +0.101 A 
ATOM      3  C   LIG    1       24.319 -18.177   3.742  0.00  0.00    +0.146 A 
ATOM      4  C   LIG    1       22.994 -17.740   3.756  0.00  0.00    +0.047 A 
ATOM      5  C   LIG    1       22.052 -18.418   4.529  0.00  0.00    +0.004 A 
ATOM      6  C   LIG    1       22.424 -19.541   5.267  0.00  0.00    +0.001 A 
ATOM      7  C   LIG    1       23.743 -20.002   5.220  0.00  0.00    +0.019 A 
BRANCH   2   9
ATOM      8  O   LIG    1       26.727 -20.037   5.485  0.00  0.00    -0.245 OA
ATOM      9  C   LIG    1       26.081 -19.884   4.453  0.00  0.00    +0.340 C 
BRANCH   9  10
ATOM     10  O   LIG    1       26.538 -20.280   3.236  0.00  0.00    -0.477 OA
ATOM     11  H   LIG    1       26.352 -19.651   2.513  0.00  0.00    +0.295 HD
ENDBRANCH   9  10
ENDBRANCH   2   9
ENDBRANCH   1   3
BRANCH   1  12
ATOM     12  C   LIG    1       26.178 -16.545   3.532  0.00  0.00    +0.348 C 
ATOM     13  O   LIG    1       27.321 -16.706   3.912  0.00  0.00    -0.244 OA
BRANCH  12  14
ATOM     14  C   LIG    1       25.530 -15.214   3.421  0.00  0.00    +0.101 A 
ATOM     15  C   LIG    1       26.022 -14.184   2.611  0.00  0.00    +0.131 A 
ATOM     16  C   LIG    1       25.393 -12.938   2.602  0.00  0.00    +0.046 A 
ATOM     17  C   LIG    1       24.266 -12.718   3.397  0.00  0.00    +0.004 A 
ATOM     18  C   LIG    1       23.755 -13.745   4.189  0.00  0.00    +0.001 A 
ATOM     19  C   LIG    1       24.383 -14.993   4.199  0.00  0.00    +0.019 A 
BRANCH  15  20
ATOM     20  O   LIG    1       27.120 -14.383   1.814  0.00  0.00    -0.506 OA
ATOM     21  H   LIG    1       26.841 -14.869   1.016  0.00  0.00    +0.292 HD
ENDBRANCH  15  20
ENDBRANCH  12  14
ENDBRANCH   1  12
TORSDOF 6
ENDMDL
MODEL 4
REMARK VINA RESULT:      -5.4      1.738      5.975
REMARK  Name = *****
REMARK                            x       y       z     vdW  Elec       q    Type
REMARK                         _______ _______ _______ _____ _____    ______ ____
ROOT
ATOM      1  O   LIG    1       25.460 -16.575   2.958  0.00  0.00    -0.421 OA
ENDROOT
BRANCH   1   3
ATOM      2  C   LIG    1       25.833 -14.319   3.709  0.00  0.00    +0.101 A 
ATOM      3  C   LIG    1       24.975 -15.423   3.619  0.00  0.00    +0.146 A 
ATOM      4  C   LIG    1       23.702 -15.381   4.188  0.00  0.00    +0.047 A 
ATOM      5  C   LIG    1       23.257 -14.208   4.797  0.00  0.00    +0.004 A 
ATOM      6  C   LIG    1       24.086 -13.089   4.858  0.00  0.00    +0.001 A 
ATOM      7  C   LIG    1       25.376 -13.145   4.323  0.00  0.00    +0.019 A 
BRANCH   2   9
ATOM      8  O   LIG    1       28.212 -14.463   3.863  0.00  0.00    -0.245 OA
ATOM      9  C   LIG    1       27.220 -14.294   3.162  0.00  0.00    +0.340 C 
BRANCH   9  10
ATOM     10  O   LIG    1       27.293 -14.146   1.813  0.00  0.00    -0.477 OA
ATOM     11  H   LIG    1       26.728 -14.763   1.309  0.00  0.00    +0.295 HD
ENDBRANCH   9  10
ENDBRANCH   2   9
ENDBRANCH   1   3
BRANCH   1  12
ATOM     12  C   LIG    1       26.238 -17.560   3.560  0.00  0.00    +0.348 C 
ATOM     13  O   LIG    1       27.405 -17.481   3.888  0.00  0.00    -0.244 OA
BRANCH  12  14
ATOM     14  C   LIG    1       25.367 -18.714   3.897  0.00  0.00    +0.101 A 
ATOM     15  C   LIG    1       25.854 -19.916   4.424  0.00  0.00    +0.131 A 
ATOM     16  C   LIG    1       24.983 -20.981   4.662  0.00  0.00    +0.046 A 
ATOM     17  C   LIG    1       23.621 -20.846   4.381  0.00  0.00    +0.004 A 
ATOM     18  C   LIG    1       23.125 -19.645   3.878  0.00  0.00    +0.001 A 
ATOM     19  C   LIG    1       23.995 -18.578   3.639  0.00  0.00    +0.019 A 
BRANCH  15  20
ATOM     20  O   LIG    1       27.185 -20.065   4.719  0.00  0.00    -0.506 OA
ATOM     21  H   LIG    1       27.702 -19.508   4.109  0.00  0.00    +0.292 HD
ENDBRANCH  15  20
ENDBRANCH  12  14
ENDBRANCH   1  12
TORSDOF 6
ENDMDL
MODEL 5
REMARK VINA RESULT:      -5.4      0.762      1.571
REMARK  Name = *****
REMARK                            x       y       z     vdW  Elec       q    Type
REMARK                         _______ _______ _______ _____ _____    ______ ____
ROOT
ATOM      1  O   LIG    1       24.573 -17.208   3.461  0.00  0.00    -0.421 OA
ENDROOT
BRANCH   1   3
ATOM      2  C   LIG    1       23.200 -19.021   4.250  0.00  0.00    +0.101 A 
ATOM      3  C   LIG    1       24.471 -18.550   3.896  0.00  0.00    +0.146 A 
ATOM      4  C   LIG    1       25.589 -19.378   3.999  0.00  0.00    +0.047 A 
ATOM      5  C   LIG    1       25.430 -20.705   4.398  0.00  0.00    +0.004 A 
ATOM      6  C   LIG    1       24.166 -21.198   4.715  0.00  0.00    +0.001 A 
ATOM      7  C   LIG    1       23.052 -20.356   4.650  0.00  0.00    +0.019 A 
BRANCH   2   9
ATOM      8  O   LIG    1       20.960 -18.532   3.581  0.00  0.00    -0.245 OA
ATOM      9  C   LIG    1       21.961 -18.193   4.205  0.00  0.00    +0.340 C 
BRANCH   9  10
ATOM     10  O   LIG    1       22.002 -17.072   4.972  0.00  0.00    -0.477 OA
ATOM     11  H   LIG    1       22.903 -16.773   5.200  0.00  0.00    +0.295 HD
ENDBRANCH   9  10
ENDBRANCH   2   9
ENDBRANCH   1   3
BRANCH   1  12
ATOM     12  C   LIG    1       25.751 -16.470   3.455  0.00  0.00    +0.348 C 
ATOM     13  O   LIG    1       26.890 -16.896   3.449  0.00  0.00    -0.244 OA
BRANCH  12  14
ATOM     14  C   LIG    1       25.412 -15.033   3.295  0.00  0.00    +0.101 A 
ATOM     15  C   LIG    1       24.319 -14.427   3.924  0.00  0.00    +0.131 A 
ATOM     16  C   LIG    1       24.026 -13.083   3.680  0.00  0.00    +0.046 A 
ATOM     17  C   LIG    1       24.830 -12.339   2.813  0.00  0.00    +0.004 A 
ATOM     18  C   LIG    1       25.934 -12.929   2.201  0.00  0.00    +0.001 A 
ATOM     19  C   LIG    1       26.229 -14.273   2.444  0.00  0.00    +0.019 A 
BRANCH  15  20
ATOM     20  O   LIG    1       23.525 -15.136   4.787  0.00  0.00    -0.506 OA
ATOM     21  H   LIG    1       23.531 -14.688   5.653  0.00  0.00    +0.292 HD
ENDBRANCH  15  20
ENDBRANCH  12  14
ENDBRANCH   1  12
TORSDOF 6
ENDMDL
MODEL 6
REMARK VINA RESULT:      -5.4      1.947      6.064
REMARK  Name = *****
REMARK                            x       y       z     vdW  Elec       q    Type
REMARK                         _______ _______ _______ _____ _____    ______ ____
ROOT
ATOM      1  O   LIG    1       25.600 -17.989   3.375  0.00  0.00    -0.421 OA
ENDROOT
BRANCH   1   3
ATOM      2  C   LIG    1       25.382 -15.609   3.662  0.00  0.00    +0.101 A 
ATOM      3  C   LIG    1       24.800 -16.881   3.740  0.00  0.00    +0.146 A 
ATOM      4  C   LIG    1       23.488 -17.035   4.188  0.00  0.00    +0.047 A 
ATOM      5  C   LIG    1       22.728 -15.908   4.501  0.00  0.00    +0.004 A 
ATOM      6  C   LIG    1       23.282 -14.634   4.389  0.00  0.00    +0.001 A 
ATOM      7  C   LIG    1       24.610 -14.483   3.979  0.00  0.00    +0.019 A 
BRANCH   2   9
ATOM      8  O   LIG    1       27.074 -14.572   2.334  0.00  0.00    -0.245 OA
ATOM      9  C   LIG    1       26.787 -15.359   3.230  0.00  0.00    +0.340 C 
BRANCH   9  10
ATOM     10  O   LIG    1       27.727 -16.014   3.960  0.00  0.00    -0.477 OA
ATOM     11  H   LIG    1       27.504 -16.117   4.905  0.00  0.00    +0.295 HD
ENDBRANCH   9  10
ENDBRANCH   2   9
ENDBRANCH   1   3
BRANCH   1  12
ATOM     12  C   LIG    1       25.249 -19.318   3.589  0.00  0.00    +0.348 C 
ATOM     13  O   LIG    1       24.579 -20.030   2.867  0.00  0.00    -0.244 OA
BRANCH  12  14
ATOM     14  C   LIG    1       25.962 -19.810   4.795  0.00  0.00    +0.101 A 
ATOM     15  C   LIG    1       25.331 -20.516   5.826  0.00  0.00    +0.131 A 
ATOM     16  C   LIG    1       26.054 -20.897   6.959  0.00  0.00    +0.046 A 
ATOM     17  C   LIG    1       27.410 -20.580   7.062  0.00  0.00    +0.004 A 
ATOM     18  C   LIG    1       28.052 -19.898   6.029  0.00  0.00    +0.001 A 
ATOM     19  C   LIG    1       27.330 -19.517   4.895  0.00  0.00    +0.019 A 
BRANCH  15  20
ATOM     20  O   LIG    1       24.004 -20.847   5.740  0.00  0.00    -0.506 OA
ATOM     21  H   LIG    1       23.517 -20.361   6.430  0.00  0.00    +0.292 HD
ENDBRANCH  15  20
ENDBRANCH  12  14
ENDBRANCH   1  12
TORSDOF 6
ENDMDL
MODEL 7
REMARK VINA RESULT:      -5.3      1.644      3.088
REMARK  Name = *****
REMARK                            x       y       z     vdW  Elec       q    Type
REMARK                         _______ _______ _______ _____ _____    ______ ____
ROOT
ATOM      1  O   LIG    1       24.236 -17.120   3.681  0.00  0.00    -0.421 OA
ENDROOT
BRANCH   1   3
ATOM      2  C   LIG    1       24.309 -19.418   4.394  0.00  0.00    +0.101 A 
ATOM      3  C   LIG    1       23.544 -18.287   4.082  0.00  0.00    +0.146 A 
ATOM      4  C   LIG    1       22.151 -18.333   4.143  0.00  0.00    +0.047 A 
ATOM      5  C   LIG    1       21.517 -19.497   4.579  0.00  0.00    +0.004 A 
ATOM      6  C   LIG    1       22.268 -20.616   4.931  0.00  0.00    +0.001 A 
ATOM      7  C   LIG    1       23.662 -20.582   4.831  0.00  0.00    +0.019 A 
BRANCH   2   9
ATOM      8  O   LIG    1       26.478 -20.139   5.086  0.00  0.00    -0.245 OA
ATOM      9  C   LIG    1       25.797 -19.466   4.319  0.00  0.00    +0.340 C 
BRANCH   9  10
ATOM     10  O   LIG    1       26.334 -18.766   3.285  0.00  0.00    -0.477 OA
ATOM     11  H   LIG    1       27.268 -18.977   3.098  0.00  0.00    +0.295 HD
ENDBRANCH   9  10
ENDBRANCH   2   9
ENDBRANCH   1   3
BRANCH   1  12
ATOM     12  C   LIG    1       23.880 -15.827   4.050  0.00  0.00    +0.348 C 
ATOM     13  O   LIG    1       22.920 -15.486   4.713  0.00  0.00    -0.244 OA
BRANCH  12  14
ATOM     14  C   LIG    1       24.961 -14.899   3.634  0.00  0.00    +0.101 A 
ATOM     15  C   LIG    1       24.719 -13.637   3.079  0.00  0.00    +0.131 A 
ATOM     16  C   LIG    1       25.786 -12.841   2.657  0.00  0.00    +0.046 A 
ATOM     17  C   LIG    1       27.098 -13.300   2.794  0.00  0.00    +0.004 A 
ATOM     18  C   LIG    1       27.349 -14.546   3.367  0.00  0.00    +0.001 A 
ATOM     19  C   LIG    1       26.283 -15.343   3.791  0.00  0.00    +0.019 A 
BRANCH  15  20
ATOM     20  O   LIG    1       23.440 -13.162   2.947  0.00  0.00    -0.506 OA
ATOM     21  H   LIG    1       23.066 -13.026   3.837  0.00  0.00    +0.292 HD
ENDBRANCH  15  20
ENDBRANCH  12  14
ENDBRANCH   1  12
TORSDOF 6
ENDMDL
MODEL 8
REMARK VINA RESULT:      -5.2      1.940      3.223
REMARK  Name = *****
REMARK                            x       y       z     vdW  Elec       q    Type
REMARK                         _______ _______ _______ _____ _____    ______ ____
ROOT
ATOM      1  O   LIG    1       25.410 -19.169   3.626  0.00  0.00    -0.421 OA
ENDROOT
BRANCH   1   3
ATOM      2  C   LIG    1       25.184 -20.854   5.329  0.00  0.00    +0.101 A 
ATOM      3  C   LIG    1       25.956 -19.844   4.742  0.00  0.00    +0.146 A 
ATOM      4  C   LIG    1       27.205 -19.509   5.267  0.00  0.00    +0.047 A 
ATOM      5  C   LIG    1       27.715 -20.229   6.347  0.00  0.00    +0.004 A 
ATOM      6  C   LIG    1       26.974 -21.263   6.915  0.00  0.00    +0.001 A 
ATOM      7  C   LIG    1       25.706 -21.572   6.414  0.00  0.00    +0.019 A 
BRANCH   2   9
ATOM      8  O   LIG    1       22.837 -21.217   5.581  0.00  0.00    -0.245 OA
ATOM      9  C   LIG    1       23.826 -21.248   4.856  0.00  0.00    +0.340 C 
BRANCH   9  10
ATOM     10  O   LIG    1       23.759 -21.570   3.537  0.00  0.00    -0.477 OA
ATOM     11  H   LIG    1       24.160 -20.910   2.941  0.00  0.00    +0.295 HD
ENDBRANCH   9  10
ENDBRANCH   2   9
ENDBRANCH   1   3
BRANCH   1  12
ATOM     12  C   LIG    1       24.362 -18.256   3.693  0.00  0.00    +0.348 C 
ATOM     13  O   LIG    1       23.179 -18.498   3.833  0.00  0.00    -0.244 OA
BRANCH  12  14
ATOM     14  C   LIG    1       24.928 -16.884   3.722  0.00  0.00    +0.101 A 
ATOM     15  C   LIG    1       24.178 -15.750   4.059  0.00  0.00    +0.131 A 
ATOM     16  C   LIG    1       24.762 -14.483   4.007  0.00  0.00    +0.046 A 
ATOM     17  C   LIG    1       26.099 -14.345   3.627  0.00  0.00    +0.004 A 
ATOM     18  C   LIG    1       26.859 -15.470   3.313  0.00  0.00    +0.001 A 
ATOM     19  C   LIG    1       26.276 -16.739   3.364  0.00  0.00    +0.019 A 
BRANCH  15  20
ATOM     20  O   LIG    1       22.868 -15.865   4.446  0.00  0.00    -0.506 OA
ATOM     21  H   LIG    1       22.307 -15.439   3.773  0.00  0.00    +0.292 HD
ENDBRANCH  15  20
ENDBRANCH  12  14
ENDBRANCH   1  12
TORSDOF 6
ENDMDL
MODEL 9
REMARK VINA RESULT:      -5.1      2.164      3.228
REMARK  Name = *****
REMARK                            x       y       z     vdW  Elec       q    Type
REMARK                         _______ _______ _______ _____ _____    ______ ____
ROOT
ATOM      1  O   LIG    1       26.933 -17.072   3.318  0.00  0.00    -0.421 OA
ENDROOT
BRANCH   1   3
ATOM      2  C   LIG    1       26.798 -19.065   4.661  0.00  0.00    +0.101 A 
ATOM      3  C   LIG    1       26.191 -18.198   3.743  0.00  0.00    +0.146 A 
ATOM      4  C   LIG    1       24.910 -18.463   3.257  0.00  0.00    +0.047 A 
ATOM      5  C   LIG    1       24.205 -19.567   3.736  0.00  0.00    +0.004 A 
ATOM      6  C   LIG    1       24.782 -20.415   4.679  0.00  0.00    +0.001 A 
ATOM      7  C   LIG    1       26.080 -20.171   5.136  0.00  0.00    +0.019 A 
BRANCH   2   9
ATOM      8  O   LIG    1       28.542 -19.368   6.264  0.00  0.00    -0.245 OA
ATOM      9  C   LIG    1       28.175 -18.876   5.201  0.00  0.00    +0.340 C 
BRANCH   9  10
ATOM     10  O   LIG    1       29.012 -18.182   4.386  0.00  0.00    -0.477 OA
ATOM     11  H   LIG    1       28.602 -17.410   3.951  0.00  0.00    +0.295 HD
ENDBRANCH   9  10
ENDBRANCH   2   9
ENDBRANCH   1   3
BRANCH   1  12
ATOM     12  C   LIG    1       27.045 -15.885   4.034  0.00  0.00    +0.348 C 
ATOM     13  O   LIG    1       27.901 -15.590   4.844  0.00  0.00    -0.244 OA
BRANCH  12  14
ATOM     14  C   LIG    1       26.019 -14.932   3.539  0.00  0.00    +0.101 A 
ATOM     15  C   LIG    1       26.248 -14.033   2.490  0.00  0.00    +0.131 A 
ATOM     16  C   LIG    1       25.255 -13.125   2.117  0.00  0.00    +0.046 A 
ATOM     17  C   LIG    1       24.029 -13.116   2.785  0.00  0.00    +0.004 A 
ATOM     18  C   LIG    1       23.784 -14.024   3.815  0.00  0.00    +0.001 A 
ATOM     19  C   LIG    1       24.776 -14.934   4.189  0.00  0.00    +0.019 A 
BRANCH  15  20
ATOM     20  O   LIG    1       27.440 -14.033   1.814  0.00  0.00    -0.506 OA
ATOM     21  H   LIG    1       27.991 -13.305   2.154  0.00  0.00    +0.292 HD
ENDBRANCH  15  20
ENDBRANCH  12  14
ENDBRANCH   1  12
TORSDOF 6
ENDMDL
