MODEL 1
REMARK VINA RESULT:      -7.1      0.000      0.000
REMARK  Name = *****
REMARK                            x       y       z     vdW  Elec       q    Type
REMARK                         _______ _______ _______ _____ _____    ______ ____
ROOT
ATOM      1  C   LIG    1       28.969 -20.709   7.558  0.00  0.00    +0.122 A 
ATOM      2  C   LIG    1       28.952 -19.340   7.830  0.00  0.00    +0.062 A 
ATOM      3  C   LIG    1       30.013 -18.788   8.590  0.00  0.00    +0.044 A 
ATOM      4  C   LIG    1       31.054 -19.571   9.072  0.00  0.00    +0.081 A 
ATOM      5  N   LIG    1       32.008 -18.901   9.811  0.00  0.00    -0.225 NA
ATOM      6  C   LIG    1       31.710 -17.630   9.920  0.00  0.00    +0.161 A 
ATOM      7  C   LIG    1       31.061 -20.937   8.783  0.00  0.00    +0.032 A 
ATOM      8  S   LIG    1       30.264 -17.167   9.065  0.00  0.00    -0.052 S 
ATOM      9  C   LIG    1       30.021 -21.494   8.033  0.00  0.00    +0.048 A 
ENDROOT
BRANCH   6  10
ATOM     10  N   LIG    1       32.467 -16.711  10.620  0.00  0.00    -0.316 N 
ATOM     11  C   LIG    1       32.065 -16.457  11.999  0.00  0.00    +0.131 C 
ATOM     12  C   LIG    1       33.023 -15.569   9.911  0.00  0.00    +0.131 C 
ENDBRANCH   6  10
BRANCH   1  13
ATOM     13  O   LIG    1       27.909 -21.197   6.835  0.00  0.00    -0.491 OA
BRANCH  13  14
ATOM     14  C   LIG    1       26.596 -20.703   7.163  0.00  0.00    +0.244 C 
BRANCH  14  15
ATOM     15  C   LIG    1       25.690 -20.631   5.911  0.00  0.00    +0.125 C 
BRANCH  15  16
ATOM     16  N   LIG    1       24.725 -21.738   5.696  0.00  0.00    -0.300 NA
BRANCH  16  18
ATOM     17  C   LIG    1       23.249 -23.441   6.829  0.00  0.00    +0.020 C 
ATOM     18  C   LIG    1       24.503 -22.565   6.892  0.00  0.00    +0.081 C 
ENDBRANCH  16  18
BRANCH  16  19
ATOM     19  C   LIG    1       23.470 -21.226   5.109  0.00  0.00    +0.081 C 
ATOM     20  C   LIG    1       22.912 -19.934   5.705  0.00  0.00    +0.020 C 
ENDBRANCH  16  19
ENDBRANCH  15  16
ENDBRANCH  14  15
ENDBRANCH  13  14
ENDBRANCH   1  13
TORSDOF 7
ENDMDL
MODEL 2
REMARK VINA RESULT:      -7.0      3.517      8.989
REMARK  Name = *****
REMARK                            x       y       z     vdW  Elec       q    Type
REMARK                         _______ _______ _______ _____ _____    ______ ____
ROOT
ATOM      1  C   LIG    1       25.086 -21.719   7.043  0.00  0.00    +0.122 A 
ATOM      2  C   LIG    1       25.925 -22.823   6.884  0.00  0.00    +0.062 A 
ATOM      3  C   LIG    1       25.338 -24.092   6.657  0.00  0.00    +0.044 A 
ATOM      4  C   LIG    1       23.961 -24.263   6.599  0.00  0.00    +0.081 A 
ATOM      5  N   LIG    1       23.531 -25.558   6.390  0.00  0.00    -0.225 NA
ATOM      6  C   LIG    1       24.546 -26.381   6.305  0.00  0.00    +0.161 A 
ATOM      7  C   LIG    1       23.135 -23.147   6.751  0.00  0.00    +0.032 A 
ATOM      8  S   LIG    1       26.100 -25.602   6.417  0.00  0.00    -0.052 S 
ATOM      9  C   LIG    1       23.703 -21.888   6.973  0.00  0.00    +0.048 A 
ENDROOT
BRANCH   6  10
ATOM     10  N   LIG    1       24.428 -27.745   6.118  0.00  0.00    -0.316 N 
ATOM     11  C   LIG    1       24.919 -28.591   7.200  0.00  0.00    +0.131 C 
ATOM     12  C   LIG    1       24.585 -28.290   4.779  0.00  0.00    +0.131 C 
ENDBRANCH   6  10
BRANCH   1  13
ATOM     13  O   LIG    1       25.704 -20.516   7.279  0.00  0.00    -0.491 OA
BRANCH  13  14
ATOM     14  C   LIG    1       26.774 -20.496   8.243  0.00  0.00    +0.244 C 
BRANCH  14  15
ATOM     15  C   LIG    1       28.074 -19.918   7.633  0.00  0.00    +0.125 C 
BRANCH  15  16
ATOM     16  N   LIG    1       29.333 -20.106   8.396  0.00  0.00    -0.300 NA
BRANCH  16  18
ATOM     17  C   LIG    1       31.200 -21.669   9.052  0.00  0.00    +0.020 C 
ATOM     18  C   LIG    1       29.917 -21.447   8.248  0.00  0.00    +0.081 C 
ENDBRANCH  16  18
BRANCH  16  19
ATOM     19  C   LIG    1       30.291 -19.024   8.090  0.00  0.00    +0.081 C 
ATOM     20  C   LIG    1       30.255 -17.798   9.002  0.00  0.00    +0.020 C 
ENDBRANCH  16  19
ENDBRANCH  15  16
ENDBRANCH  14  15
ENDBRANCH  13  14
ENDBRANCH   1  13
TORSDOF 7
ENDMDL
MODEL 3
REMARK VINA RESULT:      -6.9      2.285      8.149
REMARK  Name = *****
REMARK                            x       y       z     vdW  Elec       q    Type
REMARK                         _______ _______ _______ _____ _____    ______ ____
ROOT
ATOM      1  C   LIG    1       28.758 -20.189   6.890  0.00  0.00    +0.122 A 
ATOM      2  C   LIG    1       28.097 -19.948   5.684  0.00  0.00    +0.062 A 
ATOM      3  C   LIG    1       26.689 -20.110   5.641  0.00  0.00    +0.044 A 
ATOM      4  C   LIG    1       25.962 -20.504   6.757  0.00  0.00    +0.081 A 
ATOM      5  N   LIG    1       24.602 -20.637   6.563  0.00  0.00    -0.225 NA
ATOM      6  C   LIG    1       24.277 -20.370   5.322  0.00  0.00    +0.161 A 
ATOM      7  C   LIG    1       26.638 -20.731   7.957  0.00  0.00    +0.032 A 
ATOM      8  S   LIG    1       25.621 -19.879   4.328  0.00  0.00    -0.052 S 
ATOM      9  C   LIG    1       28.026 -20.574   8.013  0.00  0.00    +0.048 A 
ENDROOT
BRANCH   6  10
ATOM     10  N   LIG    1       22.990 -20.438   4.823  0.00  0.00    -0.316 N 
ATOM     11  C   LIG    1       22.310 -19.164   4.611  0.00  0.00    +0.131 C 
ATOM     12  C   LIG    1       22.135 -21.543   5.226  0.00  0.00    +0.131 C 
ENDBRANCH   6  10
BRANCH   1  13
ATOM     13  O   LIG    1       30.123 -20.036   6.874  0.00  0.00    -0.491 OA
BRANCH  13  14
ATOM     14  C   LIG    1       30.782 -19.814   8.135  0.00  0.00    +0.244 C 
BRANCH  14  15
ATOM     15  C   LIG    1       31.818 -18.669   8.036  0.00  0.00    +0.125 C 
BRANCH  15  16
ATOM     16  N   LIG    1       31.503 -17.396   8.732  0.00  0.00    -0.300 NA
BRANCH  16  18
ATOM     17  C   LIG    1       30.296 -17.617  10.935  0.00  0.00    +0.020 C 
ATOM     18  C   LIG    1       30.204 -17.407   9.422  0.00  0.00    +0.081 C 
ENDBRANCH  16  18
BRANCH  16  19
ATOM     19  C   LIG    1       32.619 -16.997   9.613  0.00  0.00    +0.081 C 
ATOM     20  C   LIG    1       32.888 -15.498   9.743  0.00  0.00    +0.020 C 
ENDBRANCH  16  19
ENDBRANCH  15  16
ENDBRANCH  14  15
ENDBRANCH  13  14
ENDBRANCH   1  13
TORSDOF 7
ENDMDL
MODEL 4
REMARK VINA RESULT:      -6.4      2.395      4.153
REMARK  Name = *****
REMARK                            x       y       z     vdW  Elec       q    Type
REMARK                         _______ _______ _______ _____ _____    ______ ____
ROOT
ATOM      1  C   LIG    1       25.149 -21.509   6.513  0.00  0.00    +0.122 A 
ATOM      2  C   LIG    1       26.307 -21.082   5.861  0.00  0.00    +0.062 A 
ATOM      3  C   LIG    1       27.337 -20.487   6.631  0.00  0.00    +0.044 A 
ATOM      4  C   LIG    1       27.219 -20.315   8.004  0.00  0.00    +0.081 A 
ATOM      5  N   LIG    1       28.293 -19.706   8.621  0.00  0.00    -0.225 NA
ATOM      6  C   LIG    1       29.219 -19.394   7.749  0.00  0.00    +0.161 A 
ATOM      7  C   LIG    1       26.058 -20.757   8.643  0.00  0.00    +0.032 A 
ATOM      8  S   LIG    1       28.851 -19.887   6.119  0.00  0.00    -0.052 S 
ATOM      9  C   LIG    1       25.035 -21.347   7.894  0.00  0.00    +0.048 A 
ENDROOT
BRANCH   6  10
ATOM     10  N   LIG    1       30.402 -18.755   8.067  0.00  0.00    -0.316 N 
ATOM     11  C   LIG    1       31.569 -19.611   8.258  0.00  0.00    +0.131 C 
ATOM     12  C   LIG    1       30.360 -17.563   8.899  0.00  0.00    +0.131 C 
ENDBRANCH   6  10
BRANCH   1  13
ATOM     13  O   LIG    1       24.174 -22.062   5.718  0.00  0.00    -0.491 OA
BRANCH  13  14
ATOM     14  C   LIG    1       22.812 -21.670   5.970  0.00  0.00    +0.244 C 
BRANCH  14  15
ATOM     15  C   LIG    1       22.284 -20.721   4.866  0.00  0.00    +0.125 C 
BRANCH  15  16
ATOM     16  N   LIG    1       23.046 -19.472   4.612  0.00  0.00    -0.300 NA
BRANCH  16  18
ATOM     17  C   LIG    1       25.111 -18.555   3.492  0.00  0.00    +0.020 C 
ATOM     18  C   LIG    1       23.961 -19.564   3.464  0.00  0.00    +0.081 C 
ENDBRANCH  16  18
BRANCH  16  19
ATOM     19  C   LIG    1       22.132 -18.315   4.528  0.00  0.00    +0.081 C 
ATOM     20  C   LIG    1       20.949 -18.444   3.568  0.00  0.00    +0.020 C 
ENDBRANCH  16  19
ENDBRANCH  15  16
ENDBRANCH  14  15
ENDBRANCH  13  14
ENDBRANCH   1  13
TORSDOF 7
ENDMDL
MODEL 5
REMARK VINA RESULT:      -6.3      4.288      8.862
REMARK  Name = *****
REMARK                            x       y       z     vdW  Elec       q    Type
REMARK                         _______ _______ _______ _____ _____    ______ ____
ROOT
ATOM      1  C   LIG    1       24.214 -21.865   5.661  0.00  0.00    +0.122 A 
ATOM      2  C   LIG    1       24.961 -22.883   5.066  0.00  0.00    +0.062 A 
ATOM      3  C   LIG    1       24.688 -24.225   5.432  0.00  0.00    +0.044 A 
ATOM      4  C   LIG    1       23.710 -24.546   6.364  0.00  0.00    +0.081 A 
ATOM      5  N   LIG    1       23.567 -25.892   6.635  0.00  0.00    -0.225 NA
ATOM      6  C   LIG    1       24.423 -26.603   5.945  0.00  0.00    +0.161 A 
ATOM      7  C   LIG    1       22.965 -23.517   6.943  0.00  0.00    +0.032 A 
ATOM      8  S   LIG    1       25.422 -25.662   4.871  0.00  0.00    -0.052 S 
ATOM      9  C   LIG    1       23.223 -22.189   6.589  0.00  0.00    +0.048 A 
ENDROOT
BRANCH   6  10
ATOM     10  N   LIG    1       24.532 -27.978   6.021  0.00  0.00    -0.316 N 
ATOM     11  C   LIG    1       24.903 -28.528   7.321  0.00  0.00    +0.131 C 
ATOM     12  C   LIG    1       25.032 -28.711   4.868  0.00  0.00    +0.131 C 
ENDBRANCH   6  10
BRANCH   1  13
ATOM     13  O   LIG    1       24.530 -20.583   5.286  0.00  0.00    -0.491 OA
BRANCH  13  14
ATOM     14  C   LIG    1       25.898 -20.314   4.924  0.00  0.00    +0.244 C 
BRANCH  14  15
ATOM     15  C   LIG    1       26.760 -19.998   6.170  0.00  0.00    +0.125 C 
BRANCH  15  16
ATOM     16  N   LIG    1       27.610 -21.087   6.713  0.00  0.00    -0.300 NA
BRANCH  16  18
ATOM     17  C   LIG    1       29.722 -21.216   8.084  0.00  0.00    +0.020 C 
ATOM     18  C   LIG    1       29.034 -20.732   6.806  0.00  0.00    +0.081 C 
ENDBRANCH  16  18
BRANCH  16  19
ATOM     19  C   LIG    1       27.058 -21.590   7.988  0.00  0.00    +0.081 C 
ATOM     20  C   LIG    1       25.999 -20.720   8.666  0.00  0.00    +0.020 C 
ENDBRANCH  16  19
ENDBRANCH  15  16
ENDBRANCH  14  15
ENDBRANCH  13  14
ENDBRANCH   1  13
TORSDOF 7
ENDMDL
MODEL 6
REMARK VINA RESULT:      -6.2      2.045      8.029
REMARK  Name = *****
REMARK                            x       y       z     vdW  Elec       q    Type
REMARK                         _______ _______ _______ _____ _____    ______ ____
ROOT
ATOM      1  C   LIG    1       29.749 -19.666   7.065  0.00  0.00    +0.122 A 
ATOM      2  C   LIG    1       28.708 -19.434   6.165  0.00  0.00    +0.062 A 
ATOM      3  C   LIG    1       27.570 -20.277   6.215  0.00  0.00    +0.044 A 
ATOM      4  C   LIG    1       27.472 -21.322   7.124  0.00  0.00    +0.081 A 
ATOM      5  N   LIG    1       26.314 -22.071   7.047  0.00  0.00    -0.225 NA
ATOM      6  C   LIG    1       25.536 -21.632   6.089  0.00  0.00    +0.161 A 
ATOM      7  C   LIG    1       28.519 -21.535   8.024  0.00  0.00    +0.032 A 
ATOM      8  S   LIG    1       26.154 -20.229   5.262  0.00  0.00    -0.052 S 
ATOM      9  C   LIG    1       29.646 -20.709   7.985  0.00  0.00    +0.048 A 
ENDROOT
BRANCH   6  10
ATOM     10  N   LIG    1       24.317 -22.193   5.759  0.00  0.00    -0.316 N 
ATOM     11  C   LIG    1       23.417 -21.365   4.963  0.00  0.00    +0.131 C 
ATOM     12  C   LIG    1       23.670 -23.084   6.708  0.00  0.00    +0.131 C 
ENDBRANCH   6  10
BRANCH   1  13
ATOM     13  O   LIG    1       30.836 -18.833   6.962  0.00  0.00    -0.491 OA
BRANCH  13  14
ATOM     14  C   LIG    1       31.903 -19.013   7.912  0.00  0.00    +0.244 C 
BRANCH  14  15
ATOM     15  C   LIG    1       32.249 -17.686   8.631  0.00  0.00    +0.125 C 
BRANCH  15  16
ATOM     16  N   LIG    1       32.279 -17.697  10.115  0.00  0.00    -0.300 NA
BRANCH  16  18
ATOM     17  C   LIG    1       33.025 -16.484  12.197  0.00  0.00    +0.020 C 
ATOM     18  C   LIG    1       32.692 -16.414  10.705  0.00  0.00    +0.081 C 
ENDBRANCH  16  18
BRANCH  16  19
ATOM     19  C   LIG    1       30.997 -18.193  10.657  0.00  0.00    +0.081 C 
ATOM     20  C   LIG    1       29.740 -17.418  10.260  0.00  0.00    +0.020 C 
ENDBRANCH  16  19
ENDBRANCH  15  16
ENDBRANCH  14  15
ENDBRANCH  13  14
ENDBRANCH   1  13
TORSDOF 7
ENDMDL
MODEL 7
REMARK VINA RESULT:      -6.2      6.230     10.719
REMARK  Name = *****
REMARK                            x       y       z     vdW  Elec       q    Type
REMARK                         _______ _______ _______ _____ _____    ______ ____
ROOT
ATOM      1  C   LIG    1       25.775 -26.580   6.076  0.00  0.00    +0.122 A 
ATOM      2  C   LIG    1       25.895 -27.309   7.260  0.00  0.00    +0.062 A 
ATOM      3  C   LIG    1       25.246 -28.566   7.349  0.00  0.00    +0.044 A 
ATOM      4  C   LIG    1       24.496 -29.079   6.299  0.00  0.00    +0.081 A 
ATOM      5  N   LIG    1       23.907 -30.306   6.533  0.00  0.00    -0.225 NA
ATOM      6  C   LIG    1       24.176 -30.731   7.742  0.00  0.00    +0.161 A 
ATOM      7  C   LIG    1       24.394 -28.341   5.118  0.00  0.00    +0.032 A 
ATOM      8  S   LIG    1       25.223 -29.674   8.648  0.00  0.00    -0.052 S 
ATOM      9  C   LIG    1       25.030 -27.100   5.017  0.00  0.00    +0.048 A 
ENDROOT
BRANCH   6  10
ATOM     10  N   LIG    1       23.708 -31.919   8.271  0.00  0.00    -0.316 N 
ATOM     11  C   LIG    1       23.344 -32.956   7.311  0.00  0.00    +0.131 C 
ATOM     12  C   LIG    1       22.907 -31.884   9.485  0.00  0.00    +0.131 C 
ENDBRANCH   6  10
BRANCH   1  13
ATOM     13  O   LIG    1       26.407 -25.360   6.048  0.00  0.00    -0.491 OA
BRANCH  13  14
ATOM     14  C   LIG    1       25.878 -24.319   6.891  0.00  0.00    +0.244 C 
BRANCH  14  15
ATOM     15  C   LIG    1       25.022 -23.317   6.081  0.00  0.00    +0.125 C 
BRANCH  15  16
ATOM     16  N   LIG    1       24.474 -22.140   6.802  0.00  0.00    -0.300 NA
BRANCH  16  18
ATOM     17  C   LIG    1       25.866 -20.706   8.340  0.00  0.00    +0.020 C 
ATOM     18  C   LIG    1       25.423 -21.021   6.909  0.00  0.00    +0.081 C 
ENDBRANCH  16  18
BRANCH  16  19
ATOM     19  C   LIG    1       23.174 -21.739   6.227  0.00  0.00    +0.081 C 
ATOM     20  C   LIG    1       23.001 -20.258   5.892  0.00  0.00    +0.020 C 
ENDBRANCH  16  19
ENDBRANCH  15  16
ENDBRANCH  14  15
ENDBRANCH  13  14
ENDBRANCH   1  13
TORSDOF 7
ENDMDL
MODEL 8
REMARK VINA RESULT:      -6.2      6.141     10.673
REMARK  Name = *****
REMARK                            x       y       z     vdW  Elec       q    Type
REMARK                         _______ _______ _______ _____ _____    ______ ____
ROOT
ATOM      1  C   LIG    1       25.758 -26.451   6.103  0.00  0.00    +0.122 A 
ATOM      2  C   LIG    1       25.944 -27.204   7.263  0.00  0.00    +0.062 A 
ATOM      3  C   LIG    1       25.291 -28.457   7.368  0.00  0.00    +0.044 A 
ATOM      4  C   LIG    1       24.474 -28.946   6.357  0.00  0.00    +0.081 A 
ATOM      5  N   LIG    1       23.891 -30.172   6.604  0.00  0.00    -0.225 NA
ATOM      6  C   LIG    1       24.229 -30.622   7.786  0.00  0.00    +0.161 A 
ATOM      7  C   LIG    1       24.307 -28.185   5.198  0.00  0.00    +0.032 A 
ATOM      8  S   LIG    1       25.338 -29.589   8.646  0.00  0.00    -0.052 S 
ATOM      9  C   LIG    1       24.947 -26.947   5.081  0.00  0.00    +0.048 A 
ENDROOT
BRANCH   6  10
ATOM     10  N   LIG    1       23.784 -31.816   8.320  0.00  0.00    -0.316 N 
ATOM     11  C   LIG    1       23.387 -32.845   7.364  0.00  0.00    +0.131 C 
ATOM     12  C   LIG    1       23.029 -31.795   9.564  0.00  0.00    +0.131 C 
ENDBRANCH   6  10
BRANCH   1  13
ATOM     13  O   LIG    1       26.397 -25.236   6.059  0.00  0.00    -0.491 OA
BRANCH  13  14
ATOM     14  C   LIG    1       25.846 -24.167   6.850  0.00  0.00    +0.244 C 
BRANCH  14  15
ATOM     15  C   LIG    1       24.976 -23.219   5.991  0.00  0.00    +0.125 C 
BRANCH  15  16
ATOM     16  N   LIG    1       25.074 -21.762   6.261  0.00  0.00    -0.300 NA
BRANCH  16  18
ATOM     17  C   LIG    1       23.015 -20.351   5.904  0.00  0.00    +0.020 C 
ATOM     18  C   LIG    1       23.859 -21.192   6.864  0.00  0.00    +0.081 C 
ENDBRANCH  16  18
BRANCH  16  19
ATOM     19  C   LIG    1       26.296 -21.459   7.034  0.00  0.00    +0.081 C 
ATOM     20  C   LIG    1       26.113 -20.645   8.315  0.00  0.00    +0.020 C 
ENDBRANCH  16  19
ENDBRANCH  15  16
ENDBRANCH  14  15
ENDBRANCH  13  14
ENDBRANCH   1  13
TORSDOF 7
ENDMDL
MODEL 9
REMARK VINA RESULT:      -6.2      2.527      7.818
REMARK  Name = *****
REMARK                            x       y       z     vdW  Elec       q    Type
REMARK                         _______ _______ _______ _____ _____    ______ ____
ROOT
ATOM      1  C   LIG    1       27.761 -21.381   7.353  0.00  0.00    +0.122 A 
ATOM      2  C   LIG    1       27.246 -20.945   6.131  0.00  0.00    +0.062 A 
ATOM      3  C   LIG    1       25.857 -20.681   6.038  0.00  0.00    +0.044 A 
ATOM      4  C   LIG    1       25.005 -20.850   7.122  0.00  0.00    +0.081 A 
ATOM      5  N   LIG    1       23.674 -20.571   6.881  0.00  0.00    -0.225 NA
ATOM      6  C   LIG    1       23.489 -20.210   5.636  0.00  0.00    +0.161 A 
ATOM      7  C   LIG    1       25.538 -21.277   8.340  0.00  0.00    +0.032 A 
ATOM      8  S   LIG    1       24.955 -20.133   4.696  0.00  0.00    -0.052 S 
ATOM      9  C   LIG    1       26.907 -21.540   8.445  0.00  0.00    +0.048 A 
ENDROOT
BRANCH   6  10
ATOM     10  N   LIG    1       22.260 -19.889   5.094  0.00  0.00    -0.316 N 
ATOM     11  C   LIG    1       21.472 -21.001   4.571  0.00  0.00    +0.131 C 
ATOM     12  C   LIG    1       22.109 -18.629   4.383  0.00  0.00    +0.131 C 
ENDBRANCH   6  10
BRANCH   1  13
ATOM     13  O   LIG    1       29.110 -21.641   7.384  0.00  0.00    -0.491 OA
BRANCH  13  14
ATOM     14  C   LIG    1       29.782 -21.510   8.651  0.00  0.00    +0.244 C 
BRANCH  14  15
ATOM     15  C   LIG    1       30.967 -20.518   8.561  0.00  0.00    +0.125 C 
BRANCH  15  16
ATOM     16  N   LIG    1       30.661 -19.113   8.192  0.00  0.00    -0.300 NA
BRANCH  16  18
ATOM     17  C   LIG    1       30.424 -17.078   9.662  0.00  0.00    +0.020 C 
ATOM     18  C   LIG    1       31.349 -18.120   9.031  0.00  0.00    +0.081 C 
ENDBRANCH  16  18
BRANCH  16  19
ATOM     19  C   LIG    1       30.881 -18.897   6.747  0.00  0.00    +0.081 C 
ATOM     20  C   LIG    1       29.676 -18.423   5.934  0.00  0.00    +0.020 C 
ENDBRANCH  16  19
ENDBRANCH  15  16
ENDBRANCH  14  15
ENDBRANCH  13  14
ENDBRANCH   1  13
TORSDOF 7
ENDMDL
