MODEL 1
REMARK VINA RESULT:      -3.7      0.000      0.000
REMARK  Name = *****
REMARK                            x       y       z     vdW  Elec       q    Type
REMARK                         _______ _______ _______ _____ _____    ______ ____
ROOT
ATOM      1  C   LIG    1       24.557 -17.719   3.823  0.00  0.00    +0.125 A 
ATOM      2  C   LIG    1       23.302 -17.255   4.225  0.00  0.00    +0.069 A 
ATOM      3 CL   LIG    1       21.967 -18.281   4.606  0.00  0.00    -0.082 Cl
ATOM      4  C   LIG    1       23.072 -15.871   4.323  0.00  0.00    +0.047 A 
ATOM      5  C   LIG    1       24.078 -14.945   4.025  0.00  0.00    +0.061 A 
ATOM      6  N   LIG    1       23.840 -13.575   4.118  0.00  0.00    -0.303 N 
ATOM      7  H   LIG    1       22.927 -13.267   4.437  0.00  0.00    +0.153 HD
ATOM      8  C   LIG    1       24.798 -12.644   3.844  0.00  0.00    +0.209 C 
ATOM      9  N   LIG    1       26.011 -12.790   3.458  0.00  0.00    -0.121 NA
ATOM     10  S   LIG    1       26.597 -14.281   3.229  0.00  0.00    +0.102 S 
ATOM     11  O   LIG    1       27.640 -14.524   4.206  0.00  0.00    -0.146 OA
ATOM     12  O   LIG    1       26.849 -14.467   1.812  0.00  0.00    -0.146 OA
ATOM     13  C   LIG    1       25.315 -15.436   3.623  0.00  0.00    +0.136 A 
ATOM     14  C   LIG    1       25.574 -16.806   3.521  0.00  0.00    +0.061 A 
ENDROOT
BRANCH   1  15
ATOM     15  S   LIG    1       24.916 -19.444   3.704  0.00  0.00    +0.057 S 
ATOM     16  O   LIG    1       24.084 -20.158   4.645  0.00  0.00    -0.153 OA
ATOM     17  O   LIG    1       24.989 -19.822   2.314  0.00  0.00    -0.153 OA
BRANCH  15  18
ATOM     18  N   LIG    1       26.466 -19.553   4.337  0.00  0.00    -0.203 NA
ATOM     19  H   LIG    1       26.465 -20.172   5.150  0.00  0.00    +0.144 HD
ATOM     20  H   LIG    1       27.120 -19.839   3.607  0.00  0.00    +0.144 HD
ENDBRANCH  15  18
ENDBRANCH   1  15
TORSDOF 2
ENDMDL
MODEL 2
REMARK VINA RESULT:      -3.5      2.194      5.119
REMARK  Name = *****
REMARK                            x       y       z     vdW  Elec       q    Type
REMARK                         _______ _______ _______ _____ _____    ______ ____
ROOT
ATOM      1  C   LIG    1       25.293 -15.444   3.666  0.00  0.00    +0.125 A 
ATOM      2  C   LIG    1       24.055 -14.936   4.064  0.00  0.00    +0.069 A 
ATOM      3 CL   LIG    1       23.708 -13.252   4.233  0.00  0.00    -0.082 Cl
ATOM      4  C   LIG    1       23.006 -15.822   4.370  0.00  0.00    +0.047 A 
ATOM      5  C   LIG    1       23.177 -17.207   4.282  0.00  0.00    +0.061 A 
ATOM      6  N   LIG    1       22.134 -18.079   4.592  0.00  0.00    -0.303 N 
ATOM      7  H   LIG    1       21.239 -17.680   4.853  0.00  0.00    +0.153 HD
ATOM      8  C   LIG    1       22.262 -19.433   4.509  0.00  0.00    +0.209 C 
ATOM      9  N   LIG    1       23.270 -20.154   4.180  0.00  0.00    -0.121 NA
ATOM     10  S   LIG    1       24.664 -19.435   3.781  0.00  0.00    +0.102 S 
ATOM     11  O   LIG    1       24.936 -19.696   2.382  0.00  0.00    -0.146 OA
ATOM     12  O   LIG    1       25.650 -19.740   4.800  0.00  0.00    -0.146 OA
ATOM     13  C   LIG    1       24.421 -17.684   3.887  0.00  0.00    +0.136 A 
ATOM     14  C   LIG    1       25.482 -16.828   3.573  0.00  0.00    +0.061 A 
ENDROOT
BRANCH   1  15
ATOM     15  S   LIG    1       26.642 -14.384   3.246  0.00  0.00    +0.057 S 
ATOM     16  O   LIG    1       26.824 -14.409   1.813  0.00  0.00    -0.153 OA
ATOM     17  O   LIG    1       26.521 -13.146   3.977  0.00  0.00    -0.153 OA
BRANCH  15  18
ATOM     18  N   LIG    1       27.973 -15.202   3.859  0.00  0.00    -0.203 NA
ATOM     19  H   LIG    1       28.097 -14.969   4.846  0.00  0.00    +0.144 HD
ATOM     20  H   LIG    1       27.876 -16.203   3.684  0.00  0.00    +0.144 HD
ENDBRANCH  15  18
ENDBRANCH   1  15
TORSDOF 2
ENDMDL
MODEL 3
REMARK VINA RESULT:      -2.5      0.891      1.193
REMARK  Name = *****
REMARK                            x       y       z     vdW  Elec       q    Type
REMARK                         _______ _______ _______ _____ _____    ______ ____
ROOT
ATOM      1  C   LIG    1       24.436 -17.816   3.976  0.00  0.00    +0.125 A 
ATOM      2  C   LIG    1       23.161 -17.349   4.306  0.00  0.00    +0.069 A 
ATOM      3 CL   LIG    1       21.823 -18.374   4.683  0.00  0.00    -0.082 Cl
ATOM      4  C   LIG    1       22.912 -15.965   4.328  0.00  0.00    +0.047 A 
ATOM      5  C   LIG    1       23.919 -15.042   4.026  0.00  0.00    +0.061 A 
ATOM      6  N   LIG    1       23.663 -13.672   4.044  0.00  0.00    -0.303 N 
ATOM      7  H   LIG    1       22.735 -13.362   4.312  0.00  0.00    +0.153 HD
ATOM      8  C   LIG    1       24.620 -12.743   3.764  0.00  0.00    +0.209 C 
ATOM      9  N   LIG    1       25.850 -12.892   3.432  0.00  0.00    -0.121 NA
ATOM     10  S   LIG    1       26.461 -14.384   3.298  0.00  0.00    +0.102 S 
ATOM     11  O   LIG    1       27.466 -14.568   4.326  0.00  0.00    -0.146 OA
ATOM     12  O   LIG    1       26.770 -14.634   1.903  0.00  0.00    -0.146 OA
ATOM     13  C   LIG    1       25.176 -15.535   3.697  0.00  0.00    +0.136 A 
ATOM     14  C   LIG    1       25.454 -16.906   3.671  0.00  0.00    +0.061 A 
ENDROOT
BRANCH   1  15
ATOM     15  S   LIG    1       24.818 -19.540   3.954  0.00  0.00    +0.057 S 
ATOM     16  O   LIG    1       26.221 -19.701   3.651  0.00  0.00    -0.153 OA
ATOM     17  O   LIG    1       24.208 -20.179   5.095  0.00  0.00    -0.153 OA
BRANCH  15  18
ATOM     18  N   LIG    1       24.020 -20.089   2.584  0.00  0.00    -0.203 NA
ATOM     19  H   LIG    1       23.441 -19.341   2.198  0.00  0.00    +0.144 HD
ATOM     20  H   LIG    1       24.694 -20.469   1.919  0.00  0.00    +0.144 HD
ENDBRANCH  15  18
ENDBRANCH   1  15
TORSDOF 2
ENDMDL
MODEL 4
REMARK VINA RESULT:      -2.5      2.701      5.797
REMARK  Name = *****
REMARK                            x       y       z     vdW  Elec       q    Type
REMARK                         _______ _______ _______ _____ _____    ______ ____
ROOT
ATOM      1  C   LIG    1       24.689 -15.487   3.899  0.00  0.00    +0.125 A 
ATOM      2  C   LIG    1       25.928 -15.908   3.410  0.00  0.00    +0.069 A 
ATOM      3 CL   LIG    1       27.217 -14.839   2.990  0.00  0.00    -0.082 Cl
ATOM      4  C   LIG    1       26.169 -17.281   3.220  0.00  0.00    +0.047 A 
ATOM      5  C   LIG    1       25.191 -18.238   3.513  0.00  0.00    +0.061 A 
ATOM      6  N   LIG    1       25.436 -19.595   3.317  0.00  0.00    -0.303 N 
ATOM      7  H   LIG    1       26.353 -19.874   2.984  0.00  0.00    +0.153 HD
ATOM      8  C   LIG    1       24.510 -20.555   3.600  0.00  0.00    +0.209 C 
ATOM      9  N   LIG    1       23.314 -20.450   4.048  0.00  0.00    -0.121 NA
ATOM     10  S   LIG    1       22.711 -18.981   4.360  0.00  0.00    +0.102 S 
ATOM     11  O   LIG    1       22.484 -18.868   5.787  0.00  0.00    -0.146 OA
ATOM     12  O   LIG    1       21.646 -18.707   3.415  0.00  0.00    -0.146 OA
ATOM     13  C   LIG    1       23.967 -17.788   3.995  0.00  0.00    +0.136 A 
ATOM     14  C   LIG    1       23.699 -16.430   4.198  0.00  0.00    +0.061 A 
ENDROOT
BRANCH   1  15
ATOM     15  S   LIG    1       24.333 -13.781   4.182  0.00  0.00    +0.057 S 
ATOM     16  O   LIG    1       23.130 -13.683   4.977  0.00  0.00    -0.153 OA
ATOM     17  O   LIG    1       25.547 -13.094   4.550  0.00  0.00    -0.153 OA
BRANCH  15  18
ATOM     18  N   LIG    1       23.885 -13.229   2.661  0.00  0.00    -0.203 NA
ATOM     19  H   LIG    1       23.423 -12.322   2.745  0.00  0.00    +0.144 HD
ATOM     20  H   LIG    1       24.697 -13.218   2.043  0.00  0.00    +0.144 HD
ENDBRANCH  15  18
ENDBRANCH   1  15
TORSDOF 2
ENDMDL
MODEL 5
REMARK VINA RESULT:      -2.4      2.720      5.808
REMARK  Name = *****
REMARK                            x       y       z     vdW  Elec       q    Type
REMARK                         _______ _______ _______ _____ _____    ______ ____
ROOT
ATOM      1  C   LIG    1       24.648 -15.569   3.870  0.00  0.00    +0.125 A 
ATOM      2  C   LIG    1       25.891 -15.986   3.389  0.00  0.00    +0.069 A 
ATOM      3 CL   LIG    1       27.169 -14.911   2.948  0.00  0.00    -0.082 Cl
ATOM      4  C   LIG    1       26.147 -17.360   3.224  0.00  0.00    +0.047 A 
ATOM      5  C   LIG    1       25.180 -18.321   3.536  0.00  0.00    +0.061 A 
ATOM      6  N   LIG    1       25.440 -19.680   3.365  0.00  0.00    -0.303 N 
ATOM      7  H   LIG    1       26.360 -19.954   3.037  0.00  0.00    +0.153 HD
ATOM      8  C   LIG    1       24.525 -20.644   3.666  0.00  0.00    +0.209 C 
ATOM      9  N   LIG    1       23.327 -20.543   4.113  0.00  0.00    -0.121 NA
ATOM     10  S   LIG    1       22.708 -19.076   4.398  0.00  0.00    +0.102 S 
ATOM     11  O   LIG    1       22.480 -18.938   5.822  0.00  0.00    -0.146 OA
ATOM     12  O   LIG    1       21.640 -18.832   3.448  0.00  0.00    -0.146 OA
ATOM     13  C   LIG    1       23.951 -17.877   4.010  0.00  0.00    +0.136 A 
ATOM     14  C   LIG    1       23.669 -16.518   4.187  0.00  0.00    +0.061 A 
ENDROOT
BRANCH   1  15
ATOM     15  S   LIG    1       24.273 -13.862   4.121  0.00  0.00    +0.057 S 
ATOM     16  O   LIG    1       24.190 -13.211   2.834  0.00  0.00    -0.153 OA
ATOM     17  O   LIG    1       23.223 -13.744   5.103  0.00  0.00    -0.153 OA
BRANCH  15  18
ATOM     18  N   LIG    1       25.679 -13.262   4.814  0.00  0.00    -0.203 NA
ATOM     19  H   LIG    1       25.907 -12.356   4.402  0.00  0.00    +0.144 HD
ATOM     20  H   LIG    1       25.582 -13.237   5.830  0.00  0.00    +0.144 HD
ENDBRANCH  15  18
ENDBRANCH   1  15
TORSDOF 2
ENDMDL
MODEL 6
REMARK VINA RESULT:      -1.9      2.141      5.126
REMARK  Name = *****
REMARK                            x       y       z     vdW  Elec       q    Type
REMARK                         _______ _______ _______ _____ _____    ______ ____
ROOT
ATOM      1  C   LIG    1       25.502 -15.079   3.796  0.00  0.00    +0.125 A 
ATOM      2  C   LIG    1       24.242 -14.598   4.158  0.00  0.00    +0.069 A 
ATOM      3 CL   LIG    1       23.876 -12.926   4.394  0.00  0.00    -0.082 Cl
ATOM      4  C   LIG    1       23.186 -15.503   4.367  0.00  0.00    +0.047 A 
ATOM      5  C   LIG    1       23.371 -16.882   4.218  0.00  0.00    +0.061 A 
ATOM      6  N   LIG    1       22.320 -17.772   4.433  0.00  0.00    -0.303 N 
ATOM      7  H   LIG    1       21.410 -17.391   4.670  0.00  0.00    +0.153 HD
ATOM      8  C   LIG    1       22.462 -19.120   4.289  0.00  0.00    +0.209 C 
ATOM      9  N   LIG    1       23.490 -19.819   3.975  0.00  0.00    -0.121 NA
ATOM     10  S   LIG    1       24.896 -19.074   3.681  0.00  0.00    +0.102 S 
ATOM     11  O   LIG    1       25.238 -19.264   2.286  0.00  0.00    -0.146 OA
ATOM     12  O   LIG    1       25.834 -19.426   4.730  0.00  0.00    -0.146 OA
ATOM     13  C   LIG    1       24.636 -17.332   3.862  0.00  0.00    +0.136 A 
ATOM     14  C   LIG    1       25.705 -16.456   3.644  0.00  0.00    +0.061 A 
ENDROOT
BRANCH   1  15
ATOM     15  S   LIG    1       26.862 -13.994   3.497  0.00  0.00    +0.057 S 
ATOM     16  O   LIG    1       26.802 -12.902   4.442  0.00  0.00    -0.153 OA
ATOM     17  O   LIG    1       28.062 -14.773   3.308  0.00  0.00    -0.153 OA
BRANCH  15  18
ATOM     18  N   LIG    1       26.476 -13.300   2.018  0.00  0.00    -0.203 NA
ATOM     19  H   LIG    1       27.331 -13.037   1.526  0.00  0.00    +0.144 HD
ATOM     20  H   LIG    1       25.875 -13.930   1.486  0.00  0.00    +0.144 HD
ENDBRANCH  15  18
ENDBRANCH   1  15
TORSDOF 2
ENDMDL
MODEL 7
REMARK VINA RESULT:      -1.9      2.506      2.994
REMARK  Name = *****
REMARK                            x       y       z     vdW  Elec       q    Type
REMARK                         _______ _______ _______ _____ _____    ______ ____
ROOT
ATOM      1  C   LIG    1       23.875 -17.768   4.022  0.00  0.00    +0.125 A 
ATOM      2  C   LIG    1       25.128 -18.285   3.684  0.00  0.00    +0.069 A 
ATOM      3 CL   LIG    1       25.501 -19.971   3.649  0.00  0.00    -0.082 Cl
ATOM      4  C   LIG    1       26.179 -17.408   3.363  0.00  0.00    +0.047 A 
ATOM      5  C   LIG    1       25.996 -16.021   3.373  0.00  0.00    +0.061 A 
ATOM      6  N   LIG    1       27.044 -15.158   3.058  0.00  0.00    -0.303 N 
ATOM      7  H   LIG    1       27.935 -15.563   2.792  0.00  0.00    +0.153 HD
ATOM      8  C   LIG    1       26.899 -13.802   3.049  0.00  0.00    +0.209 C 
ATOM      9  N   LIG    1       25.879 -13.074   3.318  0.00  0.00    -0.121 NA
ATOM     10  S   LIG    1       24.489 -13.782   3.748  0.00  0.00    +0.102 S 
ATOM     11  O   LIG    1       23.500 -13.522   2.721  0.00  0.00    -0.146 OA
ATOM     12  O   LIG    1       24.219 -13.465   5.137  0.00  0.00    -0.146 OA
ATOM     13  C   LIG    1       24.740 -15.534   3.716  0.00  0.00    +0.136 A 
ATOM     14  C   LIG    1       23.675 -16.382   4.037  0.00  0.00    +0.061 A 
ENDROOT
BRANCH   1  15
ATOM     15  S   LIG    1       22.510 -18.817   4.412  0.00  0.00    +0.057 S 
ATOM     16  O   LIG    1       22.599 -19.197   5.803  0.00  0.00    -0.153 OA
ATOM     17  O   LIG    1       21.304 -18.258   3.851  0.00  0.00    -0.153 OA
BRANCH  15  18
ATOM     18  N   LIG    1       22.856 -20.222   3.563  0.00  0.00    -0.203 NA
ATOM     19  H   LIG    1       22.758 -21.031   4.179  0.00  0.00    +0.144 HD
ATOM     20  H   LIG    1       22.275 -20.273   2.725  0.00  0.00    +0.144 HD
ENDBRANCH  15  18
ENDBRANCH   1  15
TORSDOF 2
ENDMDL
MODEL 8
REMARK VINA RESULT:      -1.9      2.452      2.980
REMARK  Name = *****
REMARK                            x       y       z     vdW  Elec       q    Type
REMARK                         _______ _______ _______ _____ _____    ______ ____
ROOT
ATOM      1  C   LIG    1       23.981 -17.858   3.925  0.00  0.00    +0.125 A 
ATOM      2  C   LIG    1       25.265 -18.330   3.645  0.00  0.00    +0.069 A 
ATOM      3 CL   LIG    1       25.691 -20.002   3.592  0.00  0.00    -0.082 Cl
ATOM      4  C   LIG    1       26.304 -17.414   3.402  0.00  0.00    +0.047 A 
ATOM      5  C   LIG    1       26.078 -16.033   3.433  0.00  0.00    +0.061 A 
ATOM      6  N   LIG    1       27.114 -15.132   3.197  0.00  0.00    -0.303 N 
ATOM      7  H   LIG    1       28.031 -15.504   2.971  0.00  0.00    +0.153 HD
ATOM      8  C   LIG    1       26.929 -13.782   3.211  0.00  0.00    +0.209 C 
ATOM      9  N   LIG    1       25.874 -13.090   3.439  0.00  0.00    -0.121 NA
ATOM     10  S   LIG    1       24.485 -13.850   3.776  0.00  0.00    +0.102 S 
ATOM     11  O   LIG    1       23.546 -13.594   2.703  0.00  0.00    -0.146 OA
ATOM     12  O   LIG    1       24.130 -13.575   5.155  0.00  0.00    -0.146 OA
ATOM     13  C   LIG    1       24.791 -15.593   3.718  0.00  0.00    +0.136 A 
ATOM     14  C   LIG    1       23.737 -16.480   3.961  0.00  0.00    +0.061 A 
ENDROOT
BRANCH   1  15
ATOM     15  S   LIG    1       22.629 -18.956   4.216  0.00  0.00    +0.057 S 
ATOM     16  O   LIG    1       21.393 -18.229   4.038  0.00  0.00    -0.153 OA
ATOM     17  O   LIG    1       22.879 -20.208   3.544  0.00  0.00    -0.153 OA
BRANCH  15  18
ATOM     18  N   LIG    1       22.721 -19.243   5.866  0.00  0.00    -0.203 NA
ATOM     19  H   LIG    1       21.786 -19.206   6.276  0.00  0.00    +0.144 HD
ATOM     20  H   LIG    1       23.208 -20.123   6.039  0.00  0.00    +0.144 HD
ENDBRANCH  15  18
ENDBRANCH   1  15
TORSDOF 2
ENDMDL
MODEL 9
REMARK VINA RESULT:      -0.8      2.448      3.091
REMARK  Name = *****
REMARK                            x       y       z     vdW  Elec       q    Type
REMARK                         _______ _______ _______ _____ _____    ______ ____
ROOT
ATOM      1  C   LIG    1       25.885 -17.703   3.883  0.00  0.00    +0.125 A 
ATOM      2  C   LIG    1       27.231 -17.833   4.233  0.00  0.00    +0.069 A 
ATOM      3 CL   LIG    1       27.979 -19.329   4.666  0.00  0.00    -0.082 Cl
ATOM      4  C   LIG    1       28.055 -16.694   4.262  0.00  0.00    +0.047 A 
ATOM      5  C   LIG    1       27.554 -15.427   3.943  0.00  0.00    +0.061 A 
ATOM      6  N   LIG    1       28.376 -14.302   3.979  0.00  0.00    -0.303 N 
ATOM      7  H   LIG    1       29.354 -14.431   4.213  0.00  0.00    +0.153 HD
ATOM      8  C   LIG    1       27.924 -13.054   3.667  0.00  0.00    +0.209 C 
ATOM      9  N   LIG    1       26.755 -12.656   3.322  0.00  0.00    -0.121 NA
ATOM     10  S   LIG    1       25.552 -13.732   3.209  0.00  0.00    +0.102 S 
ATOM     11  O   LIG    1       25.141 -13.823   1.822  0.00  0.00    -0.146 OA
ATOM     12  O   LIG    1       24.584 -13.456   4.253  0.00  0.00    -0.146 OA
ATOM     13  C   LIG    1       26.210 -15.327   3.602  0.00  0.00    +0.136 A 
ATOM     14  C   LIG    1       25.367 -16.443   3.562  0.00  0.00    +0.061 A 
ENDROOT
BRANCH   1  15
ATOM     15  S   LIG    1       24.806 -19.098   3.805  0.00  0.00    +0.057 S 
ATOM     16  O   LIG    1       25.082 -19.963   4.930  0.00  0.00    -0.153 OA
ATOM     17  O   LIG    1       23.468 -18.650   3.500  0.00  0.00    -0.153 OA
BRANCH  15  18
ATOM     18  N   LIG    1       25.370 -19.942   2.469  0.00  0.00    -0.203 NA
ATOM     19  H   LIG    1       25.249 -20.945   2.618  0.00  0.00    +0.144 HD
ATOM     20  H   LIG    1       24.915 -19.596   1.623  0.00  0.00    +0.144 HD
ENDBRANCH  15  18
ENDBRANCH   1  15
TORSDOF 2
ENDMDL
