MODEL 1
REMARK VINA RESULT:      -2.2      0.000      0.000
REMARK  Name = *****
REMARK                            x       y       z     vdW  Elec       q    Type
REMARK                         _______ _______ _______ _____ _____    ______ ____
ROOT
ATOM      1  C   LIG    1       25.914 -18.919   4.541  0.00  0.00    +0.170 C 
ENDROOT
BRANCH   1   7
ATOM      2 CL   LIG    1       20.222 -20.972   4.491  0.00  0.00    -0.084 Cl
ATOM      3  C   LIG    1       21.847 -20.405   4.501  0.00  0.00    +0.042 A 
ATOM      4  C   LIG    1       22.746 -20.910   5.435  0.00  0.00    +0.040 A 
ATOM      5  C   LIG    1       24.058 -20.432   5.464  0.00  0.00    +0.048 A 
ATOM      6 CL   LIG    1       25.072 -21.008   6.740  0.00  0.00    -0.083 Cl
ATOM      7  C   LIG    1       24.500 -19.479   4.527  0.00  0.00    +0.001 A 
ATOM      8  C   LIG    1       23.566 -18.979   3.596  0.00  0.00    +0.009 A 
ATOM      9  C   LIG    1       22.246 -19.434   3.590  0.00  0.00    +0.020 A 
ENDBRANCH   1   7
BRANCH   1  10
ATOM     10  O   LIG    1       26.076 -18.032   3.411  0.00  0.00    -0.365 OA
BRANCH  10  11
ATOM     11  C   LIG    1       27.156 -17.097   3.583  0.00  0.00    +0.197 C 
BRANCH  11  12
ATOM     12  C   LIG    1       26.699 -15.674   3.434  0.00  0.00    -0.007 A 
ATOM     13  C   LIG    1       25.348 -15.219   3.705  0.00  0.00    -0.004 A 
ATOM     14  C   LIG    1       24.203 -15.946   4.128  0.00  0.00    +0.009 A 
ATOM     15  C   LIG    1       22.991 -15.301   4.384  0.00  0.00    +0.002 A 
ATOM     16  C   LIG    1       22.886 -13.930   4.218  0.00  0.00    +0.021 A 
ATOM     17  C   LIG    1       23.984 -13.184   3.781  0.00  0.00    +0.055 A 
ATOM     18 CL   LIG    1       23.797 -11.480   3.586  0.00  0.00    -0.082 Cl
ATOM     19  C   LIG    1       25.212 -13.834   3.520  0.00  0.00    +0.038 A 
ATOM     20  S   LIG    1       26.694 -13.144   2.965  0.00  0.00    -0.095 S 
ATOM     21  C   LIG    1       27.499 -14.639   2.995  0.00  0.00    +0.052 A 
ENDBRANCH  11  12
ENDBRANCH  10  11
ENDBRANCH   1  10
BRANCH   1  22
ATOM     22  C   LIG    1       27.004 -20.013   4.447  0.00  0.00    +0.159 C 
BRANCH  22  23
ATOM     23  N   LIG    1       28.088 -19.896   5.401  0.00  0.00    -0.334 N 
ATOM     24  C   LIG    1       28.660 -18.731   5.834  0.00  0.00    +0.199 A 
ATOM     25  N   LIG    1       29.475 -18.937   6.842  0.00  0.00    -0.244 NA
ATOM     26  C   LIG    1       29.446 -20.283   7.062  0.00  0.00    +0.130 A 
ATOM     27  C   LIG    1       28.620 -20.904   6.157  0.00  0.00    +0.107 A 
ENDBRANCH  22  23
ENDBRANCH   1  22
TORSDOF 6
ENDMDL
MODEL 2
REMARK VINA RESULT:      -1.9      2.903      6.563
REMARK  Name = *****
REMARK                            x       y       z     vdW  Elec       q    Type
REMARK                         _______ _______ _______ _____ _____    ______ ____
ROOT
ATOM      1  C   LIG    1       26.194 -15.021   2.954  0.00  0.00    +0.170 C 
ENDROOT
BRANCH   1   7
ATOM      2 CL   LIG    1       22.302 -11.447   5.903  0.00  0.00    -0.084 Cl
ATOM      3  C   LIG    1       23.422 -12.452   5.068  0.00  0.00    +0.042 A 
ATOM      4  C   LIG    1       24.096 -11.957   3.957  0.00  0.00    +0.040 A 
ATOM      5  C   LIG    1       24.985 -12.778   3.260  0.00  0.00    +0.048 A 
ATOM      6 CL   LIG    1       25.675 -12.135   1.812  0.00  0.00    -0.083 Cl
ATOM      7  C   LIG    1       25.249 -14.090   3.698  0.00  0.00    +0.001 A 
ATOM      8  C   LIG    1       24.548 -14.569   4.824  0.00  0.00    +0.009 A 
ATOM      9  C   LIG    1       23.634 -13.757   5.499  0.00  0.00    +0.020 A 
ENDBRANCH   1   7
BRANCH   1  10
ATOM     10  O   LIG    1       25.579 -16.326   2.852  0.00  0.00    -0.365 OA
BRANCH  10  11
ATOM     11  C   LIG    1       26.419 -17.383   3.352  0.00  0.00    +0.197 C 
BRANCH  11  12
ATOM     12  C   LIG    1       25.621 -18.568   3.812  0.00  0.00    -0.007 A 
ATOM     13  C   LIG    1       24.185 -18.551   4.027  0.00  0.00    -0.004 A 
ATOM     14  C   LIG    1       23.249 -17.492   3.886  0.00  0.00    +0.009 A 
ATOM     15  C   LIG    1       21.884 -17.699   4.097  0.00  0.00    +0.002 A 
ATOM     16  C   LIG    1       21.422 -18.955   4.459  0.00  0.00    +0.021 A 
ATOM     17  C   LIG    1       22.315 -20.016   4.629  0.00  0.00    +0.055 A 
ATOM     18 CL   LIG    1       21.685 -21.556   5.086  0.00  0.00    -0.082 Cl
ATOM     19  C   LIG    1       23.697 -19.808   4.418  0.00  0.00    +0.038 A 
ATOM     20  S   LIG    1       24.988 -20.943   4.576  0.00  0.00    -0.095 S 
ATOM     21  C   LIG    1       26.159 -19.803   4.112  0.00  0.00    +0.052 A 
ENDBRANCH  11  12
ENDBRANCH  10  11
ENDBRANCH   1  10
BRANCH   1  22
ATOM     22  C   LIG    1       27.560 -15.194   3.658  0.00  0.00    +0.159 C 
BRANCH  22  23
ATOM     23  N   LIG    1       28.175 -13.971   4.133  0.00  0.00    -0.334 N 
ATOM     24  C   LIG    1       28.969 -13.130   3.401  0.00  0.00    +0.199 A 
ATOM     25  N   LIG    1       29.208 -12.010   4.042  0.00  0.00    -0.244 NA
ATOM     26  C   LIG    1       28.564 -12.132   5.238  0.00  0.00    +0.130 A 
ATOM     27  C   LIG    1       27.945 -13.354   5.332  0.00  0.00    +0.107 A 
ENDBRANCH  22  23
ENDBRANCH   1  22
TORSDOF 6
ENDMDL
MODEL 3
REMARK VINA RESULT:       0.6      2.192      2.702
REMARK  Name = *****
REMARK                            x       y       z     vdW  Elec       q    Type
REMARK                         _______ _______ _______ _____ _____    ______ ____
ROOT
ATOM      1  C   LIG    1       25.164 -19.319   5.067  0.00  0.00    +0.170 C 
ENDROOT
BRANCH   1   7
ATOM      2 CL   LIG    1       19.350 -19.608   3.414  0.00  0.00    -0.084 Cl
ATOM      3  C   LIG    1       20.999 -19.516   3.899  0.00  0.00    +0.042 A 
ATOM      4  C   LIG    1       21.606 -18.274   4.046  0.00  0.00    +0.040 A 
ATOM      5  C   LIG    1       22.951 -18.196   4.412  0.00  0.00    +0.048 A 
ATOM      6 CL   LIG    1       23.667 -16.623   4.438  0.00  0.00    -0.083 Cl
ATOM      7  C   LIG    1       23.692 -19.361   4.686  0.00  0.00    +0.001 A 
ATOM      8  C   LIG    1       23.054 -20.609   4.525  0.00  0.00    +0.009 A 
ATOM      9  C   LIG    1       21.719 -20.685   4.125  0.00  0.00    +0.020 A 
ENDBRANCH   1   7
BRANCH   1  10
ATOM     10  O   LIG    1       25.960 -19.352   3.861  0.00  0.00    -0.365 OA
BRANCH  10  11
ATOM     11  C   LIG    1       25.842 -18.150   3.078  0.00  0.00    +0.197 C 
BRANCH  11  12
ATOM     12  C   LIG    1       26.758 -17.066   3.569  0.00  0.00    -0.007 A 
ATOM     13  C   LIG    1       26.593 -15.657   3.262  0.00  0.00    -0.004 A 
ATOM     14  C   LIG    1       25.612 -14.999   2.472  0.00  0.00    +0.009 A 
ATOM     15  C   LIG    1       25.601 -13.609   2.342  0.00  0.00    +0.002 A 
ATOM     16  C   LIG    1       26.562 -12.845   2.985  0.00  0.00    +0.021 A 
ATOM     17  C   LIG    1       27.556 -13.457   3.752  0.00  0.00    +0.055 A 
ATOM     18 CL   LIG    1       28.731 -12.458   4.526  0.00  0.00    -0.082 Cl
ATOM     19  C   LIG    1       27.571 -14.864   3.883  0.00  0.00    +0.038 A 
ATOM     20  S   LIG    1       28.689 -15.848   4.756  0.00  0.00    -0.095 S 
ATOM     21  C   LIG    1       27.881 -17.283   4.342  0.00  0.00    +0.052 A 
ENDBRANCH  11  12
ENDBRANCH  10  11
ENDBRANCH   1  10
BRANCH   1  22
ATOM     22  C   LIG    1       25.598 -20.508   5.956  0.00  0.00    +0.159 C 
BRANCH  22  23
ATOM     23  N   LIG    1       26.989 -20.506   6.364  0.00  0.00    -0.334 N 
ATOM     24  C   LIG    1       27.647 -21.527   6.994  0.00  0.00    +0.199 A 
ATOM     25  N   LIG    1       28.939 -21.307   7.051  0.00  0.00    -0.244 NA
ATOM     26  C   LIG    1       29.128 -20.095   6.456  0.00  0.00    +0.130 A 
ATOM     27  C   LIG    1       27.928 -19.561   6.053  0.00  0.00    +0.107 A 
ENDBRANCH  22  23
ENDBRANCH   1  22
TORSDOF 6
ENDMDL
