MODEL 1
REMARK VINA RESULT:      -6.1      0.000      0.000
REMARK  Name = *****
REMARK                            x       y       z     vdW  Elec       q    Type
REMARK                         _______ _______ _______ _____ _____    ______ ____
ROOT
ATOM      1  C   UNK A  3       25.030 -28.022  13.194  0.00  0.00    +0.194 C 
ATOM      2  C   UNK A  3       26.283 -28.199  12.303  0.00  0.00    +0.237 C 
ATOM      3  O   UNK A  3       27.410 -27.833  12.624  0.00  0.00    -0.274 OA
ATOM      4  N   UNK A  3       26.021 -28.685  11.035  0.00  0.00    -0.311 N 
ATOM      5  H   UNK A  3       25.201 -29.282  10.950  0.00  0.00    +0.149 HD
ATOM      6  C   UNK A  3       27.114 -28.930  10.094  0.00  0.00    +0.136 C 
ATOM      7  C   UNK A  3       26.633 -29.323   8.683  0.00  0.00    +0.176 C 
ATOM      8  C   UNK A  1       25.983 -30.716   8.779  0.00  0.00    +0.235 C 
ATOM      9  O   UNK A  1       25.303 -31.055   9.751  0.00  0.00    -0.274 OA
ATOM     10  N   SER A  2       26.143 -31.516   7.671  0.00  0.00    -0.300 N 
ATOM     11  H   SER A  2       26.338 -31.049   6.787  0.00  0.00    +0.150 HD
ATOM     12  CA  SER A  2       25.554 -32.866   7.604  0.00  0.00    +0.184 C 
ATOM     13  C   SER A  2       24.022 -32.672   7.653  0.00  0.00    +0.236 C 
ATOM     14  O   SER A  2       23.474 -31.832   6.934  0.00  0.00    -0.274 OA
ATOM     15  N   UNK A  3       23.318 -33.367   8.612  0.00  0.00    -0.300 N 
ATOM     16  H   UNK A  3       23.785 -34.038   9.209  0.00  0.00    +0.150 HD
ATOM     17  C   UNK A  3       22.149 -32.732   9.229  0.00  0.00    +0.185 C 
ATOM     18  C   UNK A  3       22.520 -32.515  10.709  0.00  0.00    +0.240 C 
ATOM     19  O   UNK A  3       23.025 -33.420  11.374  0.00  0.00    -0.273 OA
ATOM     20  N   UNK A  3       22.239 -31.248  11.185  0.00  0.00    -0.279 N 
ATOM     21  H   UNK A  3       22.303 -30.507  10.487  0.00  0.00    +0.155 HD
ATOM     22  C   UNK A  3       22.483 -30.806  12.479  0.00  0.00    +0.110 C 
ATOM     23  C   UNK A  3       22.104 -31.413  13.619  0.00  0.00    +0.104 C 
ATOM     24  C   UNK A  3       23.061 -29.419  12.559  0.00  0.00    +0.260 C 
ATOM     25  O   UNK A  3       22.547 -28.516  11.907  0.00  0.00    -0.269 OA
ATOM     26  N   UNK A  3       24.270 -29.303  13.201  0.00  0.00    -0.296 N 
ATOM     27  H   UNK A  3       24.747 -30.143  13.510  0.00  0.00    +0.150 HD
ENDROOT
BRANCH   1  33
ATOM     28  N   UNK A  3       22.151 -26.185  15.500  0.00  0.00    -0.134 NA
ATOM     29  H   UNK A  3       21.776 -25.243  15.387  0.00  0.00    +0.306 HD
ATOM     30  C   UNK A  3       23.415 -26.167  15.269  0.00  0.00    +0.362 C 
ATOM     31  N   UNK A  3       24.130 -27.307  15.380  0.00  0.00    -0.234 N 
ATOM     32  H   UNK A  3       23.521 -28.109  15.496  0.00  0.00    +0.245 HD
ATOM     33  C   UNK A  3       25.366 -27.544  14.636  0.00  0.00    +0.168 C 
ATOM     34  C   UNK A  3       26.207 -26.265  14.760  0.00  0.00    +0.075 C 
ATOM     35  C   UNK A  3       25.416 -25.034  14.356  0.00  0.00    +0.188 C 
ATOM     36  N   UNK A  3       24.089 -25.050  14.924  0.00  0.00    -0.238 N 
ATOM     37  H   UNK A  3       23.530 -24.232  14.718  0.00  0.00    +0.244 HD
ENDBRANCH   1  33
BRANCH  23  38
ATOM     38  N   UNK A  3       21.318 -32.547  13.670  0.00  0.00    -0.274 N 
ATOM     39  H   UNK A  3       21.782 -33.439  13.775  0.00  0.00    +0.156 HD
ATOM     40  C   UNK A  3       19.962 -32.567  13.521  0.00  0.00    +0.301 C 
ATOM     41  O   UNK A  3       19.237 -31.573  13.387  0.00  0.00    -0.253 OA
ATOM     42  N   UNK A  3       19.435 -33.818  13.485  0.00  0.00    -0.313 N 
ATOM     43  H   UNK A  3       18.422 -33.858  13.453  0.00  0.00    +0.146 HD
ATOM     44  H   UNK A  3       19.896 -34.596  13.929  0.00  0.00    +0.146 HD
ENDBRANCH  23  38
BRANCH   7  45
ATOM     45  N   UNK A  3       25.699 -28.326   8.146  0.00  0.00    -0.303 N 
ATOM     46  H   UNK A  1       25.232 -27.721   8.811  0.00  0.00    +0.149 HD
ATOM     47  C   UNK A  0       25.293 -28.339   6.836  0.00  0.00    +0.215 C 
ATOM     48  O   UNK A  0       25.595 -29.260   6.078  0.00  0.00    -0.276 OA
BRANCH  47  49
ATOM     49  C   UNK A  0       24.439 -27.171   6.361  0.00  0.00    +0.116 C 
BRANCH  49  50
ATOM     50  C   UNK A  0       25.108 -26.167   5.406  0.00  0.00    +0.088 C 
BRANCH  50  51
ATOM     51  N   UNK A  0       26.548 -26.095   5.734  0.00  0.00    -0.325 NA
ATOM     52  H   UNK A  0       26.829 -25.113   5.754  0.00  0.00    +0.119 HD
ATOM     53  H   UNK A  0       26.714 -26.464   6.669  0.00  0.00    +0.119 HD
ENDBRANCH  50  51
BRANCH  50  54
ATOM     54  C   UNK A  0       24.469 -24.746   5.412  0.00  0.00    +0.133 C 
BRANCH  54  55
ATOM     55  O   UNK A  0       25.517 -23.774   5.535  0.00  0.00    -0.390 OA
ATOM     56  H   UNK A  0       26.268 -24.031   4.974  0.00  0.00    +0.210 HD
ENDBRANCH  54  55
BRANCH  54  57
ATOM     57  C   UNK A  0       23.405 -24.549   6.505  0.00  0.00    +0.048 C 
BRANCH  57  58
ATOM     58  C   UNK A  0       23.179 -23.088   6.895  0.00  0.00    +0.080 C 
BRANCH  58  59
ATOM     59  N   UNK A  0       22.865 -22.244   5.751  0.00  0.00    -0.330 NA
ATOM     60  H   UNK A  0       23.328 -21.340   5.853  0.00  0.00    +0.118 HD
ATOM     61  H   UNK A  0       23.229 -22.659   4.892  0.00  0.00    +0.118 HD
ENDBRANCH  58  59
ENDBRANCH  57  58
ENDBRANCH  54  57
ENDBRANCH  50  54
ENDBRANCH  49  50
ENDBRANCH  47  49
ENDBRANCH   7  45
BRANCH  12  62
ATOM     62  CB  SER A  2       26.151 -33.825   8.646  0.00  0.00    +0.187 C 
BRANCH  62  63
ATOM     63  OG  SER A  2       27.447 -33.381   9.056  0.00  0.00    -0.393 OA
ATOM     64  H   SER A  2       27.770 -32.769   8.371  0.00  0.00    +0.209 HD
ENDBRANCH  62  63
ENDBRANCH  12  62
BRANCH  17  65
ATOM     65  C   UNK A  3       20.897 -33.609   9.171  0.00  0.00    +0.187 C 
BRANCH  65  66
ATOM     66  O   UNK A  3       19.865 -33.069   9.989  0.00  0.00    -0.393 OA
ATOM     67  H   UNK A  3       19.534 -33.780  10.563  0.00  0.00    +0.209 HD
ENDBRANCH  65  66
ENDBRANCH  17  65
TORSDOF 15
ENDMDL
MODEL 2
REMARK VINA RESULT:      -5.6      2.152      2.574
REMARK  Name = *****
REMARK                            x       y       z     vdW  Elec       q    Type
REMARK                         _______ _______ _______ _____ _____    ______ ____
ROOT
ATOM      1  C   UNK A  3       25.876 -27.150  13.975  0.00  0.00    +0.194 C 
ATOM      2  C   UNK A  3       26.927 -28.082  13.322  0.00  0.00    +0.237 C 
ATOM      3  O   UNK A  3       28.084 -28.192  13.715  0.00  0.00    -0.274 OA
ATOM      4  N   UNK A  3       26.504 -28.694  12.156  0.00  0.00    -0.311 N 
ATOM      5  H   UNK A  3       25.502 -28.861  12.082  0.00  0.00    +0.149 HD
ATOM      6  C   UNK A  3       27.381 -29.625  11.446  0.00  0.00    +0.136 C 
ATOM      7  C   UNK A  3       26.812 -30.094  10.093  0.00  0.00    +0.176 C 
ATOM      8  C   UNK A  1       25.583 -30.977  10.380  0.00  0.00    +0.235 C 
ATOM      9  O   UNK A  1       24.797 -30.726  11.297  0.00  0.00    -0.274 OA
ATOM     10  N   SER A  2       25.382 -32.009   9.492  0.00  0.00    -0.300 N 
ATOM     11  H   SER A  2       25.797 -31.912   8.568  0.00  0.00    +0.150 HD
ATOM     12  CA  SER A  2       24.232 -32.924   9.621  0.00  0.00    +0.184 C 
ATOM     13  C   SER A  2       22.968 -32.059   9.417  0.00  0.00    +0.236 C 
ATOM     14  O   SER A  2       22.897 -31.268   8.472  0.00  0.00    -0.274 OA
ATOM     15  N   UNK A  3       21.994 -32.106  10.390  0.00  0.00    -0.300 N 
ATOM     16  H   UNK A  3       22.076 -32.745  11.170  0.00  0.00    +0.150 HD
ATOM     17  C   UNK A  3       21.240 -30.886  10.696  0.00  0.00    +0.185 C 
ATOM     18  C   UNK A  3       21.628 -30.502  12.137  0.00  0.00    +0.240 C 
ATOM     19  O   UNK A  3       21.633 -31.343  13.036  0.00  0.00    -0.273 OA
ATOM     20  N   UNK A  3       21.959 -29.169  12.300  0.00  0.00    -0.279 N 
ATOM     21  H   UNK A  3       22.382 -28.733  11.481  0.00  0.00    +0.155 HD
ATOM     22  C   UNK A  3       22.345 -28.581  13.497  0.00  0.00    +0.110 C 
ATOM     23  C   UNK A  3       21.694 -28.653  14.673  0.00  0.00    +0.104 C 
ATOM     24  C   UNK A  3       23.502 -27.627  13.372  0.00  0.00    +0.260 C 
ATOM     25  O   UNK A  3       23.488 -26.780  12.484  0.00  0.00    -0.269 OA
ATOM     26  N   UNK A  3       24.607 -27.910  14.137  0.00  0.00    -0.296 N 
ATOM     27  H   UNK A  3       24.626 -28.770  14.676  0.00  0.00    +0.150 HD
ENDROOT
BRANCH   1  33
ATOM     28  N   UNK A  3       25.484 -23.108  14.671  0.00  0.00    -0.134 NA
ATOM     29  H   UNK A  3       26.027 -22.352  14.252  0.00  0.00    +0.306 HD
ATOM     30  C   UNK A  3       26.264 -24.099  14.921  0.00  0.00    +0.362 C 
ATOM     31  N   UNK A  3       25.763 -25.211  15.500  0.00  0.00    -0.234 N 
ATOM     32  H   UNK A  3       24.750 -25.180  15.534  0.00  0.00    +0.245 HD
ATOM     33  C   UNK A  3       26.357 -26.535  15.321  0.00  0.00    +0.168 C 
ATOM     34  C   UNK A  3       27.873 -26.366  15.500  0.00  0.00    +0.075 C 
ATOM     35  C   UNK A  3       28.422 -25.267  14.608  0.00  0.00    +0.188 C 
ATOM     36  N   UNK A  3       27.583 -24.092  14.642  0.00  0.00    -0.238 N 
ATOM     37  H   UNK A  3       27.925 -23.312  14.095  0.00  0.00    +0.244 HD
ENDBRANCH   1  33
BRANCH  23  38
ATOM     38  N   UNK A  3       20.469 -29.264  14.845  0.00  0.00    -0.274 N 
ATOM     39  H   UNK A  3       20.459 -30.226  15.155  0.00  0.00    +0.156 HD
ATOM     40  C   UNK A  3       19.263 -28.692  14.564  0.00  0.00    +0.301 C 
ATOM     41  O   UNK A  3       19.088 -27.528  14.181  0.00  0.00    -0.253 OA
ATOM     42  N   UNK A  3       18.211 -29.541  14.699  0.00  0.00    -0.313 N 
ATOM     43  H   UNK A  3       17.297 -29.119  14.571  0.00  0.00    +0.146 HD
ATOM     44  H   UNK A  3       18.250 -30.334  15.319  0.00  0.00    +0.146 HD
ENDBRANCH  23  38
BRANCH   7  45
ATOM     45  N   UNK A  3       26.468 -28.951   9.238  0.00  0.00    -0.303 N 
ATOM     46  H   UNK A  1       26.365 -28.049   9.688  0.00  0.00    +0.149 HD
ATOM     47  C   UNK A  0       26.081 -29.107   7.932  0.00  0.00    +0.215 C 
ATOM     48  O   UNK A  0       25.885 -30.222   7.448  0.00  0.00    -0.276 OA
BRANCH  47  49
ATOM     49  C   UNK A  0       25.891 -27.841   7.106  0.00  0.00    +0.116 C 
BRANCH  49  50
ATOM     50  C   UNK A  0       24.465 -27.546   6.610  0.00  0.00    +0.088 C 
BRANCH  50  51
ATOM     51  N   UNK A  0       24.209 -28.361   5.403  0.00  0.00    -0.325 NA
ATOM     52  H   UNK A  0       23.360 -28.907   5.552  0.00  0.00    +0.119 HD
ATOM     53  H   UNK A  0       24.029 -27.755   4.603  0.00  0.00    +0.119 HD
ENDBRANCH  50  51
BRANCH  50  54
ATOM     54  C   UNK A  0       24.178 -26.040   6.331  0.00  0.00    +0.133 C 
BRANCH  54  55
ATOM     55  O   UNK A  0       23.482 -25.931   5.081  0.00  0.00    -0.390 OA
ATOM     56  H   UNK A  0       22.689 -26.494   5.100  0.00  0.00    +0.210 HD
ENDBRANCH  54  55
BRANCH  54  57
ATOM     57  C   UNK A  0       25.438 -25.157   6.336  0.00  0.00    +0.048 C 
BRANCH  57  58
ATOM     58  C   UNK A  0       25.151 -23.668   6.533  0.00  0.00    +0.080 C 
BRANCH  58  59
ATOM     59  N   UNK A  0       23.901 -23.251   5.913  0.00  0.00    -0.330 NA
ATOM     60  H   UNK A  0       23.178 -23.947   6.095  0.00  0.00    +0.118 HD
ATOM     61  H   UNK A  0       23.573 -22.378   6.327  0.00  0.00    +0.118 HD
ENDBRANCH  58  59
ENDBRANCH  57  58
ENDBRANCH  54  57
ENDBRANCH  50  54
ENDBRANCH  49  50
ENDBRANCH  47  49
ENDBRANCH   7  45
BRANCH  12  62
ATOM     62  CB  SER A  2       24.282 -33.759  10.910  0.00  0.00    +0.187 C 
BRANCH  62  63
ATOM     63  OG  SER A  2       25.616 -33.819  11.421  0.00  0.00    -0.393 OA
ATOM     64  H   SER A  2       26.157 -34.284  10.758  0.00  0.00    +0.209 HD
ENDBRANCH  62  63
ENDBRANCH  12  62
BRANCH  17  65
ATOM     65  C   UNK A  3       19.726 -31.095  10.645  0.00  0.00    +0.187 C 
BRANCH  65  66
ATOM     66  O   UNK A  3       19.092 -30.452  11.745  0.00  0.00    -0.393 OA
ATOM     67  H   UNK A  3       19.751 -29.885  12.181  0.00  0.00    +0.209 HD
ENDBRANCH  65  66
ENDBRANCH  17  65
TORSDOF 15
ENDMDL
MODEL 3
REMARK VINA RESULT:      -5.5      3.144      7.672
REMARK  Name = *****
REMARK                            x       y       z     vdW  Elec       q    Type
REMARK                         _______ _______ _______ _____ _____    ______ ____
ROOT
ATOM      1  C   UNK A  3       25.363 -31.554   9.396  0.00  0.00    +0.194 C 
ATOM      2  C   UNK A  3       25.701 -30.063   9.642  0.00  0.00    +0.237 C 
ATOM      3  O   UNK A  3       26.381 -29.380   8.882  0.00  0.00    -0.274 OA
ATOM      4  N   UNK A  3       25.291 -29.578  10.871  0.00  0.00    -0.311 N 
ATOM      5  H   UNK A  3       24.470 -30.026  11.272  0.00  0.00    +0.149 HD
ATOM      6  C   UNK A  3       25.517 -28.177  11.227  0.00  0.00    +0.136 C 
ATOM      7  C   UNK A  3       25.138 -27.846  12.684  0.00  0.00    +0.176 C 
ATOM      8  C   UNK A  1       23.607 -27.959  12.808  0.00  0.00    +0.235 C 
ATOM      9  O   UNK A  1       22.964 -28.827  12.213  0.00  0.00    -0.274 OA
ATOM     10  N   SER A  2       23.024 -27.080  13.692  0.00  0.00    -0.300 N 
ATOM     11  H   SER A  2       23.618 -26.699  14.426  0.00  0.00    +0.150 HD
ATOM     12  CA  SER A  2       21.570 -27.085  13.939  0.00  0.00    +0.184 C 
ATOM     13  C   SER A  2       21.244 -28.458  14.572  0.00  0.00    +0.236 C 
ATOM     14  O   SER A  2       21.928 -28.896  15.500  0.00  0.00    -0.274 OA
ATOM     15  N   UNK A  3       20.260 -29.220  13.980  0.00  0.00    -0.300 N 
ATOM     16  H   UNK A  3       19.722 -28.854  13.205  0.00  0.00    +0.150 HD
ATOM     17  C   UNK A  3       20.409 -30.679  13.967  0.00  0.00    +0.185 C 
ATOM     18  C   UNK A  3       20.580 -31.072  12.487  0.00  0.00    +0.240 C 
ATOM     19  O   UNK A  3       19.827 -30.623  11.622  0.00  0.00    -0.273 OA
ATOM     20  N   UNK A  3       21.628 -31.941  12.248  0.00  0.00    -0.279 N 
ATOM     21  H   UNK A  3       22.417 -31.842  12.886  0.00  0.00    +0.155 HD
ATOM     22  C   UNK A  3       21.988 -32.437  11.001  0.00  0.00    +0.110 C 
ATOM     23  C   UNK A  3       21.175 -33.034  10.111  0.00  0.00    +0.104 C 
ATOM     24  C   UNK A  3       23.472 -32.459  10.751  0.00  0.00    +0.260 C 
ATOM     25  O   UNK A  3       24.219 -32.920  11.608  0.00  0.00    -0.269 OA
ATOM     26  N   UNK A  3       23.911 -31.758   9.654  0.00  0.00    -0.296 N 
ATOM     27  H   UNK A  3       23.246 -31.204   9.124  0.00  0.00    +0.150 HD
ENDROOT
BRANCH   1  33
ATOM     28  N   UNK A  3       23.514 -30.026   6.046  0.00  0.00    -0.134 NA
ATOM     29  H   UNK A  3       22.564 -30.214   5.723  0.00  0.00    +0.306 HD
ATOM     30  C   UNK A  3       24.028 -31.112   6.502  0.00  0.00    +0.362 C 
ATOM     31  N   UNK A  3       25.294 -31.106   6.969  0.00  0.00    -0.234 N 
ATOM     32  H   UNK A  3       25.652 -30.160   7.039  0.00  0.00    +0.245 HD
ATOM     33  C   UNK A  3       25.772 -32.049   7.979  0.00  0.00    +0.168 C 
ATOM     34  C   UNK A  3       25.268 -33.437   7.560  0.00  0.00    +0.075 C 
ATOM     35  C   UNK A  3       23.770 -33.436   7.310  0.00  0.00    +0.188 C 
ATOM     36  N   UNK A  3       23.366 -32.287   6.535  0.00  0.00    -0.238 N 
ATOM     37  H   UNK A  3       22.381 -32.258   6.305  0.00  0.00    +0.244 HD
ENDBRANCH   1  33
BRANCH  23  38
ATOM     38  N   UNK A  3       19.848 -33.329  10.348  0.00  0.00    -0.274 N 
ATOM     39  H   UNK A  3       19.639 -34.088  10.982  0.00  0.00    +0.156 HD
ATOM     40  C   UNK A  3       18.790 -32.720   9.740  0.00  0.00    +0.301 C 
ATOM     41  O   UNK A  3       18.862 -31.775   8.943  0.00  0.00    -0.253 OA
ATOM     42  N   UNK A  3       17.588 -33.274  10.050  0.00  0.00    -0.313 N 
ATOM     43  H   UNK A  3       16.780 -32.791   9.671  0.00  0.00    +0.146 HD
ATOM     44  H   UNK A  3       17.445 -33.769  10.915  0.00  0.00    +0.146 HD
ENDBRANCH  23  38
BRANCH   7  45
ATOM     45  N   UNK A  3       25.824 -28.740  13.626  0.00  0.00    -0.303 N 
ATOM     46  H   UNK A  1       25.484 -29.691  13.694  0.00  0.00    +0.149 HD
ATOM     47  C   UNK A  0       26.734 -28.274  14.540  0.00  0.00    +0.215 C 
ATOM     48  O   UNK A  0       26.929 -27.069  14.698  0.00  0.00    -0.276 OA
BRANCH  47  49
ATOM     49  C   UNK A  0       27.486 -29.313  15.363  0.00  0.00    +0.116 C 
BRANCH  49  50
ATOM     50  C   UNK A  0       28.008 -30.548  14.609  0.00  0.00    +0.088 C 
BRANCH  50  51
ATOM     51  N   UNK A  0       28.566 -30.107  13.312  0.00  0.00    -0.325 NA
ATOM     52  H   UNK A  0       28.178 -29.190  13.087  0.00  0.00    +0.119 HD
ATOM     53  H   UNK A  0       29.575 -29.986  13.388  0.00  0.00    +0.119 HD
ENDBRANCH  50  51
BRANCH  50  54
ATOM     54  C   UNK A  0       26.948 -31.671  14.400  0.00  0.00    +0.133 C 
BRANCH  54  55
ATOM     55  O   UNK A  0       26.374 -31.521  13.093  0.00  0.00    -0.390 OA
ATOM     56  H   UNK A  0       26.268 -32.396  12.681  0.00  0.00    +0.210 HD
ENDBRANCH  54  55
BRANCH  54  57
ATOM     57  C   UNK A  0       25.854 -31.701  15.480  0.00  0.00    +0.048 C 
BRANCH  57  58
ATOM     58  C   UNK A  0       24.496 -32.191  14.975  0.00  0.00    +0.080 C 
BRANCH  58  59
ATOM     59  N   UNK A  0       23.796 -31.187  14.185  0.00  0.00    -0.330 NA
ATOM     60  H   UNK A  0       23.660 -31.533  13.234  0.00  0.00    +0.118 HD
ATOM     61  H   UNK A  0       22.865 -31.019  14.568  0.00  0.00    +0.118 HD
ENDBRANCH  58  59
ENDBRANCH  57  58
ENDBRANCH  54  57
ENDBRANCH  50  54
ENDBRANCH  49  50
ENDBRANCH  47  49
ENDBRANCH   7  45
BRANCH  12  62
ATOM     62  CB  SER A  2       20.757 -26.703  12.692  0.00  0.00    +0.187 C 
BRANCH  62  63
ATOM     63  OG  SER A  2       19.355 -26.757  12.968  0.00  0.00    -0.393 OA
ATOM     64  H   SER A  2       19.253 -27.120  13.865  0.00  0.00    +0.209 HD
ENDBRANCH  62  63
ENDBRANCH  12  62
BRANCH  17  65
ATOM     65  C   UNK A  3       19.181 -31.405  14.518  0.00  0.00    +0.187 C 
BRANCH  65  66
ATOM     66  O   UNK A  3       18.468 -32.054  13.471  0.00  0.00    -0.393 OA
ATOM     67  H   UNK A  3       18.874 -31.795  12.627  0.00  0.00    +0.209 HD
ENDBRANCH  65  66
ENDBRANCH  17  65
TORSDOF 15
ENDMDL
MODEL 4
REMARK VINA RESULT:      -5.3      2.921      5.410
REMARK  Name = *****
REMARK                            x       y       z     vdW  Elec       q    Type
REMARK                         _______ _______ _______ _____ _____    ______ ____
ROOT
ATOM      1  C   UNK A  3       24.895 -27.559  14.597  0.00  0.00    +0.194 C 
ATOM      2  C   UNK A  3       25.491 -28.983  14.711  0.00  0.00    +0.237 C 
ATOM      3  O   UNK A  3       26.539 -29.244  15.295  0.00  0.00    -0.274 OA
ATOM      4  N   UNK A  3       24.819 -29.946  13.979  0.00  0.00    -0.311 N 
ATOM      5  H   UNK A  3       23.826 -29.778  13.834  0.00  0.00    +0.149 HD
ATOM      6  C   UNK A  3       25.253 -31.342  14.017  0.00  0.00    +0.136 C 
ATOM      7  C   UNK A  3       24.491 -32.248  13.028  0.00  0.00    +0.176 C 
ATOM      8  C   UNK A  1       23.035 -32.357  13.518  0.00  0.00    +0.235 C 
ATOM      9  O   UNK A  1       22.440 -31.402  14.022  0.00  0.00    -0.274 OA
ATOM     10  N   SER A  2       22.424 -33.566  13.274  0.00  0.00    -0.300 N 
ATOM     11  H   SER A  2       22.804 -34.134  12.520  0.00  0.00    +0.150 HD
ATOM     12  CA  SER A  2       21.022 -33.812  13.660  0.00  0.00    +0.184 C 
ATOM     13  C   SER A  2       20.165 -32.833  12.825  0.00  0.00    +0.236 C 
ATOM     14  O   SER A  2       20.355 -32.715  11.612  0.00  0.00    -0.274 OA
ATOM     15  N   UNK A  3       19.288 -32.013  13.500  0.00  0.00    -0.300 N 
ATOM     16  H   UNK A  3       19.158 -32.108  14.498  0.00  0.00    +0.150 HD
ATOM     17  C   UNK A  3       19.060 -30.655  12.995  0.00  0.00    +0.185 C 
ATOM     18  C   UNK A  3       19.626 -29.706  14.069  0.00  0.00    +0.240 C 
ATOM     19  O   UNK A  3       19.354 -29.865  15.260  0.00  0.00    -0.273 OA
ATOM     20  N   UNK A  3       20.439 -28.704  13.572  0.00  0.00    -0.279 N 
ATOM     21  H   UNK A  3       20.958 -28.956  12.731  0.00  0.00    +0.155 HD
ATOM     22  C   UNK A  3       21.068 -27.731  14.337  0.00  0.00    +0.110 C 
ATOM     23  C   UNK A  3       20.489 -26.928  15.248  0.00  0.00    +0.104 C 
ATOM     24  C   UNK A  3       22.491 -27.454  13.933  0.00  0.00    +0.260 C 
ATOM     25  O   UNK A  3       22.757 -27.282  12.748  0.00  0.00    -0.269 OA
ATOM     26  N   UNK A  3       23.442 -27.627  14.911  0.00  0.00    -0.296 N 
ATOM     27  H   UNK A  3       23.161 -28.002  15.811  0.00  0.00    +0.150 HD
ENDROOT
BRANCH   1  33
ATOM     28  N   UNK A  3       24.854 -23.565  13.586  0.00  0.00    -0.134 NA
ATOM     29  H   UNK A  3       25.360 -23.114  12.823  0.00  0.00    +0.306 HD
ATOM     30  C   UNK A  3       25.607 -24.457  14.123  0.00  0.00    +0.362 C 
ATOM     31  N   UNK A  3       25.149 -25.171  15.173  0.00  0.00    -0.234 N 
ATOM     32  H   UNK A  3       24.160 -25.006  15.323  0.00  0.00    +0.245 HD
ATOM     33  C   UNK A  3       25.629 -26.515  15.488  0.00  0.00    +0.168 C 
ATOM     34  C   UNK A  3       27.161 -26.473  15.382  0.00  0.00    +0.075 C 
ATOM     35  C   UNK A  3       27.613 -25.902  14.049  0.00  0.00    +0.188 C 
ATOM     36  N   UNK A  3       26.859 -24.722  13.698  0.00  0.00    -0.238 N 
ATOM     37  H   UNK A  3       27.147 -24.277  12.836  0.00  0.00    +0.244 HD
ENDBRANCH   1  33
BRANCH  23  38
ATOM     38  N   UNK A  3       19.132 -26.892  15.500  0.00  0.00    -0.274 N 
ATOM     39  H   UNK A  3       18.794 -27.352  16.334  0.00  0.00    +0.156 HD
ATOM     40  C   UNK A  3       18.198 -26.340  14.675  0.00  0.00    +0.301 C 
ATOM     41  O   UNK A  3       18.433 -25.735  13.620  0.00  0.00    -0.253 OA
ATOM     42  N   UNK A  3       16.919 -26.542  15.085  0.00  0.00    -0.313 N 
ATOM     43  H   UNK A  3       16.209 -26.075  14.530  0.00  0.00    +0.146 HD
ATOM     44  H   UNK A  3       16.695 -26.693  16.056  0.00  0.00    +0.146 HD
ENDBRANCH  23  38
BRANCH   7  45
ATOM     45  N   UNK A  3       24.564 -31.718  11.661  0.00  0.00    -0.303 N 
ATOM     46  H   UNK A  1       24.132 -30.818  11.488  0.00  0.00    +0.149 HD
ATOM     47  C   UNK A  0       24.991 -32.481  10.606  0.00  0.00    +0.215 C 
ATOM     48  O   UNK A  0       25.218 -33.685  10.732  0.00  0.00    -0.276 OA
BRANCH  47  49
ATOM     49  C   UNK A  0       25.162 -31.780   9.264  0.00  0.00    +0.116 C 
BRANCH  49  50
ATOM     50  C   UNK A  0       24.925 -30.260   9.242  0.00  0.00    +0.088 C 
BRANCH  50  51
ATOM     51  N   UNK A  0       23.550 -30.005   8.761  0.00  0.00    -0.325 NA
ATOM     52  H   UNK A  0       22.931 -30.717   9.151  0.00  0.00    +0.119 HD
ATOM     53  H   UNK A  0       23.217 -29.107   9.109  0.00  0.00    +0.119 HD
ENDBRANCH  50  51
BRANCH  50  54
ATOM     54  C   UNK A  0       25.962 -29.458   8.401  0.00  0.00    +0.133 C 
BRANCH  54  55
ATOM     55  O   UNK A  0       27.024 -29.033   9.267  0.00  0.00    -0.390 OA
ATOM     56  H   UNK A  0       27.063 -29.617  10.044  0.00  0.00    +0.210 HD
ENDBRANCH  54  55
BRANCH  54  57
ATOM     57  C   UNK A  0       25.358 -28.261   7.646  0.00  0.00    +0.048 C 
BRANCH  57  58
ATOM     58  C   UNK A  0       25.162 -28.505   6.149  0.00  0.00    +0.080 C 
BRANCH  58  59
ATOM     59  N   UNK A  0       25.405 -29.890   5.770  0.00  0.00    -0.330 NA
ATOM     60  H   UNK A  0       24.531 -30.415   5.811  0.00  0.00    +0.118 HD
ATOM     61  H   UNK A  0       25.730 -29.942   4.804  0.00  0.00    +0.118 HD
ENDBRANCH  58  59
ENDBRANCH  57  58
ENDBRANCH  54  57
ENDBRANCH  50  54
ENDBRANCH  49  50
ENDBRANCH  47  49
ENDBRANCH   7  45
BRANCH  12  62
ATOM     62  CB  SER A  2       20.811 -33.770  15.182  0.00  0.00    +0.187 C 
BRANCH  62  63
ATOM     63  OG  SER A  2       19.418 -33.825  15.500  0.00  0.00    -0.393 OA
ATOM     64  H   SER A  2       18.955 -34.143  14.705  0.00  0.00    +0.209 HD
ENDBRANCH  62  63
ENDBRANCH  12  62
BRANCH  17  65
ATOM     65  C   UNK A  3       17.578 -30.334  12.802  0.00  0.00    +0.187 C 
BRANCH  65  66
ATOM     66  O   UNK A  3       17.177 -29.270  13.660  0.00  0.00    -0.393 OA
ATOM     67  H   UNK A  3       17.764 -28.513  13.492  0.00  0.00    +0.209 HD
ENDBRANCH  65  66
ENDBRANCH  17  65
TORSDOF 15
ENDMDL
MODEL 5
REMARK VINA RESULT:      -5.2      3.124      7.825
REMARK  Name = *****
REMARK                            x       y       z     vdW  Elec       q    Type
REMARK                         _______ _______ _______ _____ _____    ______ ____
ROOT
ATOM      1  C   UNK A  3       20.380 -32.361  12.381  0.00  0.00    +0.194 C 
ATOM      2  C   UNK A  3       20.935 -32.174  13.814  0.00  0.00    +0.237 C 
ATOM      3  O   UNK A  3       20.575 -32.839  14.781  0.00  0.00    -0.274 OA
ATOM      4  N   UNK A  3       21.783 -31.092  13.964  0.00  0.00    -0.311 N 
ATOM      5  H   UNK A  3       22.309 -30.824  13.135  0.00  0.00    +0.149 HD
ATOM      6  C   UNK A  3       22.406 -30.812  15.257  0.00  0.00    +0.136 C 
ATOM      7  C   UNK A  3       23.197 -29.489  15.284  0.00  0.00    +0.176 C 
ATOM      8  C   UNK A  1       24.427 -29.658  14.373  0.00  0.00    +0.235 C 
ATOM      9  O   UNK A  1       24.378 -30.295  13.319  0.00  0.00    -0.274 OA
ATOM     10  N   SER A  2       25.553 -28.978  14.777  0.00  0.00    -0.300 N 
ATOM     11  H   SER A  2       25.416 -28.175  15.388  0.00  0.00    +0.150 HD
ATOM     12  CA  SER A  2       26.802 -29.021  13.993  0.00  0.00    +0.184 C 
ATOM     13  C   SER A  2       26.482 -28.356  12.635  0.00  0.00    +0.236 C 
ATOM     14  O   SER A  2       25.881 -27.279  12.591  0.00  0.00    -0.274 OA
ATOM     15  N   UNK A  3       26.770 -29.065  11.489  0.00  0.00    -0.300 N 
ATOM     16  H   UNK A  3       27.246 -29.957  11.542  0.00  0.00    +0.150 HD
ATOM     17  C   UNK A  3       25.880 -28.931  10.332  0.00  0.00    +0.185 C 
ATOM     18  C   UNK A  3       25.224 -30.313  10.144  0.00  0.00    +0.240 C 
ATOM     19  O   UNK A  3       25.901 -31.341  10.156  0.00  0.00    -0.273 OA
ATOM     20  N   UNK A  3       23.853 -30.272   9.971  0.00  0.00    -0.279 N 
ATOM     21  H   UNK A  3       23.386 -29.502  10.450  0.00  0.00    +0.155 HD
ATOM     22  C   UNK A  3       23.036 -31.380   9.786  0.00  0.00    +0.110 C 
ATOM     23  C   UNK A  3       23.208 -32.362   8.882  0.00  0.00    +0.104 C 
ATOM     24  C   UNK A  3       21.748 -31.334  10.563  0.00  0.00    +0.260 C 
ATOM     25  O   UNK A  3       21.068 -30.313  10.537  0.00  0.00    -0.269 OA
ATOM     26  N   UNK A  3       21.525 -32.376  11.430  0.00  0.00    -0.296 N 
ATOM     27  H   UNK A  3       22.254 -33.069  11.565  0.00  0.00    +0.150 HD
ENDROOT
BRANCH   1  33
ATOM     28  N   UNK A  3       18.187 -32.961   8.945  0.00  0.00    -0.134 NA
ATOM     29  H   UNK A  3       17.347 -32.461   8.652  0.00  0.00    +0.306 HD
ATOM     30  C   UNK A  3       18.139 -33.158  10.214  0.00  0.00    +0.362 C 
ATOM     31  N   UNK A  3       19.143 -33.824  10.823  0.00  0.00    -0.234 N 
ATOM     32  H   UNK A  3       19.923 -33.966  10.190  0.00  0.00    +0.245 HD
ATOM     33  C   UNK A  3       19.488 -33.626  12.230  0.00  0.00    +0.168 C 
ATOM     34  C   UNK A  3       18.167 -33.636  13.013  0.00  0.00    +0.075 C 
ATOM     35  C   UNK A  3       17.165 -32.655  12.431  0.00  0.00    +0.188 C 
ATOM     36  N   UNK A  3       17.119 -32.739  10.991  0.00  0.00    -0.238 N 
ATOM     37  H   UNK A  3       16.437 -32.134  10.553  0.00  0.00    +0.244 HD
ENDBRANCH   1  33
BRANCH  23  38
ATOM     38  N   UNK A  3       24.198 -32.366   7.920  0.00  0.00    -0.274 N 
ATOM     39  H   UNK A  3       24.922 -33.068   7.990  0.00  0.00    +0.156 HD
ATOM     40  C   UNK A  3       24.317 -31.451   6.915  0.00  0.00    +0.301 C 
ATOM     41  O   UNK A  3       23.523 -30.531   6.680  0.00  0.00    -0.253 OA
ATOM     42  N   UNK A  3       25.446 -31.598   6.174  0.00  0.00    -0.313 N 
ATOM     43  H   UNK A  3       25.519 -30.978   5.373  0.00  0.00    +0.146 HD
ATOM     44  H   UNK A  3       25.908 -32.489   6.090  0.00  0.00    +0.146 HD
ENDBRANCH  23  38
BRANCH   7  45
ATOM     45  N   UNK A  3       22.358 -28.362  14.856  0.00  0.00    -0.303 N 
ATOM     46  H   UNK A  1       21.663 -28.025  15.513  0.00  0.00    +0.149 HD
ATOM     47  C   UNK A  0       22.341 -27.917  13.560  0.00  0.00    +0.215 C 
ATOM     48  O   UNK A  0       22.936 -28.518  12.665  0.00  0.00    -0.276 OA
BRANCH  47  49
ATOM     49  C   UNK A  0       21.543 -26.653  13.269  0.00  0.00    +0.116 C 
BRANCH  49  50
ATOM     50  C   UNK A  0       20.011 -26.793  13.237  0.00  0.00    +0.088 C 
BRANCH  50  51
ATOM     51  N   UNK A  0       19.480 -25.911  12.176  0.00  0.00    -0.325 NA
ATOM     52  H   UNK A  0       20.242 -25.333  11.821  0.00  0.00    +0.119 HD
ATOM     53  H   UNK A  0       19.147 -26.468  11.390  0.00  0.00    +0.119 HD
ENDBRANCH  50  51
BRANCH  50  54
ATOM     54  C   UNK A  0       19.309 -26.503  14.598  0.00  0.00    +0.133 C 
BRANCH  54  55
ATOM     55  O   UNK A  0       20.274 -25.942  15.500  0.00  0.00    -0.390 OA
ATOM     56  H   UNK A  0       21.133 -25.863  15.050  0.00  0.00    +0.210 HD
ENDBRANCH  54  55
BRANCH  54  57
ATOM     57  C   UNK A  0       18.627 -27.733  15.220  0.00  0.00    +0.048 C 
BRANCH  57  58
ATOM     58  C   UNK A  0       18.749 -29.003  14.377  0.00  0.00    +0.080 C 
BRANCH  58  59
ATOM     59  N   UNK A  0       17.496 -29.371  13.733  0.00  0.00    -0.330 NA
ATOM     60  H   UNK A  0       17.198 -30.291  14.061  0.00  0.00    +0.118 HD
ATOM     61  H   UNK A  0       16.757 -28.718  13.994  0.00  0.00    +0.118 HD
ENDBRANCH  58  59
ENDBRANCH  57  58
ENDBRANCH  54  57
ENDBRANCH  50  54
ENDBRANCH  49  50
ENDBRANCH  47  49
ENDBRANCH   7  45
BRANCH  12  62
ATOM     62  CB  SER A  2       27.414 -30.429  13.932  0.00  0.00    +0.187 C 
BRANCH  62  63
ATOM     63  OG  SER A  2       26.723 -31.238  12.978  0.00  0.00    -0.393 OA
ATOM     64  H   SER A  2       26.540 -30.676  12.203  0.00  0.00    +0.209 HD
ENDBRANCH  62  63
ENDBRANCH  12  62
BRANCH  17  65
ATOM     65  C   UNK A  3       26.627 -28.574   9.046  0.00  0.00    +0.187 C 
BRANCH  65  66
ATOM     66  O   UNK A  3       25.888 -28.991   7.903  0.00  0.00    -0.393 OA
ATOM     67  H   UNK A  3       25.644 -28.197   7.398  0.00  0.00    +0.209 HD
ENDBRANCH  65  66
ENDBRANCH  17  65
TORSDOF 15
ENDMDL
MODEL 6
REMARK VINA RESULT:      -5.0      1.543      2.172
REMARK  Name = *****
REMARK                            x       y       z     vdW  Elec       q    Type
REMARK                         _______ _______ _______ _____ _____    ______ ____
ROOT
ATOM      1  C   UNK A  3       25.791 -28.076  12.864  0.00  0.00    +0.194 C 
ATOM      2  C   UNK A  3       26.843 -28.248  11.742  0.00  0.00    +0.237 C 
ATOM      3  O   UNK A  3       28.017 -27.903  11.843  0.00  0.00    -0.274 OA
ATOM      4  N   UNK A  3       26.331 -28.701  10.540  0.00  0.00    -0.311 N 
ATOM      5  H   UNK A  3       25.500 -29.286  10.606  0.00  0.00    +0.149 HD
ATOM      6  C   UNK A  3       27.215 -28.939   9.399  0.00  0.00    +0.136 C 
ATOM      7  C   UNK A  3       26.461 -29.294   8.102  0.00  0.00    +0.176 C 
ATOM      8  C   UNK A  1       25.819 -30.681   8.296  0.00  0.00    +0.235 C 
ATOM      9  O   UNK A  1       25.337 -31.033   9.375  0.00  0.00    -0.274 OA
ATOM     10  N   SER A  2       25.747 -31.457   7.162  0.00  0.00    -0.300 N 
ATOM     11  H   SER A  2       25.774 -30.974   6.267  0.00  0.00    +0.150 HD
ATOM     12  CA  SER A  2       25.135 -32.799   7.185  0.00  0.00    +0.184 C 
ATOM     13  C   SER A  2       23.644 -32.587   7.537  0.00  0.00    +0.236 C 
ATOM     14  O   SER A  2       22.981 -31.725   6.956  0.00  0.00    -0.274 OA
ATOM     15  N   UNK A  3       23.130 -33.295   8.602  0.00  0.00    -0.300 N 
ATOM     16  H   UNK A  3       23.693 -33.984   9.082  0.00  0.00    +0.150 HD
ATOM     17  C   UNK A  3       22.114 -32.660   9.448  0.00  0.00    +0.185 C 
ATOM     18  C   UNK A  3       22.771 -32.480  10.830  0.00  0.00    +0.240 C 
ATOM     19  O   UNK A  3       23.381 -33.406  11.365  0.00  0.00    -0.273 OA
ATOM     20  N   UNK A  3       22.609 -31.221  11.377  0.00  0.00    -0.279 N 
ATOM     21  H   UNK A  3       22.548 -30.466  10.694  0.00  0.00    +0.155 HD
ATOM     22  C   UNK A  3       23.109 -30.811  12.606  0.00  0.00    +0.110 C 
ATOM     23  C   UNK A  3       22.949 -31.439  13.786  0.00  0.00    +0.104 C 
ATOM     24  C   UNK A  3       23.713 -29.434  12.599  0.00  0.00    +0.260 C 
ATOM     25  O   UNK A  3       23.097 -28.510  12.078  0.00  0.00    -0.269 OA
ATOM     26  N   UNK A  3       25.026 -29.346  12.994  0.00  0.00    -0.296 N 
ATOM     27  H   UNK A  3       25.540 -30.200  13.188  0.00  0.00    +0.150 HD
ENDROOT
BRANCH   1  33
ATOM     28  N   UNK A  3       29.651 -29.142  13.834  0.00  0.00    -0.134 NA
ATOM     29  H   UNK A  3       29.989 -30.067  14.100  0.00  0.00    +0.306 HD
ATOM     30  C   UNK A  3       28.499 -28.943  14.369  0.00  0.00    +0.362 C 
ATOM     31  N   UNK A  3       27.865 -27.769  14.169  0.00  0.00    -0.234 N 
ATOM     32  H   UNK A  3       28.337 -27.215  13.463  0.00  0.00    +0.245 HD
ATOM     33  C   UNK A  3       26.410 -27.634  14.221  0.00  0.00    +0.168 C 
ATOM     34  C   UNK A  3       25.942 -28.391  15.473  0.00  0.00    +0.075 C 
ATOM     35  C   UNK A  3       26.477 -29.811  15.500  0.00  0.00    +0.188 C 
ATOM     36  N   UNK A  3       27.876 -29.854  15.144  0.00  0.00    -0.238 N 
ATOM     37  H   UNK A  3       28.295 -30.774  15.185  0.00  0.00    +0.244 HD
ENDBRANCH   1  33
BRANCH  23  38
ATOM     38  N   UNK A  3       22.170 -32.564  13.967  0.00  0.00    -0.274 N 
ATOM     39  H   UNK A  3       22.624 -33.465  13.924  0.00  0.00    +0.156 HD
ATOM     40  C   UNK A  3       20.816 -32.560  14.135  0.00  0.00    +0.301 C 
ATOM     41  O   UNK A  3       20.103 -31.551  14.216  0.00  0.00    -0.253 OA
ATOM     42  N   UNK A  3       20.266 -33.801  14.167  0.00  0.00    -0.313 N 
ATOM     43  H   UNK A  3       19.271 -33.827  14.368  0.00  0.00    +0.146 HD
ATOM     44  H   UNK A  3       20.798 -34.605  14.458  0.00  0.00    +0.146 HD
ENDBRANCH  23  38
BRANCH   7  45
ATOM     45  N   UNK A  3       25.457 -28.274   7.777  0.00  0.00    -0.303 N 
ATOM     46  H   UNK A  1       24.872 -27.940   8.534  0.00  0.00    +0.149 HD
ATOM     47  C   UNK A  0       25.153 -27.936   6.484  0.00  0.00    +0.215 C 
ATOM     48  O   UNK A  0       25.619 -28.559   5.530  0.00  0.00    -0.276 OA
BRANCH  47  49
ATOM     49  C   UNK A  0       24.203 -26.764   6.275  0.00  0.00    +0.116 C 
BRANCH  49  50
ATOM     50  C   UNK A  0       24.831 -25.436   5.816  0.00  0.00    +0.088 C 
BRANCH  50  51
ATOM     51  N   UNK A  0       26.288 -25.496   6.062  0.00  0.00    -0.325 NA
ATOM     52  H   UNK A  0       26.743 -25.876   5.231  0.00  0.00    +0.119 HD
ATOM     53  H   UNK A  0       26.660 -24.557   6.194  0.00  0.00    +0.119 HD
ENDBRANCH  50  51
BRANCH  50  54
ATOM     54  C   UNK A  0       24.211 -24.168   6.476  0.00  0.00    +0.133 C 
BRANCH  54  55
ATOM     55  O   UNK A  0       22.785 -24.321   6.510  0.00  0.00    -0.390 OA
ATOM     56  H   UNK A  0       22.393 -23.606   7.041  0.00  0.00    +0.210 HD
ENDBRANCH  54  55
BRANCH  54  57
ATOM     57  C   UNK A  0       24.606 -22.852   5.784  0.00  0.00    +0.048 C 
BRANCH  57  58
ATOM     58  C   UNK A  0       23.733 -21.659   6.174  0.00  0.00    +0.080 C 
BRANCH  58  59
ATOM     59  N   UNK A  0       23.517 -21.568   7.612  0.00  0.00    -0.330 NA
ATOM     60  H   UNK A  0       23.314 -20.601   7.868  0.00  0.00    +0.118 HD
ATOM     61  H   UNK A  0       22.702 -22.117   7.884  0.00  0.00    +0.118 HD
ENDBRANCH  58  59
ENDBRANCH  57  58
ENDBRANCH  54  57
ENDBRANCH  50  54
ENDBRANCH  49  50
ENDBRANCH  47  49
ENDBRANCH   7  45
BRANCH  12  62
ATOM     62  CB  SER A  2       25.908 -33.788   8.071  0.00  0.00    +0.187 C 
BRANCH  62  63
ATOM     63  OG  SER A  2       27.193 -33.263   8.410  0.00  0.00    -0.393 OA
ATOM     64  H   SER A  2       27.262 -32.384   7.996  0.00  0.00    +0.209 HD
ENDBRANCH  62  63
ENDBRANCH  12  62
BRANCH  17  65
ATOM     65  C   UNK A  3       20.862 -33.520   9.618  0.00  0.00    +0.187 C 
BRANCH  65  66
ATOM     66  O   UNK A  3       20.158 -33.156  10.800  0.00  0.00    -0.393 OA
ATOM     67  H   UNK A  3       20.780 -33.202  11.546  0.00  0.00    +0.209 HD
ENDBRANCH  65  66
ENDBRANCH  17  65
TORSDOF 15
ENDMDL
MODEL 7
REMARK VINA RESULT:      -5.0      2.999      7.854
REMARK  Name = *****
REMARK                            x       y       z     vdW  Elec       q    Type
REMARK                         _______ _______ _______ _____ _____    ______ ____
ROOT
ATOM      1  C   UNK A  3       26.150 -31.041   8.487  0.00  0.00    +0.194 C 
ATOM      2  C   UNK A  3       26.453 -29.548   8.763  0.00  0.00    +0.237 C 
ATOM      3  O   UNK A  3       26.855 -28.761   7.911  0.00  0.00    -0.274 OA
ATOM      4  N   UNK A  3       26.368 -29.183  10.094  0.00  0.00    -0.311 N 
ATOM      5  H   UNK A  3       25.718 -29.724  10.661  0.00  0.00    +0.149 HD
ATOM      6  C   UNK A  3       26.599 -27.797  10.499  0.00  0.00    +0.136 C 
ATOM      7  C   UNK A  3       26.615 -27.598  12.028  0.00  0.00    +0.176 C 
ATOM      8  C   UNK A  1       25.187 -27.844  12.549  0.00  0.00    +0.235 C 
ATOM      9  O   UNK A  1       24.459 -28.719  12.074  0.00  0.00    -0.274 OA
ATOM     10  N   SER A  2       24.818 -27.079  13.631  0.00  0.00    -0.300 N 
ATOM     11  H   SER A  2       25.567 -26.701  14.209  0.00  0.00    +0.150 HD
ATOM     12  CA  SER A  2       23.490 -27.220  14.259  0.00  0.00    +0.184 C 
ATOM     13  C   SER A  2       23.435 -28.655  14.832  0.00  0.00    +0.236 C 
ATOM     14  O   SER A  2       24.372 -29.098  15.500  0.00  0.00    -0.274 OA
ATOM     15  N   UNK A  3       22.374 -29.453  14.462  0.00  0.00    -0.300 N 
ATOM     16  H   UNK A  3       21.622 -29.080  13.897  0.00  0.00    +0.150 HD
ATOM     17  C   UNK A  3       22.601 -30.890  14.281  0.00  0.00    +0.185 C 
ATOM     18  C   UNK A  3       22.382 -31.165  12.781  0.00  0.00    +0.240 C 
ATOM     19  O   UNK A  3       21.395 -30.722  12.194  0.00  0.00    -0.273 OA
ATOM     20  N   UNK A  3       23.374 -31.928  12.192  0.00  0.00    -0.279 N 
ATOM     21  H   UNK A  3       24.301 -31.808  12.601  0.00  0.00    +0.155 HD
ATOM     22  C   UNK A  3       23.407 -32.306  10.857  0.00  0.00    +0.110 C 
ATOM     23  C   UNK A  3       22.418 -32.905  10.169  0.00  0.00    +0.104 C 
ATOM     24  C   UNK A  3       24.763 -32.189  10.215  0.00  0.00    +0.260 C 
ATOM     25  O   UNK A  3       25.743 -32.644  10.795  0.00  0.00    -0.269 OA
ATOM     26  N   UNK A  3       24.840 -31.381   9.106  0.00  0.00    -0.296 N 
ATOM     27  H   UNK A  3       24.023 -30.849   8.826  0.00  0.00    +0.150 HD
ENDROOT
BRANCH   1  33
ATOM     28  N   UNK A  3       23.611 -29.160   5.843  0.00  0.00    -0.134 NA
ATOM     29  H   UNK A  3       22.604 -29.298   5.747  0.00  0.00    +0.306 HD
ATOM     30  C   UNK A  3       24.174 -30.295   6.060  0.00  0.00    +0.362 C 
ATOM     31  N   UNK A  3       25.515 -30.358   6.200  0.00  0.00    -0.234 N 
ATOM     32  H   UNK A  3       25.918 -29.430   6.266  0.00  0.00    +0.245 HD
ATOM     33  C   UNK A  3       26.183 -31.403   6.973  0.00  0.00    +0.168 C 
ATOM     34  C   UNK A  3       25.535 -32.734   6.568  0.00  0.00    +0.075 C 
ATOM     35  C   UNK A  3       24.023 -32.681   6.693  0.00  0.00    +0.188 C 
ATOM     36  N   UNK A  3       23.491 -31.455   6.148  0.00  0.00    -0.238 N 
ATOM     37  H   UNK A  3       22.482 -31.385   6.170  0.00  0.00    +0.244 HD
ENDBRANCH   1  33
BRANCH  23  38
ATOM     38  N   UNK A  3       21.227 -33.324  10.728  0.00  0.00    -0.274 N 
ATOM     39  H   UNK A  3       21.265 -34.044  11.435  0.00  0.00    +0.156 HD
ATOM     40  C   UNK A  3       19.990 -32.889  10.352  0.00  0.00    +0.301 C 
ATOM     41  O   UNK A  3       19.759 -32.012   9.509  0.00  0.00    -0.253 OA
ATOM     42  N   UNK A  3       18.970 -33.543  10.966  0.00  0.00    -0.313 N 
ATOM     43  H   UNK A  3       18.043 -33.186  10.762  0.00  0.00    +0.146 HD
ATOM     44  H   UNK A  3       19.091 -33.976  11.868  0.00  0.00    +0.146 HD
ENDBRANCH  23  38
BRANCH   7  45
ATOM     45  N   UNK A  3       27.586 -28.495  12.667  0.00  0.00    -0.303 N 
ATOM     46  H   UNK A  1       27.801 -29.362  12.191  0.00  0.00    +0.149 HD
ATOM     47  C   UNK A  0       28.025 -28.297  13.951  0.00  0.00    +0.215 C 
ATOM     48  O   UNK A  0       27.533 -27.429  14.673  0.00  0.00    -0.276 OA
BRANCH  47  49
ATOM     49  C   UNK A  0       29.139 -29.206  14.454  0.00  0.00    +0.116 C 
BRANCH  49  50
ATOM     50  C   UNK A  0       30.160 -28.581  15.420  0.00  0.00    +0.088 C 
BRANCH  50  51
ATOM     51  N   UNK A  0       30.291 -27.143  15.100  0.00  0.00    -0.325 NA
ATOM     52  H   UNK A  0       30.498 -26.635  15.961  0.00  0.00    +0.119 HD
ATOM     53  H   UNK A  0       31.082 -26.993  14.476  0.00  0.00    +0.119 HD
ENDBRANCH  50  51
BRANCH  50  54
ATOM     54  C   UNK A  0       31.555 -29.275  15.421  0.00  0.00    +0.133 C 
BRANCH  54  55
ATOM     55  O   UNK A  0       32.570 -28.263  15.499  0.00  0.00    -0.390 OA
ATOM     56  H   UNK A  0       33.108 -28.403  16.296  0.00  0.00    +0.210 HD
ENDBRANCH  54  55
BRANCH  54  57
ATOM     57  C   UNK A  0       31.791 -30.196  14.213  0.00  0.00    +0.048 C 
BRANCH  57  58
ATOM     58  C   UNK A  0       32.917 -29.731  13.287  0.00  0.00    +0.080 C 
BRANCH  58  59
ATOM     59  N   UNK A  0       32.459 -28.782  12.281  0.00  0.00    -0.330 NA
ATOM     60  H   UNK A  0       31.828 -28.105  12.711  0.00  0.00    +0.118 HD
ATOM     61  H   UNK A  0       33.247 -28.249  11.912  0.00  0.00    +0.118 HD
ENDBRANCH  58  59
ENDBRANCH  57  58
ENDBRANCH  54  57
ENDBRANCH  50  54
ENDBRANCH  49  50
ENDBRANCH  47  49
ENDBRANCH   7  45
BRANCH  12  62
ATOM     62  CB  SER A  2       22.345 -26.821  13.315  0.00  0.00    +0.187 C 
BRANCH  62  63
ATOM     63  OG  SER A  2       21.098 -26.806  14.015  0.00  0.00    -0.393 OA
ATOM     64  H   SER A  2       20.406 -26.592  13.364  0.00  0.00    +0.209 HD
ENDBRANCH  62  63
ENDBRANCH  12  62
BRANCH  17  65
ATOM     65  C   UNK A  3       21.618 -31.750  15.077  0.00  0.00    +0.187 C 
BRANCH  65  66
ATOM     66  O   UNK A  3       21.322 -32.954  14.377  0.00  0.00    -0.393 OA
ATOM     67  H   UNK A  3       21.474 -33.699  14.984  0.00  0.00    +0.209 HD
ENDBRANCH  65  66
ENDBRANCH  17  65
TORSDOF 15
ENDMDL
MODEL 8
REMARK VINA RESULT:      -4.8      3.053      7.715
REMARK  Name = *****
REMARK                            x       y       z     vdW  Elec       q    Type
REMARK                         _______ _______ _______ _____ _____    ______ ____
ROOT
ATOM      1  C   UNK A  3       25.708 -31.342   9.132  0.00  0.00    +0.194 C 
ATOM      2  C   UNK A  3       25.937 -29.841   9.439  0.00  0.00    +0.237 C 
ATOM      3  O   UNK A  3       26.525 -29.070   8.686  0.00  0.00    -0.274 OA
ATOM      4  N   UNK A  3       25.546 -29.449  10.706  0.00  0.00    -0.311 N 
ATOM      5  H   UNK A  3       24.783 -29.981  11.118  0.00  0.00    +0.149 HD
ATOM      6  C   UNK A  3       25.676 -28.053  11.122  0.00  0.00    +0.136 C 
ATOM      7  C   UNK A  3       25.337 -27.822  12.609  0.00  0.00    +0.176 C 
ATOM      8  C   UNK A  1       23.827 -28.065  12.790  0.00  0.00    +0.235 C 
ATOM      9  O   UNK A  1       23.230 -28.954  12.179  0.00  0.00    -0.274 OA
ATOM     10  N   SER A  2       23.217 -27.279  13.740  0.00  0.00    -0.300 N 
ATOM     11  H   SER A  2       23.811 -26.885  14.467  0.00  0.00    +0.150 HD
ATOM     12  CA  SER A  2       21.780 -27.415  14.046  0.00  0.00    +0.184 C 
ATOM     13  C   SER A  2       21.594 -28.838  14.622  0.00  0.00    +0.236 C 
ATOM     14  O   SER A  2       22.352 -29.262  15.498  0.00  0.00    -0.274 OA
ATOM     15  N   UNK A  3       20.649 -29.649  14.034  0.00  0.00    -0.300 N 
ATOM     16  H   UNK A  3       20.048 -29.293  13.302  0.00  0.00    +0.150 HD
ATOM     17  C   UNK A  3       20.912 -31.089  13.942  0.00  0.00    +0.185 C 
ATOM     18  C   UNK A  3       21.047 -31.397  12.439  0.00  0.00    +0.240 C 
ATOM     19  O   UNK A  3       20.223 -30.972  11.629  0.00  0.00    -0.273 OA
ATOM     20  N   UNK A  3       22.149 -32.166  12.113  0.00  0.00    -0.279 N 
ATOM     21  H   UNK A  3       22.956 -32.032  12.722  0.00  0.00    +0.155 HD
ATOM     22  C   UNK A  3       22.491 -32.572  10.829  0.00  0.00    +0.110 C 
ATOM     23  C   UNK A  3       21.689 -33.191   9.944  0.00  0.00    +0.104 C 
ATOM     24  C   UNK A  3       23.959 -32.461  10.517  0.00  0.00    +0.260 C 
ATOM     25  O   UNK A  3       24.778 -32.898  11.318  0.00  0.00    -0.269 OA
ATOM     26  N   UNK A  3       24.291 -31.676   9.439  0.00  0.00    -0.296 N 
ATOM     27  H   UNK A  3       23.560 -31.154   8.966  0.00  0.00    +0.150 HD
ENDROOT
BRANCH   1  33
ATOM     28  N   UNK A  3       23.585 -29.827   5.943  0.00  0.00    -0.134 NA
ATOM     29  H   UNK A  3       22.641 -30.080   5.651  0.00  0.00    +0.306 HD
ATOM     30  C   UNK A  3       24.208 -30.885   6.323  0.00  0.00    +0.362 C 
ATOM     31  N   UNK A  3       25.490 -30.792   6.735  0.00  0.00    -0.234 N 
ATOM     32  H   UNK A  3       25.771 -29.822   6.837  0.00  0.00    +0.245 HD
ATOM     33  C   UNK A  3       26.091 -31.735   7.676  0.00  0.00    +0.168 C 
ATOM     34  C   UNK A  3       25.685 -33.141   7.211  0.00  0.00    +0.075 C 
ATOM     35  C   UNK A  3       24.183 -33.256   7.025  0.00  0.00    +0.188 C 
ATOM     36  N   UNK A  3       23.649 -32.112   6.326  0.00  0.00    -0.238 N 
ATOM     37  H   UNK A  3       22.655 -32.156   6.139  0.00  0.00    +0.244 HD
ENDBRANCH   1  33
BRANCH  23  38
ATOM     38  N   UNK A  3       20.401 -33.605  10.221  0.00  0.00    -0.274 N 
ATOM     39  H   UNK A  3       20.281 -34.390  10.845  0.00  0.00    +0.156 HD
ATOM     40  C   UNK A  3       19.273 -33.078   9.664  0.00  0.00    +0.301 C 
ATOM     41  O   UNK A  3       19.234 -32.115   8.886  0.00  0.00    -0.253 OA
ATOM     42  N   UNK A  3       18.136 -33.740  10.003  0.00  0.00    -0.313 N 
ATOM     43  H   UNK A  3       17.276 -33.321   9.664  0.00  0.00    +0.146 HD
ATOM     44  H   UNK A  3       18.067 -34.262  10.862  0.00  0.00    +0.146 HD
ENDBRANCH  23  38
BRANCH   7  45
ATOM     45  N   UNK A  3       26.134 -28.699  13.475  0.00  0.00    -0.303 N 
ATOM     46  H   UNK A  1       26.087 -29.695  13.298  0.00  0.00    +0.149 HD
ATOM     47  C   UNK A  0       26.744 -28.240  14.614  0.00  0.00    +0.215 C 
ATOM     48  O   UNK A  0       26.552 -27.098  15.031  0.00  0.00    -0.276 OA
BRANCH  47  49
ATOM     49  C   UNK A  0       27.661 -29.207  15.351  0.00  0.00    +0.116 C 
BRANCH  49  50
ATOM     50  C   UNK A  0       28.509 -30.155  14.483  0.00  0.00    +0.088 C 
BRANCH  50  51
ATOM     51  N   UNK A  0       29.037 -31.234  15.345  0.00  0.00    -0.325 NA
ATOM     52  H   UNK A  0       28.259 -31.655  15.854  0.00  0.00    +0.119 HD
ATOM     53  H   UNK A  0       29.443 -31.973  14.772  0.00  0.00    +0.119 HD
ENDBRANCH  50  51
BRANCH  50  54
ATOM     54  C   UNK A  0       29.662 -29.456  13.704  0.00  0.00    +0.133 C 
BRANCH  54  55
ATOM     55  O   UNK A  0       29.486 -29.708  12.302  0.00  0.00    -0.390 OA
ATOM     56  H   UNK A  0       29.905 -30.553  12.068  0.00  0.00    +0.210 HD
ENDBRANCH  54  55
BRANCH  54  57
ATOM     57  C   UNK A  0       31.068 -29.878  14.164  0.00  0.00    +0.048 C 
BRANCH  57  58
ATOM     58  C   UNK A  0       32.086 -29.989  13.029  0.00  0.00    +0.080 C 
BRANCH  58  59
ATOM     59  N   UNK A  0       32.401 -28.700  12.430  0.00  0.00    -0.330 NA
ATOM     60  H   UNK A  0       31.547 -28.269  12.074  0.00  0.00    +0.118 HD
ATOM     61  H   UNK A  0       32.775 -28.062  13.134  0.00  0.00    +0.118 HD
ENDBRANCH  58  59
ENDBRANCH  57  58
ENDBRANCH  54  57
ENDBRANCH  50  54
ENDBRANCH  49  50
ENDBRANCH  47  49
ENDBRANCH   7  45
BRANCH  12  62
ATOM     62  CB  SER A  2       20.884 -27.043  12.855  0.00  0.00    +0.187 C 
BRANCH  62  63
ATOM     63  OG  SER A  2       19.515 -26.962  13.259  0.00  0.00    -0.393 OA
ATOM     64  H   SER A  2       19.284 -27.819  13.660  0.00  0.00    +0.209 HD
ENDBRANCH  62  63
ENDBRANCH  12  62
BRANCH  17  65
ATOM     65  C   UNK A  3       19.772 -31.938  14.507  0.00  0.00    +0.187 C 
BRANCH  65  66
ATOM     66  O   UNK A  3       18.537 -31.597  13.887  0.00  0.00    -0.393 OA
ATOM     67  H   UNK A  3       17.827 -31.736  14.536  0.00  0.00    +0.209 HD
ENDBRANCH  65  66
ENDBRANCH  17  65
TORSDOF 15
ENDMDL
MODEL 9
REMARK VINA RESULT:      -4.6      3.067      5.845
REMARK  Name = *****
REMARK                            x       y       z     vdW  Elec       q    Type
REMARK                         _______ _______ _______ _____ _____    ______ ____
ROOT
ATOM      1  C   UNK A  3       24.514 -28.133  14.117  0.00  0.00    +0.194 C 
ATOM      2  C   UNK A  3       24.927 -29.624  14.186  0.00  0.00    +0.237 C 
ATOM      3  O   UNK A  3       25.977 -30.023  14.681  0.00  0.00    -0.274 OA
ATOM      4  N   UNK A  3       24.077 -30.485  13.516  0.00  0.00    -0.311 N 
ATOM      5  H   UNK A  3       23.106 -30.189  13.454  0.00  0.00    +0.149 HD
ATOM      6  C   UNK A  3       24.327 -31.927  13.523  0.00  0.00    +0.136 C 
ATOM      7  C   UNK A  3       23.374 -32.719  12.605  0.00  0.00    +0.176 C 
ATOM      8  C   UNK A  1       21.962 -32.641  13.215  0.00  0.00    +0.235 C 
ATOM      9  O   UNK A  1       21.541 -31.620  13.764  0.00  0.00    -0.274 OA
ATOM     10  N   SER A  2       21.181 -33.759  13.029  0.00  0.00    -0.300 N 
ATOM     11  H   SER A  2       21.420 -34.366  12.247  0.00  0.00    +0.150 HD
ATOM     12  CA  SER A  2       19.796 -33.824  13.532  0.00  0.00    +0.184 C 
ATOM     13  C   SER A  2       19.007 -32.736  12.768  0.00  0.00    +0.236 C 
ATOM     14  O   SER A  2       19.108 -32.634  11.543  0.00  0.00    -0.274 OA
ATOM     15  N   UNK A  3       18.303 -31.813  13.511  0.00  0.00    -0.300 N 
ATOM     16  H   UNK A  3       18.247 -31.897  14.517  0.00  0.00    +0.150 HD
ATOM     17  C   UNK A  3       18.213 -30.433  13.022  0.00  0.00    +0.185 C 
ATOM     18  C   UNK A  3       18.985 -29.574  14.041  0.00  0.00    +0.240 C 
ATOM     19  O   UNK A  3       18.796 -29.705  15.251  0.00  0.00    -0.273 OA
ATOM     20  N   UNK A  3       19.877 -28.683  13.474  0.00  0.00    -0.279 N 
ATOM     21  H   UNK A  3       20.287 -28.994  12.593  0.00  0.00    +0.155 HD
ATOM     22  C   UNK A  3       20.689 -27.805  14.179  0.00  0.00    +0.110 C 
ATOM     23  C   UNK A  3       20.298 -26.940  15.133  0.00  0.00    +0.104 C 
ATOM     24  C   UNK A  3       22.098 -27.713  13.657  0.00  0.00    +0.260 C 
ATOM     25  O   UNK A  3       22.284 -27.568  12.453  0.00  0.00    -0.269 OA
ATOM     26  N   UNK A  3       23.096 -28.015  14.552  0.00  0.00    -0.296 N 
ATOM     27  H   UNK A  3       22.845 -28.356  15.473  0.00  0.00    +0.150 HD
ENDROOT
BRANCH   1  33
ATOM     28  N   UNK A  3       24.652 -24.095  13.314  0.00  0.00    -0.134 NA
ATOM     29  H   UNK A  3       25.079 -23.638  12.507  0.00  0.00    +0.306 HD
ATOM     30  C   UNK A  3       25.400 -25.069  13.692  0.00  0.00    +0.362 C 
ATOM     31  N   UNK A  3       25.040 -25.808  14.762  0.00  0.00    -0.234 N 
ATOM     32  H   UNK A  3       24.099 -25.581  15.063  0.00  0.00    +0.245 HD
ATOM     33  C   UNK A  3       25.450 -27.201  14.939  0.00  0.00    +0.168 C 
ATOM     34  C   UNK A  3       26.949 -27.264  14.612  0.00  0.00    +0.075 C 
ATOM     35  C   UNK A  3       27.251 -26.650  13.256  0.00  0.00    +0.188 C 
ATOM     36  N   UNK A  3       26.553 -25.400  13.075  0.00  0.00    -0.238 N 
ATOM     37  H   UNK A  3       26.751 -24.927  12.203  0.00  0.00    +0.244 HD
ENDBRANCH   1  33
BRANCH  23  38
ATOM     38  N   UNK A  3       18.983 -26.730  15.498  0.00  0.00    -0.274 N 
ATOM     39  H   UNK A  3       18.708 -26.980  16.437  0.00  0.00    +0.156 HD
ATOM     40  C   UNK A  3       18.004 -26.271  14.666  0.00  0.00    +0.301 C 
ATOM     41  O   UNK A  3       18.164 -25.915  13.492  0.00  0.00    -0.253 OA
ATOM     42  N   UNK A  3       16.767 -26.269  15.228  0.00  0.00    -0.313 N 
ATOM     43  H   UNK A  3       16.035 -25.860  14.657  0.00  0.00    +0.146 HD
ATOM     44  H   UNK A  3       16.642 -26.201  16.225  0.00  0.00    +0.146 HD
ENDBRANCH  23  38
BRANCH   7  45
ATOM     45  N   UNK A  3       23.400 -32.193  11.235  0.00  0.00    -0.303 N 
ATOM     46  H   UNK A  1       22.575 -31.705  10.908  0.00  0.00    +0.149 HD
ATOM     47  C   UNK A  0       24.390 -32.525  10.346  0.00  0.00    +0.215 C 
ATOM     48  O   UNK A  0       25.237 -33.377  10.614  0.00  0.00    -0.276 OA
BRANCH  47  49
ATOM     49  C   UNK A  0       24.390 -31.805   9.004  0.00  0.00    +0.116 C 
BRANCH  49  50
ATOM     50  C   UNK A  0       25.494 -32.199   8.006  0.00  0.00    +0.088 C 
BRANCH  50  51
ATOM     51  N   UNK A  0       26.673 -31.339   8.246  0.00  0.00    -0.325 NA
ATOM     52  H   UNK A  0       26.651 -31.018   9.215  0.00  0.00    +0.119 HD
ATOM     53  H   UNK A  0       27.529 -31.880   8.138  0.00  0.00    +0.119 HD
ENDBRANCH  50  51
BRANCH  50  54
ATOM     54  C   UNK A  0       25.062 -32.140   6.511  0.00  0.00    +0.133 C 
BRANCH  54  55
ATOM     55  O   UNK A  0       25.241 -33.440   5.931  0.00  0.00    -0.390 OA
ATOM     56  H   UNK A  0       24.594 -33.570   5.216  0.00  0.00    +0.210 HD
ENDBRANCH  54  55
BRANCH  54  57
ATOM     57  C   UNK A  0       25.802 -31.068   5.693  0.00  0.00    +0.048 C 
BRANCH  57  58
ATOM     58  C   UNK A  0       25.103 -29.708   5.674  0.00  0.00    +0.080 C 
BRANCH  58  59
ATOM     59  N   UNK A  0       25.520 -28.848   6.772  0.00  0.00    -0.330 NA
ATOM     60  H   UNK A  0       26.120 -28.103   6.416  0.00  0.00    +0.118 HD
ATOM     61  H   UNK A  0       24.710 -28.391   7.193  0.00  0.00    +0.118 HD
ENDBRANCH  58  59
ENDBRANCH  57  58
ENDBRANCH  54  57
ENDBRANCH  50  54
ENDBRANCH  49  50
ENDBRANCH  47  49
ENDBRANCH   7  45
BRANCH  12  62
ATOM     62  CB  SER A  2       19.720 -33.766  15.066  0.00  0.00    +0.187 C 
BRANCH  62  63
ATOM     63  OG  SER A  2       19.266 -32.482  15.500  0.00  0.00    -0.393 OA
ATOM     64  H   SER A  2       18.400 -32.613  15.926  0.00  0.00    +0.209 HD
ENDBRANCH  62  63
ENDBRANCH  12  62
BRANCH  17  65
ATOM     65  C   UNK A  3       16.774 -29.921  12.953  0.00  0.00    +0.187 C 
BRANCH  65  66
ATOM     66  O   UNK A  3       16.611 -28.767  13.771  0.00  0.00    -0.393 OA
ATOM     67  H   UNK A  3       16.902 -28.993  14.670  0.00  0.00    +0.209 HD
ENDBRANCH  65  66
ENDBRANCH  17  65
TORSDOF 15
ENDMDL
