MODEL 1
REMARK VINA RESULT:      -7.1      0.000      0.000
REMARK  Name = *****
REMARK                            x       y       z     vdW  Elec       q    Type
REMARK                         _______ _______ _______ _____ _____    ______ ____
ROOT
ATOM      1  C   LIG    1       23.611 -29.913   9.100  0.00  0.00    +0.025 C 
ATOM      2  C   LIG    1       25.103 -30.193   8.836  0.00  0.00    +0.042 C 
ATOM      3  CA  LIG    1       25.288 -31.075   7.574  0.00  0.00    +0.201 C 
ATOM      4  N   LIG    1       25.425 -30.169   6.420  0.00  0.00    -0.271 N 
ATOM      5  C   LIG    1       26.051 -28.858   6.666  0.00  0.00    +0.165 C 
ATOM      6  CA  LIG    1       24.955 -28.216   5.780  0.00  0.00    +0.190 C 
ATOM      7  C   LIG    1       24.295 -29.619   5.859  0.00  0.00    +0.240 C 
ATOM      8  O   LIG    1       23.203 -30.114   5.702  0.00  0.00    -0.273 OA
ATOM      9  S   LIG    1       25.926 -28.569   8.471  0.00  0.00    -0.127 S 
ATOM     10  C   LIG    1       25.715 -30.747  10.129  0.00  0.00    +0.025 C 
ENDROOT
BRANCH   6  11
ATOM     11  N   LIG    1       24.225 -27.072   6.382  0.00  0.00    -0.301 N 
ATOM     12  H   LIG    1       23.588 -27.234   7.159  0.00  0.00    +0.149 HD
ATOM     13  C   LIG    1       24.239 -25.822   5.805  0.00  0.00    +0.218 C 
ATOM     14  O   LIG    1       24.874 -25.577   4.783  0.00  0.00    -0.275 OA
BRANCH  13  15
ATOM     15  C   LIG    1       23.518 -24.745   6.594  0.00  0.00    +0.131 C 
BRANCH  15  16
ATOM     16  C   LIG    1       24.358 -23.527   6.896  0.00  0.00    -0.039 A 
ATOM     17  C   LIG    1       25.730 -23.658   7.150  0.00  0.00    +0.004 A 
ATOM     18  C   LIG    1       26.503 -22.538   7.458  0.00  0.00    +0.000 A 
ATOM     19  C   LIG    1       25.912 -21.277   7.516  0.00  0.00    +0.000 A 
ATOM     20  C   LIG    1       24.549 -21.134   7.265  0.00  0.00    +0.000 A 
ATOM     21  C   LIG    1       23.774 -22.253   6.957  0.00  0.00    +0.004 A 
ENDBRANCH  15  16
ENDBRANCH  13  15
ENDBRANCH   6  11
BRANCH   3  22
ATOM     22  C   LIG    1       26.491 -32.032   7.600  0.00  0.00    +0.327 C 
ATOM     23  O   LIG    1       26.751 -32.800   8.515  0.00  0.00    -0.249 OA
BRANCH  22  24
ATOM     24  OXT LIG    1       27.237 -32.005   6.467  0.00  0.00    -0.479 OA
ATOM     25  HXT LIG    1       26.667 -32.146   5.684  0.00  0.00    +0.295 HD
ENDBRANCH  22  24
ENDBRANCH   3  22
TORSDOF 5
ENDMDL
MODEL 2
REMARK VINA RESULT:      -7.0      2.116      3.179
REMARK  Name = *****
REMARK                            x       y       z     vdW  Elec       q    Type
REMARK                         _______ _______ _______ _____ _____    ______ ____
ROOT
ATOM      1  C   LIG    1       25.276 -28.753  11.496  0.00  0.00    +0.025 C 
ATOM      2  C   LIG    1       25.915 -30.148  11.359  0.00  0.00    +0.042 C 
ATOM      3  CA  LIG    1       24.871 -31.194  10.890  0.00  0.00    +0.201 C 
ATOM      4  N   LIG    1       24.902 -31.218   9.417  0.00  0.00    -0.271 N 
ATOM      5  C   LIG    1       26.192 -30.923   8.768  0.00  0.00    +0.165 C 
ATOM      6  CA  LIG    1       25.429 -30.039   7.750  0.00  0.00    +0.190 C 
ATOM      7  C   LIG    1       24.229 -30.244   8.714  0.00  0.00    +0.240 C 
ATOM      8  O   LIG    1       23.171 -29.715   8.966  0.00  0.00    -0.273 OA
ATOM      9  S   LIG    1       27.201 -30.050  10.023  0.00  0.00    -0.127 S 
ATOM     10  C   LIG    1       26.633 -30.469  12.675  0.00  0.00    +0.025 C 
ENDROOT
BRANCH   6  11
ATOM     11  N   LIG    1       25.948 -28.659   7.575  0.00  0.00    -0.301 N 
ATOM     12  H   LIG    1       26.387 -28.183   8.360  0.00  0.00    +0.149 HD
ATOM     13  C   LIG    1       25.690 -27.930   6.436  0.00  0.00    +0.218 C 
ATOM     14  O   LIG    1       25.046 -28.385   5.496  0.00  0.00    -0.275 OA
BRANCH  13  15
ATOM     15  C   LIG    1       26.369 -26.574   6.377  0.00  0.00    +0.131 C 
BRANCH  15  16
ATOM     16  C   LIG    1       25.435 -25.401   6.550  0.00  0.00    -0.039 A 
ATOM     17  C   LIG    1       25.930 -24.156   6.959  0.00  0.00    +0.004 A 
ATOM     18  C   LIG    1       25.064 -23.078   7.148  0.00  0.00    +0.000 A 
ATOM     19  C   LIG    1       23.697 -23.234   6.931  0.00  0.00    +0.000 A 
ATOM     20  C   LIG    1       23.192 -24.468   6.525  0.00  0.00    +0.000 A 
ATOM     21  C   LIG    1       24.057 -25.548   6.335  0.00  0.00    +0.004 A 
ENDBRANCH  15  16
ENDBRANCH  13  15
ENDBRANCH   6  11
BRANCH   3  22
ATOM     22  C   LIG    1       25.078 -32.625  11.415  0.00  0.00    +0.327 C 
ATOM     23  O   LIG    1       25.950 -33.389  11.027  0.00  0.00    -0.249 OA
BRANCH  22  24
ATOM     24  OXT LIG    1       24.232 -32.968  12.417  0.00  0.00    -0.479 OA
ATOM     25  HXT LIG    1       24.328 -33.919  12.630  0.00  0.00    +0.295 HD
ENDBRANCH  22  24
ENDBRANCH   3  22
TORSDOF 5
ENDMDL
MODEL 3
REMARK VINA RESULT:      -6.9      5.860      8.396
REMARK  Name = *****
REMARK                            x       y       z     vdW  Elec       q    Type
REMARK                         _______ _______ _______ _____ _____    ______ ____
ROOT
ATOM      1  C   LIG    1       25.151 -21.269   4.622  0.00  0.00    +0.025 C 
ATOM      2  C   LIG    1       24.253 -21.204   5.871  0.00  0.00    +0.042 C 
ATOM      3  CA  LIG    1       24.041 -22.616   6.478  0.00  0.00    +0.201 C 
ATOM      4  N   LIG    1       25.113 -22.836   7.464  0.00  0.00    -0.271 N 
ATOM      5  C   LIG    1       25.626 -21.651   8.174  0.00  0.00    +0.165 C 
ATOM      6  CA  LIG    1       27.059 -22.202   7.969  0.00  0.00    +0.190 C 
ATOM      7  C   LIG    1       26.361 -23.220   7.028  0.00  0.00    +0.240 C 
ATOM      8  O   LIG    1       26.656 -23.962   6.119  0.00  0.00    -0.273 OA
ATOM      9  S   LIG    1       25.145 -20.205   7.157  0.00  0.00    -0.127 S 
ATOM     10  C   LIG    1       22.975 -20.445   5.494  0.00  0.00    +0.025 C 
ENDROOT
BRANCH   6  11
ATOM     11  N   LIG    1       28.034 -21.259   7.365  0.00  0.00    -0.301 N 
ATOM     12  H   LIG    1       27.826 -20.823   6.469  0.00  0.00    +0.149 HD
ATOM     13  C   LIG    1       29.296 -21.092   7.889  0.00  0.00    +0.218 C 
ATOM     14  O   LIG    1       29.675 -21.687   8.893  0.00  0.00    -0.275 OA
BRANCH  13  15
ATOM     15  C   LIG    1       30.135 -20.024   7.210  0.00  0.00    +0.131 C 
BRANCH  15  16
ATOM     16  C   LIG    1       30.569 -18.900   8.120  0.00  0.00    -0.039 A 
ATOM     17  C   LIG    1       31.891 -18.437   8.091  0.00  0.00    +0.004 A 
ATOM     18  C   LIG    1       32.302 -17.419   8.952  0.00  0.00    +0.000 A 
ATOM     19  C   LIG    1       31.397 -16.855   9.849  0.00  0.00    +0.000 A 
ATOM     20  C   LIG    1       30.080 -17.307   9.887  0.00  0.00    +0.000 A 
ATOM     21  C   LIG    1       29.666 -18.326   9.027  0.00  0.00    +0.004 A 
ENDBRANCH  15  16
ENDBRANCH  13  15
ENDBRANCH   6  11
BRANCH   3  22
ATOM     22  C   LIG    1       22.682 -22.852   7.158  0.00  0.00    +0.327 C 
ATOM     23  O   LIG    1       22.273 -22.234   8.130  0.00  0.00    -0.249 OA
BRANCH  22  24
ATOM     24  OXT LIG    1       21.918 -23.789   6.543  0.00  0.00    -0.479 OA
ATOM     25  HXT LIG    1       22.415 -24.198   5.805  0.00  0.00    +0.295 HD
ENDBRANCH  22  24
ENDBRANCH   3  22
TORSDOF 5
ENDMDL
MODEL 4
REMARK VINA RESULT:      -6.7      5.702      8.450
REMARK  Name = *****
REMARK                            x       y       z     vdW  Elec       q    Type
REMARK                         _______ _______ _______ _____ _____    ______ ____
ROOT
ATOM      1  C   LIG    1       25.248 -21.122   4.690  0.00  0.00    +0.025 C 
ATOM      2  C   LIG    1       24.190 -21.466   5.754  0.00  0.00    +0.042 C 
ATOM      3  CA  LIG    1       24.383 -22.911   6.283  0.00  0.00    +0.201 C 
ATOM      4  N   LIG    1       25.285 -22.838   7.445  0.00  0.00    -0.271 N 
ATOM      5  C   LIG    1       25.232 -21.612   8.260  0.00  0.00    +0.165 C 
ATOM      6  CA  LIG    1       26.780 -21.629   8.310  0.00  0.00    +0.190 C 
ATOM      7  C   LIG    1       26.643 -22.742   7.237  0.00  0.00    +0.240 C 
ATOM      8  O   LIG    1       27.323 -23.263   6.383  0.00  0.00    -0.273 OA
ATOM      9  S   LIG    1       24.455 -20.334   7.203  0.00  0.00    -0.127 S 
ATOM     10  C   LIG    1       22.809 -21.154   5.165  0.00  0.00    +0.025 C 
ENDROOT
BRANCH   6  11
ATOM     11  N   LIG    1       27.453 -20.366   7.915  0.00  0.00    -0.301 N 
ATOM     12  H   LIG    1       26.917 -19.628   7.464  0.00  0.00    +0.149 HD
ATOM     13  C   LIG    1       28.822 -20.229   7.973  0.00  0.00    +0.218 C 
ATOM     14  O   LIG    1       29.556 -21.126   8.377  0.00  0.00    -0.275 OA
BRANCH  13  15
ATOM     15  C   LIG    1       29.342 -18.847   7.622  0.00  0.00    +0.131 C 
BRANCH  15  16
ATOM     16  C   LIG    1       30.227 -18.228   8.676  0.00  0.00    -0.039 A 
ATOM     17  C   LIG    1       29.709 -17.913   9.940  0.00  0.00    +0.004 A 
ATOM     18  C   LIG    1       30.517 -17.314  10.907  0.00  0.00    +0.000 A 
ATOM     19  C   LIG    1       31.849 -17.023  10.621  0.00  0.00    +0.000 A 
ATOM     20  C   LIG    1       32.376 -17.331   9.368  0.00  0.00    +0.000 A 
ATOM     21  C   LIG    1       31.569 -17.931   8.399  0.00  0.00    +0.004 A 
ENDBRANCH  15  16
ENDBRANCH  13  15
ENDBRANCH   6  11
BRANCH   3  22
ATOM     22  C   LIG    1       23.097 -23.647   6.698  0.00  0.00    +0.327 C 
ATOM     23  O   LIG    1       22.114 -23.110   7.186  0.00  0.00    -0.249 OA
BRANCH  22  24
ATOM     24  OXT LIG    1       23.112 -24.974   6.417  0.00  0.00    -0.479 OA
ATOM     25  HXT LIG    1       23.983 -25.358   6.646  0.00  0.00    +0.295 HD
ENDBRANCH  22  24
ENDBRANCH   3  22
TORSDOF 5
ENDMDL
MODEL 5
REMARK VINA RESULT:      -6.3      1.494      1.877
REMARK  Name = *****
REMARK                            x       y       z     vdW  Elec       q    Type
REMARK                         _______ _______ _______ _____ _____    ______ ____
ROOT
ATOM      1  C   LIG    1       22.986 -30.288   9.642  0.00  0.00    +0.025 C 
ATOM      2  C   LIG    1       24.492 -30.509   9.872  0.00  0.00    +0.042 C 
ATOM      3  CA  LIG    1       24.975 -31.810   9.179  0.00  0.00    +0.201 C 
ATOM      4  N   LIG    1       25.405 -31.450   7.817  0.00  0.00    -0.271 N 
ATOM      5  C   LIG    1       25.966 -30.101   7.625  0.00  0.00    +0.165 C 
ATOM      6  CA  LIG    1       25.132 -29.986   6.324  0.00  0.00    +0.190 C 
ATOM      7  C   LIG    1       24.456 -31.288   6.832  0.00  0.00    +0.240 C 
ATOM      8  O   LIG    1       23.431 -31.905   6.652  0.00  0.00    -0.273 OA
ATOM      9  S   LIG    1       25.400 -29.109   9.057  0.00  0.00    -0.127 S 
ATOM     10  C   LIG    1       24.757 -30.423  11.380  0.00  0.00    +0.025 C 
ENDROOT
BRANCH   6  11
ATOM     11  N   LIG    1       24.289 -28.770   6.202  0.00  0.00    -0.301 N 
ATOM     12  H   LIG    1       23.304 -28.813   6.456  0.00  0.00    +0.149 HD
ATOM     13  C   LIG    1       24.750 -27.631   5.582  0.00  0.00    +0.218 C 
ATOM     14  O   LIG    1       25.885 -27.546   5.123  0.00  0.00    -0.275 OA
BRANCH  13  15
ATOM     15  C   LIG    1       23.797 -26.450   5.623  0.00  0.00    +0.131 C 
BRANCH  15  16
ATOM     16  C   LIG    1       24.386 -25.195   6.220  0.00  0.00    -0.039 A 
ATOM     17  C   LIG    1       25.771 -25.082   6.405  0.00  0.00    +0.004 A 
ATOM     18  C   LIG    1       26.316 -23.935   6.984  0.00  0.00    +0.000 A 
ATOM     19  C   LIG    1       25.484 -22.892   7.384  0.00  0.00    +0.000 A 
ATOM     20  C   LIG    1       24.106 -22.992   7.205  0.00  0.00    +0.000 A 
ATOM     21  C   LIG    1       23.558 -24.139   6.626  0.00  0.00    +0.004 A 
ENDBRANCH  15  16
ENDBRANCH  13  15
ENDBRANCH   6  11
BRANCH   3  22
ATOM     22  C   LIG    1       26.122 -32.554   9.882  0.00  0.00    +0.327 C 
ATOM     23  O   LIG    1       25.981 -33.534  10.599  0.00  0.00    -0.249 OA
BRANCH  22  24
ATOM     24  OXT LIG    1       27.353 -32.063   9.591  0.00  0.00    -0.479 OA
ATOM     25  HXT LIG    1       27.297 -31.438   8.839  0.00  0.00    +0.295 HD
ENDBRANCH  22  24
ENDBRANCH   3  22
TORSDOF 5
ENDMDL
MODEL 6
REMARK VINA RESULT:      -6.0      2.492      4.153
REMARK  Name = *****
REMARK                            x       y       z     vdW  Elec       q    Type
REMARK                         _______ _______ _______ _____ _____    ______ ____
ROOT
ATOM      1  C   LIG    1       22.094 -30.467  10.403  0.00  0.00    +0.025 C 
ATOM      2  C   LIG    1       23.488 -30.769  10.985  0.00  0.00    +0.042 C 
ATOM      3  CA  LIG    1       23.816 -32.282  10.886  0.00  0.00    +0.201 C 
ATOM      4  N   LIG    1       24.491 -32.501   9.595  0.00  0.00    -0.271 N 
ATOM      5  C   LIG    1       25.311 -31.396   9.069  0.00  0.00    +0.165 C 
ATOM      6  CA  LIG    1       24.703 -31.667   7.670  0.00  0.00    +0.190 C 
ATOM      7  C   LIG    1       23.735 -32.599   8.448  0.00  0.00    +0.240 C 
ATOM      8  O   LIG    1       22.650 -33.110   8.291  0.00  0.00    -0.273 OA
ATOM      9  S   LIG    1       24.742 -29.887   9.937  0.00  0.00    -0.127 S 
ATOM     10  C   LIG    1       23.551 -30.167  12.394  0.00  0.00    +0.025 C 
ENDROOT
BRANCH   6  11
ATOM     11  N   LIG    1       24.122 -30.489   6.979  0.00  0.00    -0.301 N 
ATOM     12  H   LIG    1       23.211 -30.135   7.264  0.00  0.00    +0.149 HD
ATOM     13  C   LIG    1       24.691 -29.968   5.838  0.00  0.00    +0.218 C 
ATOM     14  O   LIG    1       25.719 -30.426   5.348  0.00  0.00    -0.275 OA
BRANCH  13  15
ATOM     15  C   LIG    1       24.027 -28.709   5.309  0.00  0.00    +0.131 C 
BRANCH  15  16
ATOM     16  C   LIG    1       24.605 -27.425   5.852  0.00  0.00    -0.039 A 
ATOM     17  C   LIG    1       24.055 -26.190   5.484  0.00  0.00    +0.004 A 
ATOM     18  C   LIG    1       24.605 -25.000   5.960  0.00  0.00    +0.000 A 
ATOM     19  C   LIG    1       25.710 -25.032   6.808  0.00  0.00    +0.000 A 
ATOM     20  C   LIG    1       26.266 -26.253   7.181  0.00  0.00    +0.000 A 
ATOM     21  C   LIG    1       25.717 -27.446   6.706  0.00  0.00    +0.004 A 
ENDBRANCH  15  16
ENDBRANCH  13  15
ENDBRANCH   6  11
BRANCH   3  22
ATOM     22  C   LIG    1       24.698 -32.848  12.011  0.00  0.00    +0.327 C 
ATOM     23  O   LIG    1       25.892 -32.623  12.140  0.00  0.00    -0.249 OA
BRANCH  22  24
ATOM     24  OXT LIG    1       24.017 -33.594  12.917  0.00  0.00    -0.479 OA
ATOM     25  HXT LIG    1       23.121 -33.800  12.579  0.00  0.00    +0.295 HD
ENDBRANCH  22  24
ENDBRANCH   3  22
TORSDOF 5
ENDMDL
MODEL 7
REMARK VINA RESULT:      -5.9      4.678      5.851
REMARK  Name = *****
REMARK                            x       y       z     vdW  Elec       q    Type
REMARK                         _______ _______ _______ _____ _____    ______ ____
ROOT
ATOM      1  C   LIG    1       23.544 -30.209   9.105  0.00  0.00    +0.025 C 
ATOM      2  C   LIG    1       24.534 -31.364   8.870  0.00  0.00    +0.042 C 
ATOM      3  CA  LIG    1       25.710 -30.913   7.964  0.00  0.00    +0.201 C 
ATOM      4  N   LIG    1       26.773 -30.402   8.846  0.00  0.00    -0.271 N 
ATOM      5  C   LIG    1       26.888 -31.010  10.183  0.00  0.00    +0.165 C 
ATOM      6  CA  LIG    1       27.089 -29.589  10.766  0.00  0.00    +0.190 C 
ATOM      7  C   LIG    1       26.677 -29.121   9.343  0.00  0.00    +0.240 C 
ATOM      8  O   LIG    1       26.250 -28.125   8.807  0.00  0.00    -0.273 OA
ATOM      9  S   LIG    1       25.276 -31.816  10.511  0.00  0.00    -0.127 S 
ATOM     10  C   LIG    1       23.737 -32.575   8.369  0.00  0.00    +0.025 C 
ENDROOT
BRANCH   6  11
ATOM     11  N   LIG    1       26.201 -29.223  11.898  0.00  0.00    -0.301 N 
ATOM     12  H   LIG    1       25.503 -29.887  12.226  0.00  0.00    +0.149 HD
ATOM     13  C   LIG    1       26.166 -27.943  12.404  0.00  0.00    +0.218 C 
ATOM     14  O   LIG    1       26.881 -27.045  11.969  0.00  0.00    -0.275 OA
BRANCH  13  15
ATOM     15  C   LIG    1       25.274 -27.759  13.618  0.00  0.00    +0.131 C 
BRANCH  15  16
ATOM     16  C   LIG    1       23.800 -27.686  13.303  0.00  0.00    -0.039 A 
ATOM     17  C   LIG    1       23.087 -26.500  13.521  0.00  0.00    +0.004 A 
ATOM     18  C   LIG    1       21.718 -26.439  13.259  0.00  0.00    +0.000 A 
ATOM     19  C   LIG    1       21.048 -27.562  12.777  0.00  0.00    +0.000 A 
ATOM     20  C   LIG    1       21.746 -28.747  12.555  0.00  0.00    +0.000 A 
ATOM     21  C   LIG    1       23.116 -28.811  12.818  0.00  0.00    +0.004 A 
ENDBRANCH  15  16
ENDBRANCH  13  15
ENDBRANCH   6  11
BRANCH   3  22
ATOM     22  C   LIG    1       26.301 -31.999   7.049  0.00  0.00    +0.327 C 
ATOM     23  O   LIG    1       26.923 -32.976   7.440  0.00  0.00    -0.249 OA
BRANCH  22  24
ATOM     24  OXT LIG    1       26.022 -31.818   5.734  0.00  0.00    -0.479 OA
ATOM     25  HXT LIG    1       25.095 -32.074   5.548  0.00  0.00    +0.295 HD
ENDBRANCH  22  24
ENDBRANCH   3  22
TORSDOF 5
ENDMDL
MODEL 8
REMARK VINA RESULT:      -5.9      4.245      6.332
REMARK  Name = *****
REMARK                            x       y       z     vdW  Elec       q    Type
REMARK                         _______ _______ _______ _____ _____    ______ ____
ROOT
ATOM      1  C   LIG    1       25.452 -28.598   7.735  0.00  0.00    +0.025 C 
ATOM      2  C   LIG    1       24.971 -30.061   7.710  0.00  0.00    +0.042 C 
ATOM      3  CA  LIG    1       26.152 -31.039   7.950  0.00  0.00    +0.201 C 
ATOM      4  N   LIG    1       26.244 -31.268   9.403  0.00  0.00    -0.271 N 
ATOM      5  C   LIG    1       24.989 -31.211  10.173  0.00  0.00    +0.165 C 
ATOM      6  CA  LIG    1       25.740 -30.396  11.255  0.00  0.00    +0.190 C 
ATOM      7  C   LIG    1       26.871 -30.330  10.193  0.00  0.00    +0.240 C 
ATOM      8  O   LIG    1       27.845 -29.656   9.950  0.00  0.00    -0.273 OA
ATOM      9  S   LIG    1       23.796 -30.294   9.129  0.00  0.00    -0.127 S 
ATOM     10  C   LIG    1       24.184 -30.277   6.412  0.00  0.00    +0.025 C 
ENDROOT
BRANCH   6  11
ATOM     11  N   LIG    1       25.100 -29.121  11.664  0.00  0.00    -0.301 N 
ATOM     12  H   LIG    1       24.721 -28.497  10.954  0.00  0.00    +0.149 HD
ATOM     13  C   LIG    1       25.163 -28.663  12.961  0.00  0.00    +0.218 C 
ATOM     14  O   LIG    1       25.725 -29.293  13.852  0.00  0.00    -0.275 OA
BRANCH  13  15
ATOM     15  C   LIG    1       24.380 -27.392  13.230  0.00  0.00    +0.131 C 
BRANCH  15  16
ATOM     16  C   LIG    1       22.882 -27.574  13.245  0.00  0.00    -0.039 A 
ATOM     17  C   LIG    1       22.033 -26.459  13.232  0.00  0.00    +0.004 A 
ATOM     18  C   LIG    1       20.648 -26.624  13.276  0.00  0.00    +0.000 A 
ATOM     19  C   LIG    1       20.099 -27.903  13.333  0.00  0.00    +0.000 A 
ATOM     20  C   LIG    1       20.932 -29.019  13.346  0.00  0.00    +0.000 A 
ATOM     21  C   LIG    1       22.318 -28.857  13.303  0.00  0.00    +0.004 A 
ENDBRANCH  15  16
ENDBRANCH  13  15
ENDBRANCH   6  11
BRANCH   3  22
ATOM     22  C   LIG    1       26.048 -32.397   7.238  0.00  0.00    +0.327 C 
ATOM     23  O   LIG    1       25.276 -33.291   7.552  0.00  0.00    -0.249 OA
BRANCH  22  24
ATOM     24  OXT LIG    1       26.863 -32.513   6.159  0.00  0.00    -0.479 OA
ATOM     25  HXT LIG    1       26.521 -31.971   5.419  0.00  0.00    +0.295 HD
ENDBRANCH  22  24
ENDBRANCH   3  22
TORSDOF 5
ENDMDL
MODEL 9
REMARK VINA RESULT:      -5.8      3.014      4.340
REMARK  Name = *****
REMARK                            x       y       z     vdW  Elec       q    Type
REMARK                         _______ _______ _______ _____ _____    ______ ____
ROOT
ATOM      1  C   LIG    1       25.884 -27.509  12.164  0.00  0.00    +0.025 C 
ATOM      2  C   LIG    1       26.505 -28.880  12.491  0.00  0.00    +0.042 C 
ATOM      3  CA  LIG    1       25.418 -29.986  12.539  0.00  0.00    +0.201 C 
ATOM      4  N   LIG    1       25.303 -30.548  11.182  0.00  0.00    -0.271 N 
ATOM      5  C   LIG    1       26.522 -30.560  10.354  0.00  0.00    +0.165 C 
ATOM      6  CA  LIG    1       25.662 -30.082   9.157  0.00  0.00    +0.190 C 
ATOM      7  C   LIG    1       24.564 -29.874  10.235  0.00  0.00    +0.240 C 
ATOM      8  O   LIG    1       23.537 -29.250  10.371  0.00  0.00    -0.273 OA
ATOM      9  S   LIG    1       27.652 -29.327  11.101  0.00  0.00    -0.127 S 
ATOM     10  C   LIG    1       27.349 -28.724  13.762  0.00  0.00    +0.025 C 
ENDROOT
BRANCH   6  11
ATOM     11  N   LIG    1       26.163 -28.883   8.440  0.00  0.00    -0.301 N 
ATOM     12  H   LIG    1       26.919 -28.333   8.843  0.00  0.00    +0.149 HD
ATOM     13  C   LIG    1       25.516 -28.381   7.333  0.00  0.00    +0.218 C 
ATOM     14  O   LIG    1       24.512 -28.908   6.863  0.00  0.00    -0.275 OA
BRANCH  13  15
ATOM     15  C   LIG    1       26.208 -27.207   6.664  0.00  0.00    +0.131 C 
BRANCH  15  16
ATOM     16  C   LIG    1       25.430 -25.915   6.714  0.00  0.00    -0.039 A 
ATOM     17  C   LIG    1       24.081 -25.885   6.334  0.00  0.00    +0.004 A 
ATOM     18  C   LIG    1       23.367 -24.687   6.351  0.00  0.00    +0.000 A 
ATOM     19  C   LIG    1       23.994 -23.506   6.746  0.00  0.00    +0.000 A 
ATOM     20  C   LIG    1       25.334 -23.523   7.126  0.00  0.00    +0.000 A 
ATOM     21  C   LIG    1       26.050 -24.721   7.110  0.00  0.00    +0.004 A 
ENDBRANCH  15  16
ENDBRANCH  13  15
ENDBRANCH   6  11
BRANCH   3  22
ATOM     22  C   LIG    1       25.675 -31.131  13.532  0.00  0.00    +0.327 C 
ATOM     23  O   LIG    1       26.541 -31.984  13.402  0.00  0.00    -0.249 OA
BRANCH  22  24
ATOM     24  OXT LIG    1       24.882 -31.090  14.632  0.00  0.00    -0.479 OA
ATOM     25  HXT LIG    1       24.162 -31.748  14.553  0.00  0.00    +0.295 HD
ENDBRANCH  22  24
ENDBRANCH   3  22
TORSDOF 5
ENDMDL
