MODEL 1
REMARK VINA RESULT:       9.2      0.000      0.000
REMARK  Name = *****
REMARK                            x       y       z     vdW  Elec       q    Type
REMARK                         _______ _______ _______ _____ _____    ______ ____
ROOT
ATOM      1  C   LIG    1       26.635 -14.075   5.215  0.00  0.00    +0.014 C 
ATOM      2  C   LIG    1       25.392 -14.292   4.352  0.00  0.00    -0.000 C 
ATOM      3  C   LIG    1       24.844 -12.855   3.848  0.00  0.00    +0.069 C 
ATOM      4  C   LIG    1       25.153 -11.627   4.688  0.00  0.00    +0.042 C 
ATOM      5  C   LIG    1       23.482 -13.264   3.342  0.00  0.00    +0.035 C 
ATOM      6  C   LIG    1       23.899 -14.561   2.529  0.00  0.00    +0.007 C 
ATOM      7  C   LIG    1       25.435 -14.917   2.970  0.00  0.00    +0.001 C 
ATOM      8  C   LIG    1       25.981 -16.347   2.898  0.00  0.00    -0.004 C 
ATOM      9  C   LIG    1       27.284 -16.698   3.689  0.00  0.00    +0.004 C 
ATOM     10  C   LIG    1       27.122 -17.760   4.817  0.00  0.00    +0.005 C 
ATOM     11  C   LIG    1       26.503 -19.093   4.305  0.00  0.00    +0.001 C 
ATOM     12  C   LIG    1       25.453 -18.799   3.154  0.00  0.00    -0.022 C 
ATOM     13  C   LIG    1       26.225 -19.066   1.813  0.00  0.00    +0.012 C 
ATOM     14  C   LIG    1       24.239 -19.760   3.087  0.00  0.00    +0.045 C 
ATOM     15  C   LIG    1       23.727 -19.997   4.442  0.00  0.00    -0.006 A 
ATOM     16  C   LIG    1       24.572 -20.219   5.473  0.00  0.00    +0.040 A 
ATOM     17  N   LIG    1       23.780 -20.562   6.547  0.00  0.00    -0.281 N 
ATOM     18  H   LIG    1       24.029 -20.952   7.424  0.00  0.00    +0.189 HD
ATOM     19  N   LIG    1       22.480 -20.257   6.304  0.00  0.00    -0.182 NA
ATOM     20  C   LIG    1       22.453 -19.882   5.024  0.00  0.00    +0.138 A 
ATOM     21  C   LIG    1       26.053 -20.095   5.434  0.00  0.00    +0.059 C 
ATOM     22  C   LIG    1       24.892 -17.310   3.261  0.00  0.00    -0.001 C 
ATOM     23  C   LIG    1       24.215 -16.815   4.599  0.00  0.00    +0.005 C 
ATOM     24  C   LIG    1       24.452 -15.326   5.164  0.00  0.00    +0.010 C 
ENDROOT
BRANCH   3  25
ATOM     25  O   LIG    1       25.505 -12.400   2.609  0.00  0.00    -0.388 OA
ATOM     26  H   LIG    1       26.456 -12.607   2.690  0.00  0.00    +0.210 HD
ENDBRANCH   3  25
TORSDOF 1
ENDMDL
MODEL 2
REMARK VINA RESULT:      11.7      3.382      6.280
REMARK  Name = *****
REMARK                            x       y       z     vdW  Elec       q    Type
REMARK                         _______ _______ _______ _____ _____    ______ ____
ROOT
ATOM      1  C   LIG    1       23.099 -18.806   6.310  0.00  0.00    +0.014 C 
ATOM      2  C   LIG    1       23.662 -18.946   4.896  0.00  0.00    -0.000 C 
ATOM      3  C   LIG    1       23.489 -20.480   4.411  0.00  0.00    +0.069 C 
ATOM      4  C   LIG    1       23.426 -21.572   5.466  0.00  0.00    +0.042 C 
ATOM      5  C   LIG    1       24.389 -20.469   3.200  0.00  0.00    +0.035 C 
ATOM      6  C   LIG    1       23.903 -19.109   2.542  0.00  0.00    +0.007 C 
ATOM      7  C   LIG    1       23.003 -18.338   3.673  0.00  0.00    +0.001 C 
ATOM      8  C   LIG    1       22.857 -16.812   3.679  0.00  0.00    -0.004 C 
ATOM      9  C   LIG    1       22.336 -16.110   4.976  0.00  0.00    +0.004 C 
ATOM     10  C   LIG    1       23.337 -15.132   5.661  0.00  0.00    +0.005 C 
ATOM     11  C   LIG    1       23.854 -14.027   4.695  0.00  0.00    +0.001 C 
ATOM     12  C   LIG    1       23.985 -14.605   3.225  0.00  0.00    -0.022 C 
ATOM     13  C   LIG    1       22.685 -14.136   2.480  0.00  0.00    +0.012 C 
ATOM     14  C   LIG    1       25.138 -14.020   2.371  0.00  0.00    +0.045 C 
ATOM     15  C   LIG    1       26.355 -13.932   3.187  0.00  0.00    -0.006 A 
ATOM     16  C   LIG    1       26.305 -13.480   4.459  0.00  0.00    +0.040 A 
ATOM     17  N   LIG    1       27.614 -13.368   4.876  0.00  0.00    -0.281 N 
ATOM     18  H   LIG    1       27.992 -12.922   5.676  0.00  0.00    +0.189 HD
ATOM     19  N   LIG    1       28.446 -14.024   4.029  0.00  0.00    -0.182 NA
ATOM     20  C   LIG    1       27.670 -14.395   3.009  0.00  0.00    +0.138 A 
ATOM     21  C   LIG    1       25.072 -13.187   5.236  0.00  0.00    +0.059 C 
ATOM     22  C   LIG    1       24.150 -16.190   3.248  0.00  0.00    -0.001 C 
ATOM     23  C   LIG    1       25.321 -16.851   4.077  0.00  0.00    +0.005 C 
ATOM     24  C   LIG    1       25.103 -18.214   4.907  0.00  0.00    +0.010 C 
ENDROOT
BRANCH   3  25
ATOM     25  O   LIG    1       22.167 -20.736   3.805  0.00  0.00    -0.388 OA
ATOM     26  H   LIG    1       21.505 -20.240   4.324  0.00  0.00    +0.210 HD
ENDBRANCH   3  25
TORSDOF 1
ENDMDL
