MODEL 1
REMARK VINA RESULT:      -4.8      0.000      0.000
REMARK  Name = *****
REMARK                            x       y       z     vdW  Elec       q    Type
REMARK                         _______ _______ _______ _____ _____    ______ ____
ROOT
ATOM      1  C   LIG    1       27.193 -13.986   3.632  0.00  0.00    +0.188 C 
ATOM      2  C   LIG    1       28.553 -13.305   3.686  0.00  0.00    +0.066 C 
ATOM      3  C   LIG    1       26.247 -13.413   4.667  0.00  0.00    +0.268 C 
ATOM      4  O   LIG    1       26.455 -13.340   5.868  0.00  0.00    -0.271 OA
ATOM      5  N   LIG    1       25.142 -12.984   4.010  0.00  0.00    -0.207 N 
ATOM      6  C   LIG    1       24.019 -12.340   4.639  0.00  0.00    +0.144 C 
ATOM      7  C   LIG    1       25.340 -13.032   2.677  0.00  0.00    +0.410 C 
ATOM      8  O   LIG    1       24.593 -12.604   1.812  0.00  0.00    -0.226 OA
ATOM      9  O   LIG    1       26.544 -13.608   2.399  0.00  0.00    -0.434 OA
ENDROOT
BRANCH   1  11
ATOM     10  C   LIG    1       25.941 -16.214   3.297  0.00  0.00    +0.008 C 
ATOM     11  C   LIG    1       27.239 -15.518   3.679  0.00  0.00    +0.054 C 
ENDBRANCH   1  11
TORSDOF 1
ENDMDL
MODEL 2
REMARK VINA RESULT:      -4.6      1.461      3.306
REMARK  Name = *****
REMARK                            x       y       z     vdW  Elec       q    Type
REMARK                         _______ _______ _______ _____ _____    ______ ____
ROOT
ATOM      1  C   LIG    1       24.528 -13.460   3.778  0.00  0.00    +0.188 C 
ATOM      2  C   LIG    1       23.587 -14.493   4.382  0.00  0.00    +0.066 C 
ATOM      3  C   LIG    1       25.752 -13.255   4.646  0.00  0.00    +0.268 C 
ATOM      4  O   LIG    1       25.751 -12.948   5.828  0.00  0.00    -0.271 OA
ATOM      5  N   LIG    1       26.839 -13.491   3.872  0.00  0.00    -0.207 N 
ATOM      6  C   LIG    1       28.199 -13.434   4.340  0.00  0.00    +0.144 C 
ATOM      7  C   LIG    1       26.466 -14.006   2.683  0.00  0.00    +0.410 C 
ATOM      8  O   LIG    1       27.203 -14.440   1.812  0.00  0.00    -0.226 OA
ATOM      9  O   LIG    1       25.107 -14.020   2.580  0.00  0.00    -0.434 OA
ENDROOT
BRANCH   1  11
ATOM     10  C   LIG    1       24.215 -11.612   2.009  0.00  0.00    +0.008 C 
ATOM     11  C   LIG    1       23.863 -12.133   3.394  0.00  0.00    +0.054 C 
ENDBRANCH   1  11
TORSDOF 1
ENDMDL
MODEL 3
REMARK VINA RESULT:      -4.6      1.566      3.537
REMARK  Name = *****
REMARK                            x       y       z     vdW  Elec       q    Type
REMARK                         _______ _______ _______ _____ _____    ______ ____
ROOT
ATOM      1  C   LIG    1       24.969 -13.790   3.707  0.00  0.00    +0.188 C 
ATOM      2  C   LIG    1       24.088 -12.718   3.083  0.00  0.00    +0.066 C 
ATOM      3  C   LIG    1       26.309 -13.880   3.007  0.00  0.00    +0.268 C 
ATOM      4  O   LIG    1       26.484 -14.061   1.812  0.00  0.00    -0.271 OA
ATOM      5  N   LIG    1       27.268 -13.705   3.948  0.00  0.00    -0.207 N 
ATOM      6  C   LIG    1       28.682 -13.686   3.675  0.00  0.00    +0.144 C 
ATOM      7  C   LIG    1       26.716 -13.324   5.117  0.00  0.00    +0.410 C 
ATOM      8  O   LIG    1       27.308 -12.970   6.124  0.00  0.00    -0.226 OA
ATOM      9  O   LIG    1       25.356 -13.348   5.026  0.00  0.00    -0.434 OA
ENDROOT
BRANCH   1  11
ATOM     10  C   LIG    1       23.098 -15.199   4.784  0.00  0.00    +0.008 C 
ATOM     11  C   LIG    1       24.304 -15.164   3.856  0.00  0.00    +0.054 C 
ENDBRANCH   1  11
TORSDOF 1
ENDMDL
MODEL 4
REMARK VINA RESULT:      -4.4      1.293      2.892
REMARK  Name = *****
REMARK                            x       y       z     vdW  Elec       q    Type
REMARK                         _______ _______ _______ _____ _____    ______ ____
ROOT
ATOM      1  C   LIG    1       27.293 -13.959   4.043  0.00  0.00    +0.188 C 
ATOM      2  C   LIG    1       27.606 -15.411   4.372  0.00  0.00    +0.066 C 
ATOM      3  C   LIG    1       26.281 -13.854   2.921  0.00  0.00    +0.268 C 
ATOM      4  O   LIG    1       26.382 -14.357   1.813  0.00  0.00    -0.271 OA
ATOM      5  N   LIG    1       25.242 -13.116   3.382  0.00  0.00    -0.207 N 
ATOM      6  C   LIG    1       24.055 -12.818   2.624  0.00  0.00    +0.144 C 
ATOM      7  C   LIG    1       25.370 -12.902   4.707  0.00  0.00    +0.410 C 
ATOM      8  O   LIG    1       24.549 -12.380   5.445  0.00  0.00    -0.226 OA
ATOM      9  O   LIG    1       26.563 -13.390   5.151  0.00  0.00    -0.434 OA
ENDROOT
BRANCH   1  11
ATOM     10  C   LIG    1       28.890 -12.147   4.943  0.00  0.00    +0.008 C 
ATOM     11  C   LIG    1       28.521 -13.076   3.796  0.00  0.00    +0.054 C 
ENDBRANCH   1  11
TORSDOF 1
ENDMDL
MODEL 5
REMARK VINA RESULT:      -4.3      6.332      7.591
REMARK  Name = *****
REMARK                            x       y       z     vdW  Elec       q    Type
REMARK                         _______ _______ _______ _____ _____    ______ ____
ROOT
ATOM      1  C   LIG    1       24.281 -19.958   4.156  0.00  0.00    +0.188 C 
ATOM      2  C   LIG    1       23.883 -20.729   2.906  0.00  0.00    +0.066 C 
ATOM      3  C   LIG    1       24.323 -20.861   5.371  0.00  0.00    +0.268 C 
ATOM      4  O   LIG    1       23.409 -21.563   5.776  0.00  0.00    -0.271 OA
ATOM      5  N   LIG    1       25.562 -20.757   5.909  0.00  0.00    -0.207 N 
ATOM      6  C   LIG    1       26.014 -21.492   7.062  0.00  0.00    +0.144 C 
ATOM      7  C   LIG    1       26.372 -20.058   5.089  0.00  0.00    +0.410 C 
ATOM      8  O   LIG    1       27.574 -19.890   5.220  0.00  0.00    -0.226 OA
ATOM      9  O   LIG    1       25.666 -19.571   4.029  0.00  0.00    -0.434 OA
ENDROOT
BRANCH   1  11
ATOM     10  C   LIG    1       21.957 -18.860   4.345  0.00  0.00    +0.008 C 
ATOM     11  C   LIG    1       23.466 -18.684   4.413  0.00  0.00    +0.054 C 
ENDBRANCH   1  11
TORSDOF 1
ENDMDL
MODEL 6
REMARK VINA RESULT:      -4.1      6.518      7.813
REMARK  Name = *****
REMARK                            x       y       z     vdW  Elec       q    Type
REMARK                         _______ _______ _______ _____ _____    ______ ____
ROOT
ATOM      1  C   LIG    1       23.143 -20.249   4.938  0.00  0.00    +0.188 C 
ATOM      2  C   LIG    1       22.367 -21.301   4.159  0.00  0.00    +0.066 C 
ATOM      3  C   LIG    1       23.793 -20.842   6.171  0.00  0.00    +0.268 C 
ATOM      4  O   LIG    1       23.222 -21.456   7.059  0.00  0.00    -0.271 OA
ATOM      5  N   LIG    1       25.120 -20.580   6.093  0.00  0.00    -0.207 N 
ATOM      6  C   LIG    1       26.094 -21.012   7.061  0.00  0.00    +0.144 C 
ATOM      7  C   LIG    1       25.428 -20.069   4.884  0.00  0.00    +0.410 C 
ATOM      8  O   LIG    1       26.546 -19.840   4.451  0.00  0.00    -0.226 OA
ATOM      9  O   LIG    1       24.294 -19.862   4.156  0.00  0.00    -0.434 OA
ENDROOT
BRANCH   1  11
ATOM     10  C   LIG    1       21.977 -18.127   4.054  0.00  0.00    +0.008 C 
ATOM     11  C   LIG    1       22.353 -18.974   5.260  0.00  0.00    +0.054 C 
ENDBRANCH   1  11
TORSDOF 1
ENDMDL
MODEL 7
REMARK VINA RESULT:      -3.9      1.653      3.644
REMARK  Name = *****
REMARK                            x       y       z     vdW  Elec       q    Type
REMARK                         _______ _______ _______ _____ _____    ______ ____
ROOT
ATOM      1  C   LIG    1       25.352 -13.265   3.292  0.00  0.00    +0.188 C 
ATOM      2  C   LIG    1       24.696 -13.109   1.928  0.00  0.00    +0.066 C 
ATOM      3  C   LIG    1       25.667 -14.716   3.590  0.00  0.00    +0.268 C 
ATOM      4  O   LIG    1       24.870 -15.642   3.576  0.00  0.00    -0.271 OA
ATOM      5  N   LIG    1       26.993 -14.794   3.857  0.00  0.00    -0.207 N 
ATOM      6  C   LIG    1       27.693 -16.017   4.154  0.00  0.00    +0.144 C 
ATOM      7  C   LIG    1       27.597 -13.622   3.579  0.00  0.00    +0.410 C 
ATOM      8  O   LIG    1       28.797 -13.398   3.594  0.00  0.00    -0.226 OA
ATOM      9  O   LIG    1       26.672 -12.684   3.230  0.00  0.00    -0.434 OA
ENDROOT
BRANCH   1  11
ATOM     10  C   LIG    1       23.680 -11.450   4.038  0.00  0.00    +0.008 C 
ATOM     11  C   LIG    1       24.602 -12.589   4.447  0.00  0.00    +0.054 C 
ENDBRANCH   1  11
TORSDOF 1
ENDMDL
MODEL 8
REMARK VINA RESULT:      -3.9      2.011      2.884
REMARK  Name = *****
REMARK                            x       y       z     vdW  Elec       q    Type
REMARK                         _______ _______ _______ _____ _____    ______ ____
ROOT
ATOM      1  C   LIG    1       26.230 -13.713   3.462  0.00  0.00    +0.188 C 
ATOM      2  C   LIG    1       26.305 -12.848   2.211  0.00  0.00    +0.066 C 
ATOM      3  C   LIG    1       24.825 -13.749   4.024  0.00  0.00    +0.268 C 
ATOM      4  O   LIG    1       24.151 -12.779   4.337  0.00  0.00    -0.271 OA
ATOM      5  N   LIG    1       24.453 -15.050   4.099  0.00  0.00    -0.207 N 
ATOM      6  C   LIG    1       23.164 -15.504   4.552  0.00  0.00    +0.144 C 
ATOM      7  C   LIG    1       25.359 -15.833   3.479  0.00  0.00    +0.410 C 
ATOM      8  O   LIG    1       25.262 -17.030   3.262  0.00  0.00    -0.226 OA
ATOM      9  O   LIG    1       26.427 -15.089   3.073  0.00  0.00    -0.434 OA
ENDROOT
BRANCH   1  11
ATOM     10  C   LIG    1       28.633 -12.954   4.005  0.00  0.00    +0.008 C 
ATOM     11  C   LIG    1       27.273 -13.381   4.536  0.00  0.00    +0.054 C 
ENDBRANCH   1  11
TORSDOF 1
ENDMDL
MODEL 9
REMARK VINA RESULT:      -3.5      2.164      3.343
REMARK  Name = *****
REMARK                            x       y       z     vdW  Elec       q    Type
REMARK                         _______ _______ _______ _____ _____    ______ ____
ROOT
ATOM      1  C   LIG    1       25.859 -13.766   3.794  0.00  0.00    +0.188 C 
ATOM      2  C   LIG    1       26.742 -13.220   4.906  0.00  0.00    +0.066 C 
ATOM      3  C   LIG    1       26.145 -15.230   3.531  0.00  0.00    +0.268 C 
ATOM      4  O   LIG    1       27.234 -15.712   3.260  0.00  0.00    -0.271 OA
ATOM      5  N   LIG    1       24.976 -15.901   3.668  0.00  0.00    -0.207 N 
ATOM      6  C   LIG    1       24.834 -17.327   3.533  0.00  0.00    +0.144 C 
ATOM      7  C   LIG    1       24.025 -15.088   4.172  0.00  0.00    +0.410 C 
ATOM      8  O   LIG    1       22.902 -15.411   4.527  0.00  0.00    -0.226 OA
ATOM      9  O   LIG    1       24.499 -13.814   4.276  0.00  0.00    -0.434 OA
ENDROOT
BRANCH   1  11
ATOM     10  C   LIG    1       24.569 -12.193   2.211  0.00  0.00    +0.008 C 
ATOM     11  C   LIG    1       25.863 -12.937   2.504  0.00  0.00    +0.054 C 
ENDBRANCH   1  11
TORSDOF 1
ENDMDL
