MODEL 1
REMARK VINA RESULT:      -4.7      0.000      0.000
REMARK  Name = *****
REMARK                            x       y       z     vdW  Elec       q    Type
REMARK                         _______ _______ _______ _____ _____    ______ ____
ROOT
ATOM      1  C   LIG    1       25.576 -20.715   5.842  0.00  0.00    +0.034 A 
ATOM      2  C   LIG    1       24.481 -20.770   6.705  0.00  0.00    +0.027 A 
ATOM      3  C   LIG    1       23.240 -20.315   6.286  0.00  0.00    +0.047 A 
ATOM      4  C   LIG    1       23.051 -19.773   5.012  0.00  0.00    +0.121 A 
ATOM      5  C   LIG    1       24.131 -19.754   4.129  0.00  0.00    +0.047 A 
ATOM      6  C   LIG    1       25.386 -20.228   4.548  0.00  0.00    +0.027 A 
ENDROOT
BRANCH   1   9
ATOM      7  C   LIG    1       29.099 -21.211   7.039  0.00  0.00    +0.109 C 
ATOM      8  C   LIG    1       28.002 -20.465   6.330  0.00  0.00    +0.214 C 
ATOM      9  N   LIG    1       26.797 -21.149   6.373  0.00  0.00    -0.286 N 
ATOM     10  H   LIG    1       26.788 -22.032   6.859  0.00  0.00    +0.155 HD
ATOM     11  O   LIG    1       28.214 -19.381   5.823  0.00  0.00    -0.276 OA
ENDBRANCH   1   9
BRANCH   4  12
ATOM     12  O   LIG    1       21.850 -19.243   4.593  0.00  0.00    -0.489 OA
BRANCH  12  13
ATOM     13  C   LIG    1       22.001 -17.959   3.955  0.00  0.00    +0.261 C 
BRANCH  13  14
ATOM     14  C   LIG    1       22.685 -16.927   4.847  0.00  0.00    +0.166 C 
BRANCH  14  15
ATOM     15  O   LIG    1       21.739 -16.087   5.512  0.00  0.00    -0.387 OA
ATOM     16  H   LIG    1       21.513 -15.370   4.894  0.00  0.00    +0.210 HD
ENDBRANCH  14  15
BRANCH  14  17
ATOM     17  C   LIG    1       23.655 -16.044   4.026  0.00  0.00    +0.115 C 
BRANCH  17  18
ATOM     18  N   LIG    1       23.598 -14.598   4.344  0.00  0.00    -0.311 NA
ATOM     19  H   LIG    1       23.509 -14.509   5.360  0.00  0.00    +0.122 HD
BRANCH  18  20
ATOM     20  C   LIG    1       24.828 -13.896   3.916  0.00  0.00    +0.048 C 
ATOM     21  C   LIG    1       24.539 -12.965   2.731  0.00  0.00    +0.024 C 
ATOM     22  C   LIG    1       25.928 -14.886   3.520  0.00  0.00    +0.024 C 
ENDBRANCH  18  20
ENDBRANCH  17  18
ENDBRANCH  14  17
ENDBRANCH  13  14
ENDBRANCH  12  13
ENDBRANCH   4  12
TORSDOF 8
ENDMDL
MODEL 2
REMARK VINA RESULT:      -4.6      2.479      4.672
REMARK  Name = *****
REMARK                            x       y       z     vdW  Elec       q    Type
REMARK                         _______ _______ _______ _____ _____    ______ ____
ROOT
ATOM      1  C   LIG    1       25.077 -19.690   4.312  0.00  0.00    +0.034 A 
ATOM      2  C   LIG    1       24.787 -18.603   3.486  0.00  0.00    +0.027 A 
ATOM      3  C   LIG    1       25.734 -17.610   3.285  0.00  0.00    +0.047 A 
ATOM      4  C   LIG    1       26.984 -17.653   3.908  0.00  0.00    +0.121 A 
ATOM      5  C   LIG    1       27.296 -18.758   4.701  0.00  0.00    +0.047 A 
ATOM      6  C   LIG    1       26.342 -19.771   4.895  0.00  0.00    +0.027 A 
ENDROOT
BRANCH   1   9
ATOM      7  C   LIG    1       21.912 -21.571   5.047  0.00  0.00    +0.109 C 
ATOM      8  C   LIG    1       22.793 -20.353   5.044  0.00  0.00    +0.214 C 
ATOM      9  N   LIG    1       24.040 -20.613   4.495  0.00  0.00    -0.286 N 
ATOM     10  H   LIG    1       24.208 -21.551   4.167  0.00  0.00    +0.155 HD
ATOM     11  O   LIG    1       22.385 -19.289   5.466  0.00  0.00    -0.276 OA
ENDBRANCH   1   9
BRANCH   4  12
ATOM     12  O   LIG    1       27.916 -16.645   3.789  0.00  0.00    -0.489 OA
BRANCH  12  13
ATOM     13  C   LIG    1       27.406 -15.363   4.208  0.00  0.00    +0.261 C 
BRANCH  13  14
ATOM     14  C   LIG    1       27.596 -14.274   3.157  0.00  0.00    +0.166 C 
BRANCH  14  15
ATOM     15  O   LIG    1       28.854 -13.610   3.299  0.00  0.00    -0.387 OA
ATOM     16  H   LIG    1       29.426 -13.928   2.579  0.00  0.00    +0.210 HD
ENDBRANCH  14  15
BRANCH  14  17
ATOM     17  C   LIG    1       26.460 -13.226   3.237  0.00  0.00    +0.115 C 
BRANCH  17  18
ATOM     18  N   LIG    1       25.323 -13.472   2.318  0.00  0.00    -0.311 NA
ATOM     19  H   LIG    1       25.416 -14.427   1.961  0.00  0.00    +0.122 HD
BRANCH  18  20
ATOM     20  C   LIG    1       24.024 -13.354   3.015  0.00  0.00    +0.048 C 
ATOM     21  C   LIG    1       23.871 -11.967   3.653  0.00  0.00    +0.024 C 
ATOM     22  C   LIG    1       23.870 -14.425   4.099  0.00  0.00    +0.024 C 
ENDBRANCH  18  20
ENDBRANCH  17  18
ENDBRANCH  14  17
ENDBRANCH  13  14
ENDBRANCH  12  13
ENDBRANCH   4  12
TORSDOF 8
ENDMDL
MODEL 3
REMARK VINA RESULT:      -4.4      2.362      7.169
REMARK  Name = *****
REMARK                            x       y       z     vdW  Elec       q    Type
REMARK                         _______ _______ _______ _____ _____    ______ ____
ROOT
ATOM      1  C   LIG    1       26.247 -14.510   3.165  0.00  0.00    +0.034 A 
ATOM      2  C   LIG    1       25.622 -15.744   2.983  0.00  0.00    +0.027 A 
ATOM      3  C   LIG    1       26.211 -16.901   3.473  0.00  0.00    +0.047 A 
ATOM      4  C   LIG    1       27.440 -16.873   4.135  0.00  0.00    +0.121 A 
ATOM      5  C   LIG    1       28.050 -15.638   4.357  0.00  0.00    +0.047 A 
ATOM      6  C   LIG    1       27.448 -14.463   3.874  0.00  0.00    +0.027 A 
ENDROOT
BRANCH   1   9
ATOM      7  C   LIG    1       24.121 -11.552   2.257  0.00  0.00    +0.109 C 
ATOM      8  C   LIG    1       24.532 -12.708   3.126  0.00  0.00    +0.214 C 
ATOM      9  N   LIG    1       25.603 -13.407   2.590  0.00  0.00    -0.286 N 
ATOM     10  H   LIG    1       25.976 -13.072   1.716  0.00  0.00    +0.155 HD
ATOM     11  O   LIG    1       23.961 -12.930   4.176  0.00  0.00    -0.276 OA
ENDBRANCH   1   9
BRANCH   4  12
ATOM     12  O   LIG    1       28.087 -18.012   4.565  0.00  0.00    -0.489 OA
BRANCH  12  13
ATOM     13  C   LIG    1       27.206 -19.149   4.656  0.00  0.00    +0.261 C 
BRANCH  13  14
ATOM     14  C   LIG    1       27.368 -19.926   5.959  0.00  0.00    +0.166 C 
BRANCH  14  15
ATOM     15  O   LIG    1       28.534 -20.753   5.946  0.00  0.00    -0.387 OA
ATOM     16  H   LIG    1       29.071 -20.474   5.184  0.00  0.00    +0.210 HD
ENDBRANCH  14  15
BRANCH  14  17
ATOM     17  C   LIG    1       26.126 -20.808   6.233  0.00  0.00    +0.115 C 
BRANCH  17  18
ATOM     18  N   LIG    1       25.385 -21.231   5.021  0.00  0.00    -0.311 NA
ATOM     19  H   LIG    1       25.510 -22.242   4.920  0.00  0.00    +0.122 HD
BRANCH  18  20
ATOM     20  C   LIG    1       23.939 -20.944   5.138  0.00  0.00    +0.048 C 
ATOM     21  C   LIG    1       23.561 -19.702   4.320  0.00  0.00    +0.024 C 
ATOM     22  C   LIG    1       23.527 -20.728   6.598  0.00  0.00    +0.024 C 
ENDBRANCH  18  20
ENDBRANCH  17  18
ENDBRANCH  14  17
ENDBRANCH  13  14
ENDBRANCH  12  13
ENDBRANCH   4  12
TORSDOF 8
ENDMDL
MODEL 4
REMARK VINA RESULT:      -4.2      1.935      6.462
REMARK  Name = *****
REMARK                            x       y       z     vdW  Elec       q    Type
REMARK                         _______ _______ _______ _____ _____    ______ ____
ROOT
ATOM      1  C   LIG    1       24.338 -15.472   3.737  0.00  0.00    +0.034 A 
ATOM      2  C   LIG    1       25.628 -15.825   3.339  0.00  0.00    +0.027 A 
ATOM      3  C   LIG    1       26.007 -17.159   3.310  0.00  0.00    +0.047 A 
ATOM      4  C   LIG    1       25.131 -18.177   3.693  0.00  0.00    +0.121 A 
ATOM      5  C   LIG    1       23.827 -17.835   4.052  0.00  0.00    +0.047 A 
ATOM      6  C   LIG    1       23.437 -16.485   4.068  0.00  0.00    +0.027 A 
ENDROOT
BRANCH   1   9
ATOM      7  C   LIG    1       23.971 -11.773   3.208  0.00  0.00    +0.109 C 
ATOM      8  C   LIG    1       24.484 -13.145   2.868  0.00  0.00    +0.214 C 
ATOM      9  N   LIG    1       24.065 -14.099   3.784  0.00  0.00    -0.286 N 
ATOM     10  H   LIG    1       23.482 -13.781   4.541  0.00  0.00    +0.155 HD
ATOM     11  O   LIG    1       25.162 -13.327   1.876  0.00  0.00    -0.276 OA
ENDBRANCH   1   9
BRANCH   4  12
ATOM     12  O   LIG    1       25.502 -19.503   3.748  0.00  0.00    -0.489 OA
BRANCH  12  13
ATOM     13  C   LIG    1       24.373 -20.398   3.705  0.00  0.00    +0.261 C 
BRANCH  13  14
ATOM     14  C   LIG    1       24.117 -21.099   5.036  0.00  0.00    +0.166 C 
BRANCH  14  15
ATOM     15  O   LIG    1       22.821 -20.794   5.558  0.00  0.00    -0.387 OA
ATOM     16  H   LIG    1       22.178 -21.309   5.041  0.00  0.00    +0.210 HD
ENDBRANCH  14  15
BRANCH  14  17
ATOM     17  C   LIG    1       25.188 -20.707   6.081  0.00  0.00    +0.115 C 
BRANCH  17  18
ATOM     18  N   LIG    1       26.554 -21.201   5.786  0.00  0.00    -0.311 NA
ATOM     19  H   LIG    1       26.709 -21.095   4.779  0.00  0.00    +0.122 HD
BRANCH  18  20
ATOM     20  C   LIG    1       27.584 -20.419   6.504  0.00  0.00    +0.048 C 
ATOM     21  C   LIG    1       28.214 -19.369   5.580  0.00  0.00    +0.024 C 
ATOM     22  C   LIG    1       28.686 -21.325   7.062  0.00  0.00    +0.024 C 
ENDBRANCH  18  20
ENDBRANCH  17  18
ENDBRANCH  14  17
ENDBRANCH  13  14
ENDBRANCH  12  13
ENDBRANCH   4  12
TORSDOF 8
ENDMDL
MODEL 5
REMARK VINA RESULT:      -3.9      2.593      5.363
REMARK  Name = *****
REMARK                            x       y       z     vdW  Elec       q    Type
REMARK                         _______ _______ _______ _____ _____    ______ ____
ROOT
ATOM      1  C   LIG    1       27.191 -16.751   3.831  0.00  0.00    +0.034 A 
ATOM      2  C   LIG    1       28.010 -17.566   4.612  0.00  0.00    +0.027 A 
ATOM      3  C   LIG    1       27.647 -18.881   4.865  0.00  0.00    +0.047 A 
ATOM      4  C   LIG    1       26.456 -19.419   4.371  0.00  0.00    +0.121 A 
ATOM      5  C   LIG    1       25.653 -18.623   3.554  0.00  0.00    +0.047 A 
ATOM      6  C   LIG    1       26.027 -17.295   3.286  0.00  0.00    +0.027 A 
ENDROOT
BRANCH   1   9
ATOM      7  C   LIG    1       27.598 -13.038   3.458  0.00  0.00    +0.109 C 
ATOM      8  C   LIG    1       26.801 -14.308   3.573  0.00  0.00    +0.214 C 
ATOM      9  N   LIG    1       27.615 -15.425   3.675  0.00  0.00    -0.286 N 
ATOM     10  H   LIG    1       28.610 -15.268   3.668  0.00  0.00    +0.155 HD
ATOM     11  O   LIG    1       25.586 -14.279   3.591  0.00  0.00    -0.276 OA
ENDBRANCH   1   9
BRANCH   4  12
ATOM     12  O   LIG    1       26.031 -20.696   4.668  0.00  0.00    -0.489 OA
BRANCH  12  13
ATOM     13  C   LIG    1       24.871 -20.711   5.523  0.00  0.00    +0.261 C 
BRANCH  13  14
ATOM     14  C   LIG    1       23.686 -21.449   4.908  0.00  0.00    +0.166 C 
BRANCH  14  15
ATOM     15  O   LIG    1       23.812 -21.571   3.489  0.00  0.00    -0.387 OA
ATOM     16  H   LIG    1       22.957 -21.310   3.105  0.00  0.00    +0.210 HD
ENDBRANCH  14  15
BRANCH  14  17
ATOM     17  C   LIG    1       22.356 -20.728   5.236  0.00  0.00    +0.115 C 
BRANCH  17  18
ATOM     18  N   LIG    1       22.492 -19.284   5.543  0.00  0.00    -0.311 NA
ATOM     19  H   LIG    1       23.440 -19.132   5.898  0.00  0.00    +0.122 HD
BRANCH  18  20
ATOM     20  C   LIG    1       22.302 -18.450   4.336  0.00  0.00    +0.048 C 
ATOM     21  C   LIG    1       22.269 -16.961   4.704  0.00  0.00    +0.024 C 
ATOM     22  C   LIG    1       21.008 -18.815   3.601  0.00  0.00    +0.024 C 
ENDBRANCH  18  20
ENDBRANCH  17  18
ENDBRANCH  14  17
ENDBRANCH  13  14
ENDBRANCH  12  13
ENDBRANCH   4  12
TORSDOF 8
ENDMDL
MODEL 6
REMARK VINA RESULT:      -3.8      2.853      4.691
REMARK  Name = *****
REMARK                            x       y       z     vdW  Elec       q    Type
REMARK                         _______ _______ _______ _____ _____    ______ ____
ROOT
ATOM      1  C   LIG    1       23.851 -18.854   3.921  0.00  0.00    +0.034 A 
ATOM      2  C   LIG    1       25.152 -19.237   3.596  0.00  0.00    +0.027 A 
ATOM      3  C   LIG    1       26.116 -18.275   3.332  0.00  0.00    +0.047 A 
ATOM      4  C   LIG    1       25.815 -16.911   3.362  0.00  0.00    +0.121 A 
ATOM      5  C   LIG    1       24.527 -16.520   3.727  0.00  0.00    +0.047 A 
ATOM      6  C   LIG    1       23.554 -17.494   4.007  0.00  0.00    +0.027 A 
ENDROOT
BRANCH   1   9
ATOM      7  C   LIG    1       21.583 -21.571   5.172  0.00  0.00    +0.109 C 
ATOM      8  C   LIG    1       22.647 -20.520   5.323  0.00  0.00    +0.214 C 
ATOM      9  N   LIG    1       22.937 -19.897   4.118  0.00  0.00    -0.286 N 
ATOM     10  H   LIG    1       22.419 -20.201   3.309  0.00  0.00    +0.155 HD
ATOM     11  O   LIG    1       23.135 -20.281   6.410  0.00  0.00    -0.276 OA
ENDBRANCH   1   9
BRANCH   4  12
ATOM     12  O   LIG    1       26.730 -15.934   3.030  0.00  0.00    -0.489 OA
BRANCH  12  13
ATOM     13  C   LIG    1       27.327 -15.317   4.188  0.00  0.00    +0.261 C 
BRANCH  13  14
ATOM     14  C   LIG    1       27.603 -13.829   3.994  0.00  0.00    +0.166 C 
BRANCH  14  15
ATOM     15  O   LIG    1       27.103 -13.048   5.082  0.00  0.00    -0.387 OA
ATOM     16  H   LIG    1       26.208 -13.377   5.280  0.00  0.00    +0.210 HD
ENDBRANCH  14  15
BRANCH  14  17
ATOM     17  C   LIG    1       26.975 -13.318   2.675  0.00  0.00    +0.115 C 
BRANCH  17  18
ATOM     18  N   LIG    1       25.499 -13.440   2.602  0.00  0.00    -0.311 NA
ATOM     19  H   LIG    1       25.252 -14.381   2.921  0.00  0.00    +0.122 HD
BRANCH  18  20
ATOM     20  C   LIG    1       24.827 -12.455   3.477  0.00  0.00    +0.048 C 
ATOM     21  C   LIG    1       23.901 -13.159   4.478  0.00  0.00    +0.024 C 
ATOM     22  C   LIG    1       24.011 -11.447   2.661  0.00  0.00    +0.024 C 
ENDBRANCH  18  20
ENDBRANCH  17  18
ENDBRANCH  14  17
ENDBRANCH  13  14
ENDBRANCH  12  13
ENDBRANCH   4  12
TORSDOF 8
ENDMDL
MODEL 7
REMARK VINA RESULT:      -3.3      2.795      4.604
REMARK  Name = *****
REMARK                            x       y       z     vdW  Elec       q    Type
REMARK                         _______ _______ _______ _____ _____    ______ ____
ROOT
ATOM      1  C   LIG    1       23.423 -17.928   4.122  0.00  0.00    +0.034 A 
ATOM      2  C   LIG    1       24.515 -17.183   3.675  0.00  0.00    +0.027 A 
ATOM      3  C   LIG    1       24.511 -15.801   3.794  0.00  0.00    +0.047 A 
ATOM      4  C   LIG    1       23.421 -15.117   4.338  0.00  0.00    +0.121 A 
ATOM      5  C   LIG    1       22.344 -15.858   4.825  0.00  0.00    +0.047 A 
ATOM      6  C   LIG    1       22.353 -17.259   4.717  0.00  0.00    +0.027 A 
ENDROOT
BRANCH   1   9
ATOM      7  C   LIG    1       24.294 -21.572   3.882  0.00  0.00    +0.109 C 
ATOM      8  C   LIG    1       24.579 -20.129   4.198  0.00  0.00    +0.214 C 
ATOM      9  N   LIG    1       23.497 -19.310   3.911  0.00  0.00    -0.286 N 
ATOM     10  H   LIG    1       22.671 -19.755   3.544  0.00  0.00    +0.155 HD
ATOM     11  O   LIG    1       25.648 -19.796   4.671  0.00  0.00    -0.276 OA
ENDBRANCH   1   9
BRANCH   4  12
ATOM     12  O   LIG    1       23.354 -13.741   4.400  0.00  0.00    -0.489 OA
BRANCH  12  13
ATOM     13  C   LIG    1       24.656 -13.122   4.407  0.00  0.00    +0.261 C 
BRANCH  13  14
ATOM     14  C   LIG    1       25.052 -12.552   3.048  0.00  0.00    +0.166 C 
BRANCH  14  15
ATOM     15  O   LIG    1       23.976 -12.614   2.109  0.00  0.00    -0.387 OA
ATOM     16  H   LIG    1       23.150 -12.615   2.624  0.00  0.00    +0.210 HD
ENDBRANCH  14  15
BRANCH  14  17
ATOM     17  C   LIG    1       26.272 -13.307   2.468  0.00  0.00    +0.115 C 
BRANCH  17  18
ATOM     18  N   LIG    1       27.583 -12.675   2.747  0.00  0.00    -0.311 NA
ATOM     19  H   LIG    1       27.402 -11.731   3.098  0.00  0.00    +0.122 HD
BRANCH  18  20
ATOM     20  C   LIG    1       28.341 -13.422   3.774  0.00  0.00    +0.048 C 
ATOM     21  C   LIG    1       27.749 -14.823   3.976  0.00  0.00    +0.024 C 
ATOM     22  C   LIG    1       28.347 -12.681   5.115  0.00  0.00    +0.024 C 
ENDBRANCH  18  20
ENDBRANCH  17  18
ENDBRANCH  14  17
ENDBRANCH  13  14
ENDBRANCH  12  13
ENDBRANCH   4  12
TORSDOF 8
ENDMDL
MODEL 8
REMARK VINA RESULT:      -2.9      2.304      5.127
REMARK  Name = *****
REMARK                            x       y       z     vdW  Elec       q    Type
REMARK                         _______ _______ _______ _____ _____    ______ ____
ROOT
ATOM      1  C   LIG    1       24.187 -20.458   5.223  0.00  0.00    +0.034 A 
ATOM      2  C   LIG    1       24.449 -20.618   6.583  0.00  0.00    +0.027 A 
ATOM      3  C   LIG    1       25.746 -20.504   7.062  0.00  0.00    +0.047 A 
ATOM      4  C   LIG    1       26.821 -20.248   6.207  0.00  0.00    +0.121 A 
ATOM      5  C   LIG    1       26.561 -20.044   4.852  0.00  0.00    +0.047 A 
ATOM      6  C   LIG    1       25.246 -20.147   4.368  0.00  0.00    +0.027 A 
ENDROOT
BRANCH   1   9
ATOM      7  C   LIG    1       20.626 -20.214   4.062  0.00  0.00    +0.109 C 
ATOM      8  C   LIG    1       21.958 -19.650   4.471  0.00  0.00    +0.214 C 
ATOM      9  N   LIG    1       22.857 -20.643   4.829  0.00  0.00    -0.286 N 
ATOM     10  H   LIG    1       22.532 -21.596   4.771  0.00  0.00    +0.155 HD
ATOM     11  O   LIG    1       22.160 -18.452   4.443  0.00  0.00    -0.276 OA
ENDBRANCH   1   9
BRANCH   4  12
ATOM     12  O   LIG    1       28.129 -20.205   6.640  0.00  0.00    -0.489 OA
BRANCH  12  13
ATOM     13  C   LIG    1       29.058 -19.925   5.574  0.00  0.00    +0.261 C 
BRANCH  13  14
ATOM     14  C   LIG    1       29.451 -18.453   5.496  0.00  0.00    +0.166 C 
BRANCH  14  15
ATOM     15  O   LIG    1       29.452 -17.832   6.784  0.00  0.00    -0.387 OA
ATOM     16  H   LIG    1       30.169 -17.174   6.781  0.00  0.00    +0.210 HD
ENDBRANCH  14  15
BRANCH  14  17
ATOM     17  C   LIG    1       28.492 -17.675   4.562  0.00  0.00    +0.115 C 
BRANCH  17  18
ATOM     18  N   LIG    1       28.285 -16.254   4.930  0.00  0.00    -0.311 NA
ATOM     19  H   LIG    1       29.208 -15.826   5.040  0.00  0.00    +0.122 HD
BRANCH  18  20
ATOM     20  C   LIG    1       27.549 -15.521   3.877  0.00  0.00    +0.048 C 
ATOM     21  C   LIG    1       27.140 -14.126   4.370  0.00  0.00    +0.024 C 
ATOM     22  C   LIG    1       26.297 -16.283   3.434  0.00  0.00    +0.024 C 
ENDBRANCH  18  20
ENDBRANCH  17  18
ENDBRANCH  14  17
ENDBRANCH  13  14
ENDBRANCH  12  13
ENDBRANCH   4  12
TORSDOF 8
ENDMDL
MODEL 9
REMARK VINA RESULT:      -2.6      3.098      4.629
REMARK  Name = *****
REMARK                            x       y       z     vdW  Elec       q    Type
REMARK                         _______ _______ _______ _____ _____    ______ ____
ROOT
ATOM      1  C   LIG    1       23.214 -18.251   4.142  0.00  0.00    +0.034 A 
ATOM      2  C   LIG    1       24.510 -18.260   3.627  0.00  0.00    +0.027 A 
ATOM      3  C   LIG    1       25.176 -17.065   3.396  0.00  0.00    +0.047 A 
ATOM      4  C   LIG    1       24.573 -15.831   3.647  0.00  0.00    +0.121 A 
ATOM      5  C   LIG    1       23.293 -15.815   4.201  0.00  0.00    +0.047 A 
ATOM      6  C   LIG    1       22.622 -17.025   4.448  0.00  0.00    +0.027 A 
ENDROOT
BRANCH   1   9
ATOM      7  C   LIG    1       21.851 -21.572   5.242  0.00  0.00    +0.109 C 
ATOM      8  C   LIG    1       22.656 -20.313   5.416  0.00  0.00    +0.214 C 
ATOM      9  N   LIG    1       22.605 -19.503   4.292  0.00  0.00    -0.286 N 
ATOM     10  H   LIG    1       22.053 -19.832   3.516  0.00  0.00    +0.155 HD
ATOM     11  O   LIG    1       23.237 -20.087   6.459  0.00  0.00    -0.276 OA
ENDBRANCH   1   9
BRANCH   4  12
ATOM     12  O   LIG    1       25.178 -14.627   3.356  0.00  0.00    -0.489 OA
BRANCH  12  13
ATOM     13  C   LIG    1       24.244 -13.531   3.312  0.00  0.00    +0.261 C 
BRANCH  13  14
ATOM     14  C   LIG    1       24.297 -12.652   4.558  0.00  0.00    +0.166 C 
BRANCH  14  15
ATOM     15  O   LIG    1       23.545 -11.447   4.393  0.00  0.00    -0.387 OA
ATOM     16  H   LIG    1       24.141 -10.709   4.612  0.00  0.00    +0.210 HD
ENDBRANCH  14  15
BRANCH  14  17
ATOM     17  C   LIG    1       25.759 -12.290   4.915  0.00  0.00    +0.115 C 
BRANCH  17  18
ATOM     18  N   LIG    1       26.540 -13.391   5.525  0.00  0.00    -0.311 NA
ATOM     19  H   LIG    1       25.993 -14.250   5.424  0.00  0.00    +0.122 HD
BRANCH  18  20
ATOM     20  C   LIG    1       27.841 -13.579   4.847  0.00  0.00    +0.048 C 
ATOM     21  C   LIG    1       27.986 -12.605   3.670  0.00  0.00    +0.024 C 
ATOM     22  C   LIG    1       28.004 -15.013   4.335  0.00  0.00    +0.024 C 
ENDBRANCH  18  20
ENDBRANCH  17  18
ENDBRANCH  14  17
ENDBRANCH  13  14
ENDBRANCH  12  13
ENDBRANCH   4  12
TORSDOF 8
ENDMDL
