MODEL 1
REMARK VINA RESULT:      -5.0      0.000      0.000
REMARK  Name = *****
REMARK                            x       y       z     vdW  Elec       q    Type
REMARK                         _______ _______ _______ _____ _____    ______ ____
ROOT
ATOM      1  O   LIG    1       29.475 -18.203   5.562  0.00  0.00    -0.265 OA
ATOM      2  C   LIG    1       28.372 -18.563   5.171  0.00  0.00    +0.289 C 
ATOM      3  C   LIG    1       27.727 -19.807   5.633  0.00  0.00    +0.204 C 
ATOM      4  F   LIG    1       28.391 -20.559   6.530  0.00  0.00    -0.198 F 
ATOM      5  C   LIG    1       26.532 -20.151   5.156  0.00  0.00    +0.137 C 
ATOM      6  N   LIG    1       25.863 -19.367   4.231  0.00  0.00    -0.271 N 
ATOM      7  C   LIG    1       26.418 -18.185   3.744  0.00  0.00    +0.332 C 
ATOM      8  O   LIG    1       25.885 -17.473   2.897  0.00  0.00    -0.246 OA
ATOM      9  N   LIG    1       27.643 -17.843   4.261  0.00  0.00    -0.273 N 
ATOM     10  H   LIG    1       28.057 -16.992   3.917  0.00  0.00    +0.173 HD
ENDROOT
BRANCH   6  11
ATOM     11  C   LIG    1       24.561 -19.754   3.688  0.00  0.00    +0.223 C 
ATOM     12  O   LIG    1       23.579 -18.733   3.946  0.00  0.00    -0.356 OA
ATOM     13  C   LIG    1       22.507 -19.313   4.700  0.00  0.00    +0.162 C 
ATOM     14  C   LIG    1       23.071 -20.552   5.354  0.00  0.00    +0.033 C 
ATOM     15  C   LIG    1       24.025 -21.048   4.296  0.00  0.00    +0.057 C 
ENDBRANCH   6  11
TORSDOF 1
ENDMDL
MODEL 2
REMARK VINA RESULT:      -4.3      2.174      2.719
REMARK  Name = *****
REMARK                            x       y       z     vdW  Elec       q    Type
REMARK                         _______ _______ _______ _____ _____    ______ ____
ROOT
ATOM      1  O   LIG    1       29.422 -17.965   5.413  0.00  0.00    -0.265 OA
ATOM      2  C   LIG    1       28.441 -18.698   5.381  0.00  0.00    +0.289 C 
ATOM      3  C   LIG    1       27.300 -18.468   4.476  0.00  0.00    +0.204 C 
ATOM      4  F   LIG    1       27.363 -17.408   3.648  0.00  0.00    -0.198 F 
ATOM      5  C   LIG    1       26.255 -19.293   4.503  0.00  0.00    +0.137 C 
ATOM      6  N   LIG    1       26.205 -20.377   5.363  0.00  0.00    -0.271 N 
ATOM      7  C   LIG    1       27.242 -20.647   6.253  0.00  0.00    +0.332 C 
ATOM      8  O   LIG    1       27.232 -21.571   7.062  0.00  0.00    -0.246 OA
ATOM      9  N   LIG    1       28.315 -19.793   6.196  0.00  0.00    -0.273 N 
ATOM     10  H   LIG    1       29.073 -19.975   6.835  0.00  0.00    +0.173 HD
ENDROOT
BRANCH   6  11
ATOM     11  C   LIG    1       25.048 -21.271   5.412  0.00  0.00    +0.223 C 
ATOM     12  O   LIG    1       24.301 -21.204   4.182  0.00  0.00    -0.356 OA
ATOM     13  C   LIG    1       22.959 -20.804   4.485  0.00  0.00    +0.162 C 
ATOM     14  C   LIG    1       23.014 -20.121   5.831  0.00  0.00    +0.033 C 
ATOM     15  C   LIG    1       24.077 -20.925   6.538  0.00  0.00    +0.057 C 
ENDBRANCH   6  11
TORSDOF 1
ENDMDL
MODEL 3
REMARK VINA RESULT:      -4.2      1.928      2.704
REMARK  Name = *****
REMARK                            x       y       z     vdW  Elec       q    Type
REMARK                         _______ _______ _______ _____ _____    ______ ____
ROOT
ATOM      1  O   LIG    1       28.574 -20.165   7.062  0.00  0.00    -0.265 OA
ATOM      2  C   LIG    1       27.520 -20.243   6.443  0.00  0.00    +0.289 C 
ATOM      3  C   LIG    1       27.338 -19.667   5.098  0.00  0.00    +0.204 C 
ATOM      4  F   LIG    1       28.391 -19.042   4.538  0.00  0.00    -0.198 F 
ATOM      5  C   LIG    1       26.160 -19.772   4.485  0.00  0.00    +0.137 C 
ATOM      6  N   LIG    1       25.087 -20.417   5.076  0.00  0.00    -0.271 N 
ATOM      7  C   LIG    1       25.185 -20.974   6.349  0.00  0.00    +0.332 C 
ATOM      8  O   LIG    1       24.254 -21.523   6.934  0.00  0.00    -0.246 OA
ATOM      9  N   LIG    1       26.413 -20.868   6.954  0.00  0.00    -0.273 N 
ATOM     10  H   LIG    1       26.498 -21.264   7.876  0.00  0.00    +0.173 HD
ENDROOT
BRANCH   6  11
ATOM     11  C   LIG    1       23.785 -20.513   4.415  0.00  0.00    +0.223 C 
ATOM     12  O   LIG    1       23.650 -19.493   3.407  0.00  0.00    -0.356 OA
ATOM     13  C   LIG    1       22.503 -18.693   3.719  0.00  0.00    +0.162 C 
ATOM     14  C   LIG    1       22.237 -18.890   5.193  0.00  0.00    +0.033 C 
ATOM     15  C   LIG    1       22.615 -20.339   5.380  0.00  0.00    +0.057 C 
ENDBRANCH   6  11
TORSDOF 1
ENDMDL
MODEL 4
REMARK VINA RESULT:      -3.6      4.643      6.030
REMARK  Name = *****
REMARK                            x       y       z     vdW  Elec       q    Type
REMARK                         _______ _______ _______ _____ _____    ______ ____
ROOT
ATOM      1  O   LIG    1       24.283 -18.684   3.584  0.00  0.00    -0.265 OA
ATOM      2  C   LIG    1       24.497 -17.482   3.681  0.00  0.00    +0.289 C 
ATOM      3  C   LIG    1       23.490 -16.527   4.177  0.00  0.00    +0.204 C 
ATOM      4  F   LIG    1       22.292 -17.018   4.546  0.00  0.00    -0.198 F 
ATOM      5  C   LIG    1       23.781 -15.229   4.242  0.00  0.00    +0.137 C 
ATOM      6  N   LIG    1       25.018 -14.740   3.857  0.00  0.00    -0.271 N 
ATOM      7  C   LIG    1       26.012 -15.584   3.368  0.00  0.00    +0.332 C 
ATOM      8  O   LIG    1       27.112 -15.198   2.977  0.00  0.00    -0.246 OA
ATOM      9  N   LIG    1       25.695 -16.919   3.325  0.00  0.00    -0.273 N 
ATOM     10  H   LIG    1       26.404 -17.541   2.972  0.00  0.00    +0.173 HD
ENDROOT
BRANCH   6  11
ATOM     11  C   LIG    1       25.332 -13.312   3.905  0.00  0.00    +0.223 C 
ATOM     12  O   LIG    1       24.294 -12.586   4.589  0.00  0.00    -0.356 OA
ATOM     13  C   LIG    1       23.770 -11.593   3.698  0.00  0.00    +0.162 C 
ATOM     14  C   LIG    1       24.120 -12.050   2.301  0.00  0.00    +0.033 C 
ATOM     15  C   LIG    1       25.470 -12.687   2.518  0.00  0.00    +0.057 C 
ENDBRANCH   6  11
TORSDOF 1
ENDMDL
MODEL 5
REMARK VINA RESULT:      -3.5      2.357      4.555
REMARK  Name = *****
REMARK                            x       y       z     vdW  Elec       q    Type
REMARK                         _______ _______ _______ _____ _____    ______ ____
ROOT
ATOM      1  O   LIG    1       21.746 -18.791   4.454  0.00  0.00    -0.265 OA
ATOM      2  C   LIG    1       22.892 -19.200   4.598  0.00  0.00    +0.289 C 
ATOM      3  C   LIG    1       23.253 -20.239   5.580  0.00  0.00    +0.204 C 
ATOM      4  F   LIG    1       22.265 -20.755   6.335  0.00  0.00    -0.198 F 
ATOM      5  C   LIG    1       24.521 -20.628   5.698  0.00  0.00    +0.137 C 
ATOM      6  N   LIG    1       25.526 -20.085   4.915  0.00  0.00    -0.271 N 
ATOM      7  C   LIG    1       25.257 -19.092   3.975  0.00  0.00    +0.332 C 
ATOM      8  O   LIG    1       26.116 -18.551   3.283  0.00  0.00    -0.246 OA
ATOM      9  N   LIG    1       23.941 -18.719   3.860  0.00  0.00    -0.273 N 
ATOM     10  H   LIG    1       23.733 -18.000   3.185  0.00  0.00    +0.173 HD
ENDROOT
BRANCH   6  11
ATOM     11  C   LIG    1       26.923 -20.493   5.060  0.00  0.00    +0.223 C 
ATOM     12  O   LIG    1       27.043 -21.569   6.010  0.00  0.00    -0.356 OA
ATOM     13  C   LIG    1       27.923 -21.151   7.062  0.00  0.00    +0.162 C 
ATOM     14  C   LIG    1       27.931 -19.640   7.032  0.00  0.00    +0.033 C 
ATOM     15  C   LIG    1       27.824 -19.364   5.553  0.00  0.00    +0.057 C 
ENDBRANCH   6  11
TORSDOF 1
ENDMDL
MODEL 6
REMARK VINA RESULT:      -3.3      4.380      5.529
REMARK  Name = *****
REMARK                            x       y       z     vdW  Elec       q    Type
REMARK                         _______ _______ _______ _____ _____    ______ ____
ROOT
ATOM      1  O   LIG    1       28.065 -17.907   4.392  0.00  0.00    -0.265 OA
ATOM      2  C   LIG    1       27.561 -16.827   4.110  0.00  0.00    +0.289 C 
ATOM      3  C   LIG    1       26.234 -16.706   3.476  0.00  0.00    +0.204 C 
ATOM      4  F   LIG    1       25.560 -17.841   3.214  0.00  0.00    -0.198 F 
ATOM      5  C   LIG    1       25.749 -15.501   3.180  0.00  0.00    +0.137 C 
ATOM      6  N   LIG    1       26.457 -14.343   3.454  0.00  0.00    -0.271 N 
ATOM      7  C   LIG    1       27.720 -14.385   4.040  0.00  0.00    +0.332 C 
ATOM      8  O   LIG    1       28.405 -13.391   4.270  0.00  0.00    -0.246 OA
ATOM      9  N   LIG    1       28.192 -15.636   4.352  0.00  0.00    -0.273 N 
ATOM     10  H   LIG    1       29.106 -15.681   4.775  0.00  0.00    +0.173 HD
ENDROOT
BRANCH   6  11
ATOM     11  C   LIG    1       25.937 -13.020   3.107  0.00  0.00    +0.223 C 
ATOM     12  O   LIG    1       25.213 -12.452   4.216  0.00  0.00    -0.356 OA
ATOM     13  C   LIG    1       23.873 -12.175   3.791  0.00  0.00    +0.162 C 
ATOM     14  C   LIG    1       23.621 -13.051   2.585  0.00  0.00    +0.033 C 
ATOM     15  C   LIG    1       24.976 -13.051   1.921  0.00  0.00    +0.057 C 
ENDBRANCH   6  11
TORSDOF 1
ENDMDL
MODEL 7
REMARK VINA RESULT:      -3.2      1.740      2.311
REMARK  Name = *****
REMARK                            x       y       z     vdW  Elec       q    Type
REMARK                         _______ _______ _______ _____ _____    ______ ____
ROOT
ATOM      1  O   LIG    1       27.277 -16.666   3.313  0.00  0.00    -0.265 OA
ATOM      2  C   LIG    1       26.779 -17.704   3.730  0.00  0.00    +0.289 C 
ATOM      3  C   LIG    1       27.454 -18.578   4.707  0.00  0.00    +0.204 C 
ATOM      4  F   LIG    1       28.663 -18.196   5.157  0.00  0.00    -0.198 F 
ATOM      5  C   LIG    1       26.865 -19.704   5.108  0.00  0.00    +0.137 C 
ATOM      6  N   LIG    1       25.621 -20.084   4.633  0.00  0.00    -0.271 N 
ATOM      7  C   LIG    1       24.932 -19.312   3.700  0.00  0.00    +0.332 C 
ATOM      8  O   LIG    1       23.845 -19.622   3.219  0.00  0.00    -0.246 OA
ATOM      9  N   LIG    1       25.551 -18.149   3.314  0.00  0.00    -0.273 N 
ATOM     10  H   LIG    1       25.066 -17.581   2.638  0.00  0.00    +0.173 HD
ENDROOT
BRANCH   6  11
ATOM     11  C   LIG    1       24.982 -21.332   5.053  0.00  0.00    +0.223 C 
ATOM     12  O   LIG    1       23.581 -21.322   4.722  0.00  0.00    -0.356 OA
ATOM     13  C   LIG    1       22.827 -21.500   5.928  0.00  0.00    +0.162 C 
ATOM     14  C   LIG    1       23.740 -21.097   7.062  0.00  0.00    +0.033 C 
ATOM     15  C   LIG    1       25.080 -21.572   6.558  0.00  0.00    +0.057 C 
ENDBRANCH   6  11
TORSDOF 1
ENDMDL
MODEL 8
REMARK VINA RESULT:      -3.0      2.954      4.677
REMARK  Name = *****
REMARK                            x       y       z     vdW  Elec       q    Type
REMARK                         _______ _______ _______ _____ _____    ______ ____
ROOT
ATOM      1  O   LIG    1       25.609 -20.860   4.616  0.00  0.00    -0.265 OA
ATOM      2  C   LIG    1       25.899 -19.704   4.334  0.00  0.00    +0.289 C 
ATOM      3  C   LIG    1       24.982 -18.802   3.614  0.00  0.00    +0.204 C 
ATOM      4  F   LIG    1       23.774 -19.284   3.269  0.00  0.00    -0.198 F 
ATOM      5  C   LIG    1       25.366 -17.560   3.323  0.00  0.00    +0.137 C 
ATOM      6  N   LIG    1       26.614 -17.080   3.683  0.00  0.00    -0.271 N 
ATOM      7  C   LIG    1       27.534 -17.882   4.355  0.00  0.00    +0.332 C 
ATOM      8  O   LIG    1       28.667 -17.519   4.664  0.00  0.00    -0.246 OA
ATOM      9  N   LIG    1       27.111 -19.152   4.658  0.00  0.00    -0.273 N 
ATOM     10  H   LIG    1       27.767 -19.744   5.143  0.00  0.00    +0.173 HD
ENDROOT
BRANCH   6  11
ATOM     11  C   LIG    1       27.048 -15.725   3.344  0.00  0.00    +0.223 C 
ATOM     12  O   LIG    1       27.718 -15.111   4.462  0.00  0.00    -0.356 OA
ATOM     13  C   LIG    1       27.019 -13.908   4.807  0.00  0.00    +0.162 C 
ATOM     14  C   LIG    1       25.624 -14.052   4.244  0.00  0.00    +0.033 C 
ATOM     15  C   LIG    1       25.888 -14.807   2.965  0.00  0.00    +0.057 C 
ENDBRANCH   6  11
TORSDOF 1
ENDMDL
MODEL 9
REMARK VINA RESULT:      -2.9      3.228      3.930
REMARK  Name = *****
REMARK                            x       y       z     vdW  Elec       q    Type
REMARK                         _______ _______ _______ _____ _____    ______ ____
ROOT
ATOM      1  O   LIG    1       25.106 -13.743   3.930  0.00  0.00    -0.265 OA
ATOM      2  C   LIG    1       24.848 -14.940   3.889  0.00  0.00    +0.289 C 
ATOM      3  C   LIG    1       25.813 -15.949   3.415  0.00  0.00    +0.204 C 
ATOM      4  F   LIG    1       27.027 -15.519   3.025  0.00  0.00    -0.198 F 
ATOM      5  C   LIG    1       25.464 -17.235   3.380  0.00  0.00    +0.137 C 
ATOM      6  N   LIG    1       24.209 -17.660   3.783  0.00  0.00    -0.271 N 
ATOM      7  C   LIG    1       23.246 -16.759   4.231  0.00  0.00    +0.332 C 
ATOM      8  O   LIG    1       22.107 -17.079   4.564  0.00  0.00    -0.246 OA
ATOM      9  N   LIG    1       23.633 -15.443   4.274  0.00  0.00    -0.273 N 
ATOM     10  H   LIG    1       22.946 -14.779   4.595  0.00  0.00    +0.173 HD
ENDROOT
BRANCH   6  11
ATOM     11  C   LIG    1       23.815 -19.068   3.723  0.00  0.00    +0.223 C 
ATOM     12  O   LIG    1       23.141 -19.459   4.934  0.00  0.00    -0.356 OA
ATOM     13  C   LIG    1       23.863 -20.547   5.526  0.00  0.00    +0.162 C 
ATOM     14  C   LIG    1       25.264 -20.481   4.963  0.00  0.00    +0.033 C 
ATOM     15  C   LIG    1       25.004 -20.011   3.553  0.00  0.00    +0.057 C 
ENDBRANCH   6  11
TORSDOF 1
ENDMDL
