MODEL 1
REMARK VINA RESULT:      -7.6      0.000      0.000
REMARK  Name = *****
REMARK                            x       y       z     vdW  Elec       q    Type
REMARK                         _______ _______ _______ _____ _____    ______ ____
ROOT
ATOM      1  N   LIG    1       25.118 -21.018   5.002  0.00  0.00    -0.331 N 
ATOM      2  C   LIG    1       26.326 -20.860   5.722  0.00  0.00    +0.145 A 
ATOM      3  C   LIG    1       26.632 -21.769   6.740  0.00  0.00    +0.065 A 
ATOM      4  C   LIG    1       27.823 -21.640   7.456  0.00  0.00    +0.017 A 
ATOM      5  C   LIG    1       28.690 -20.603   7.138  0.00  0.00    +0.024 A 
ATOM      6  C   LIG    1       28.335 -19.731   6.115  0.00  0.00    +0.041 A 
ATOM      7  C   LIG    1       29.243 -18.596   5.746  0.00  0.00    +0.065 C 
ATOM      8  C   LIG    1       25.693 -22.867   7.052  0.00  0.00    +0.205 A 
ATOM      9  O   LIG    1       25.932 -23.685   7.940  0.00  0.00    -0.286 OA
ATOM     10  C   LIG    1       24.440 -22.969   6.273  0.00  0.00    +0.122 A 
ATOM     11  N   LIG    1       27.174 -19.846   5.422  0.00  0.00    -0.234 NA
ATOM     12  C   LIG    1       24.247 -22.045   5.320  0.00  0.00    +0.106 A 
ENDROOT
BRANCH   1  14
ATOM     13  C   LIG    1       23.469 -19.410   4.123  0.00  0.00    +0.027 C 
ATOM     14  C   LIG    1       24.847 -20.032   3.948  0.00  0.00    +0.120 C 
ENDBRANCH   1  14
BRANCH  10  15
ATOM     15  C   LIG    1       23.423 -24.019   6.487  0.00  0.00    +0.342 C 
ATOM     16  O   LIG    1       23.682 -25.214   6.484  0.00  0.00    -0.245 OA
BRANCH  15  17
ATOM     17  O   LIG    1       22.172 -23.555   6.689  0.00  0.00    -0.477 OA
ATOM     18  H   LIG    1       21.997 -23.256   7.616  0.00  0.00    +0.295 HD
ENDBRANCH  15  17
ENDBRANCH  10  15
TORSDOF 3
ENDMDL
MODEL 2
REMARK VINA RESULT:      -7.3      2.731      5.078
REMARK  Name = *****
REMARK                            x       y       z     vdW  Elec       q    Type
REMARK                         _______ _______ _______ _____ _____    ______ ____
ROOT
ATOM      1  N   LIG    1       26.270 -20.126   5.100  0.00  0.00    -0.331 N 
ATOM      2  C   LIG    1       25.784 -21.047   6.057  0.00  0.00    +0.145 A 
ATOM      3  C   LIG    1       26.591 -21.379   7.151  0.00  0.00    +0.065 A 
ATOM      4  C   LIG    1       26.128 -22.275   8.114  0.00  0.00    +0.017 A 
ATOM      5  C   LIG    1       24.860 -22.825   7.967  0.00  0.00    +0.024 A 
ATOM      6  C   LIG    1       24.101 -22.457   6.862  0.00  0.00    +0.041 A 
ATOM      7  C   LIG    1       22.730 -23.032   6.667  0.00  0.00    +0.065 C 
ATOM      8  C   LIG    1       27.933 -20.774   7.284  0.00  0.00    +0.205 A 
ATOM      9  O   LIG    1       28.668 -21.042   8.233  0.00  0.00    -0.286 OA
ATOM     10  C   LIG    1       28.390 -19.829   6.241  0.00  0.00    +0.122 A 
ATOM     11  N   LIG    1       24.551 -21.592   5.918  0.00  0.00    -0.234 NA
ATOM     12  C   LIG    1       27.535 -19.582   5.237  0.00  0.00    +0.106 A 
ENDROOT
BRANCH   1  14
ATOM     13  C   LIG    1       25.557 -18.377   3.517  0.00  0.00    +0.027 C 
ATOM     14  C   LIG    1       25.382 -19.818   3.972  0.00  0.00    +0.120 C 
ENDBRANCH   1  14
BRANCH  10  15
ATOM     15  C   LIG    1       29.705 -19.158   6.260  0.00  0.00    +0.342 C 
ATOM     16  O   LIG    1       29.885 -18.021   5.848  0.00  0.00    -0.245 OA
BRANCH  15  17
ATOM     17  O   LIG    1       30.707 -19.902   6.775  0.00  0.00    -0.477 OA
ATOM     18  H   LIG    1       31.390 -19.378   7.263  0.00  0.00    +0.295 HD
ENDBRANCH  15  17
ENDBRANCH  10  15
TORSDOF 3
ENDMDL
MODEL 3
REMARK VINA RESULT:      -7.1      3.463      5.509
REMARK  Name = *****
REMARK                            x       y       z     vdW  Elec       q    Type
REMARK                         _______ _______ _______ _____ _____    ______ ____
ROOT
ATOM      1  N   LIG    1       26.820 -21.664   7.378  0.00  0.00    -0.331 N 
ATOM      2  C   LIG    1       26.323 -20.939   6.269  0.00  0.00    +0.145 A 
ATOM      3  C   LIG    1       27.152 -20.000   5.646  0.00  0.00    +0.065 A 
ATOM      4  C   LIG    1       26.688 -19.282   4.543  0.00  0.00    +0.017 A 
ATOM      5  C   LIG    1       25.399 -19.517   4.081  0.00  0.00    +0.024 A 
ATOM      6  C   LIG    1       24.621 -20.464   4.738  0.00  0.00    +0.041 A 
ATOM      7  C   LIG    1       23.223 -20.742   4.271  0.00  0.00    +0.065 C 
ATOM      8  C   LIG    1       28.521 -19.775   6.155  0.00  0.00    +0.205 A 
ATOM      9  O   LIG    1       29.277 -18.959   5.630  0.00  0.00    -0.286 OA
ATOM     10  C   LIG    1       28.976 -20.555   7.327  0.00  0.00    +0.122 A 
ATOM     11  N   LIG    1       25.064 -21.158   5.815  0.00  0.00    -0.234 NA
ATOM     12  C   LIG    1       28.100 -21.428   7.847  0.00  0.00    +0.106 A 
ENDROOT
BRANCH   1  14
ATOM     13  C   LIG    1       25.896 -23.944   7.221  0.00  0.00    +0.027 C 
ATOM     14  C   LIG    1       25.904 -22.633   7.994  0.00  0.00    +0.120 C 
ENDBRANCH   1  14
BRANCH  10  15
ATOM     15  C   LIG    1       30.318 -20.424   7.930  0.00  0.00    +0.342 C 
ATOM     16  O   LIG    1       30.542 -20.612   9.118  0.00  0.00    -0.245 OA
BRANCH  15  17
ATOM     17  O   LIG    1       31.292 -20.078   7.062  0.00  0.00    -0.477 OA
ATOM     18  H   LIG    1       31.824 -20.842   6.727  0.00  0.00    +0.295 HD
ENDBRANCH  15  17
ENDBRANCH  10  15
TORSDOF 3
ENDMDL
MODEL 4
REMARK VINA RESULT:      -6.9      2.531      3.764
REMARK  Name = *****
REMARK                            x       y       z     vdW  Elec       q    Type
REMARK                         _______ _______ _______ _____ _____    ______ ____
ROOT
ATOM      1  N   LIG    1       26.007 -22.109   6.715  0.00  0.00    -0.331 N 
ATOM      2  C   LIG    1       27.174 -21.310   6.695  0.00  0.00    +0.145 A 
ATOM      3  C   LIG    1       27.249 -20.240   5.797  0.00  0.00    +0.065 A 
ATOM      4  C   LIG    1       28.385 -19.431   5.768  0.00  0.00    +0.017 A 
ATOM      5  C   LIG    1       29.429 -19.705   6.642  0.00  0.00    +0.024 A 
ATOM      6  C   LIG    1       29.299 -20.780   7.515  0.00  0.00    +0.041 A 
ATOM      7  C   LIG    1       30.406 -21.111   8.470  0.00  0.00    +0.065 C 
ATOM      8  C   LIG    1       26.120 -19.967   4.883  0.00  0.00    +0.205 A 
ATOM      9  O   LIG    1       26.151 -19.034   4.082  0.00  0.00    -0.286 OA
ATOM     10  C   LIG    1       24.933 -20.848   4.942  0.00  0.00    +0.122 A 
ATOM     11  N   LIG    1       28.200 -21.575   7.540  0.00  0.00    -0.234 NA
ATOM     12  C   LIG    1       24.968 -21.844   5.840  0.00  0.00    +0.106 A 
ENDROOT
BRANCH   1  14
ATOM     13  C   LIG    1       25.764 -24.549   6.966  0.00  0.00    +0.027 C 
ATOM     14  C   LIG    1       25.986 -23.220   7.674  0.00  0.00    +0.120 C 
ENDBRANCH   1  14
BRANCH  10  15
ATOM     15  C   LIG    1       23.742 -20.681   4.085  0.00  0.00    +0.342 C 
ATOM     16  O   LIG    1       22.621 -20.472   4.526  0.00  0.00    -0.245 OA
BRANCH  15  17
ATOM     17  O   LIG    1       23.986 -20.775   2.761  0.00  0.00    -0.477 OA
ATOM     18  H   LIG    1       24.379 -19.958   2.363  0.00  0.00    +0.295 HD
ENDBRANCH  15  17
ENDBRANCH  10  15
TORSDOF 3
ENDMDL
MODEL 5
REMARK VINA RESULT:      -6.7      2.802      4.902
REMARK  Name = *****
REMARK                            x       y       z     vdW  Elec       q    Type
REMARK                         _______ _______ _______ _____ _____    ______ ____
ROOT
ATOM      1  N   LIG    1       24.519 -21.357   6.923  0.00  0.00    -0.331 N 
ATOM      2  C   LIG    1       24.338 -20.498   5.814  0.00  0.00    +0.145 A 
ATOM      3  C   LIG    1       25.461 -19.921   5.212  0.00  0.00    +0.065 A 
ATOM      4  C   LIG    1       25.308 -19.080   4.109  0.00  0.00    +0.017 A 
ATOM      5  C   LIG    1       24.029 -18.831   3.625  0.00  0.00    +0.024 A 
ATOM      6  C   LIG    1       22.950 -19.433   4.262  0.00  0.00    +0.041 A 
ATOM      7  C   LIG    1       21.555 -19.185   3.772  0.00  0.00    +0.065 C 
ATOM      8  C   LIG    1       26.809 -20.209   5.744  0.00  0.00    +0.205 A 
ATOM      9  O   LIG    1       27.819 -19.721   5.238  0.00  0.00    -0.286 OA
ATOM     10  C   LIG    1       26.931 -21.104   6.915  0.00  0.00    +0.122 A 
ATOM     11  N   LIG    1       23.093 -20.245   5.340  0.00  0.00    -0.234 NA
ATOM     12  C   LIG    1       25.789 -21.601   7.414  0.00  0.00    +0.106 A 
ENDROOT
BRANCH   1  14
ATOM     13  C   LIG    1       22.969 -23.273   6.885  0.00  0.00    +0.027 C 
ATOM     14  C   LIG    1       23.304 -21.930   7.517  0.00  0.00    +0.120 C 
ENDBRANCH   1  14
BRANCH  10  15
ATOM     15  C   LIG    1       28.219 -21.470   7.539  0.00  0.00    +0.342 C 
ATOM     16  O   LIG    1       28.338 -21.733   8.728  0.00  0.00    -0.245 OA
BRANCH  15  17
ATOM     17  O   LIG    1       29.267 -21.493   6.690  0.00  0.00    -0.477 OA
ATOM     18  H   LIG    1       29.517 -20.605   6.331  0.00  0.00    +0.295 HD
ENDBRANCH  15  17
ENDBRANCH  10  15
TORSDOF 3
ENDMDL
MODEL 6
REMARK VINA RESULT:      -6.6      3.862      5.521
REMARK  Name = *****
REMARK                            x       y       z     vdW  Elec       q    Type
REMARK                         _______ _______ _______ _____ _____    ______ ____
ROOT
ATOM      1  N   LIG    1       27.899 -21.460   7.205  0.00  0.00    -0.331 N 
ATOM      2  C   LIG    1       28.093 -20.327   6.381  0.00  0.00    +0.145 A 
ATOM      3  C   LIG    1       29.308 -19.637   6.451  0.00  0.00    +0.065 A 
ATOM      4  C   LIG    1       29.527 -18.524   5.639  0.00  0.00    +0.017 A 
ATOM      5  C   LIG    1       28.524 -18.119   4.767  0.00  0.00    +0.024 A 
ATOM      6  C   LIG    1       27.338 -18.844   4.738  0.00  0.00    +0.041 A 
ATOM      7  C   LIG    1       26.231 -18.437   3.813  0.00  0.00    +0.065 C 
ATOM      8  C   LIG    1       30.359 -20.093   7.384  0.00  0.00    +0.205 A 
ATOM      9  O   LIG    1       31.440 -19.512   7.470  0.00  0.00    -0.286 OA
ATOM     10  C   LIG    1       30.090 -21.277   8.230  0.00  0.00    +0.122 A 
ATOM     11  N   LIG    1       27.117 -19.922   5.532  0.00  0.00    -0.234 NA
ATOM     12  C   LIG    1       28.891 -21.861   8.082  0.00  0.00    +0.106 A 
ENDROOT
BRANCH   1  14
ATOM     13  C   LIG    1       25.724 -21.846   8.299  0.00  0.00    +0.027 C 
ATOM     14  C   LIG    1       26.603 -22.141   7.093  0.00  0.00    +0.120 C 
ENDBRANCH   1  14
BRANCH  10  15
ATOM     15  C   LIG    1       31.056 -21.831   9.199  0.00  0.00    +0.342 C 
ATOM     16  O   LIG    1       30.790 -22.023  10.378  0.00  0.00    -0.245 OA
BRANCH  15  17
ATOM     17  O   LIG    1       32.269 -22.117   8.681  0.00  0.00    -0.477 OA
ATOM     18  H   LIG    1       32.247 -22.766   7.934  0.00  0.00    +0.295 HD
ENDBRANCH  15  17
ENDBRANCH  10  15
TORSDOF 3
ENDMDL
MODEL 7
REMARK VINA RESULT:      -6.2      1.497      1.884
REMARK  Name = *****
REMARK                            x       y       z     vdW  Elec       q    Type
REMARK                         _______ _______ _______ _____ _____    ______ ____
ROOT
ATOM      1  N   LIG    1       25.493 -20.111   4.656  0.00  0.00    -0.331 N 
ATOM      2  C   LIG    1       26.342 -20.228   5.782  0.00  0.00    +0.145 A 
ATOM      3  C   LIG    1       25.889 -20.933   6.903  0.00  0.00    +0.065 A 
ATOM      4  C   LIG    1       26.714 -21.072   8.020  0.00  0.00    +0.017 A 
ATOM      5  C   LIG    1       27.982 -20.504   7.995  0.00  0.00    +0.024 A 
ATOM      6  C   LIG    1       28.379 -19.818   6.853  0.00  0.00    +0.041 A 
ATOM      7  C   LIG    1       29.738 -19.188   6.791  0.00  0.00    +0.065 C 
ATOM      8  C   LIG    1       24.538 -21.531   6.898  0.00  0.00    +0.205 A 
ATOM      9  O   LIG    1       24.109 -22.158   7.866  0.00  0.00    -0.286 OA
ATOM     10  C   LIG    1       23.693 -21.360   5.696  0.00  0.00    +0.122 A 
ATOM     11  N   LIG    1       27.578 -19.672   5.768  0.00  0.00    -0.234 NA
ATOM     12  C   LIG    1       24.226 -20.667   4.679  0.00  0.00    +0.106 A 
ENDROOT
BRANCH   1  14
ATOM     13  C   LIG    1       25.303 -18.023   3.361  0.00  0.00    +0.027 C 
ATOM     14  C   LIG    1       26.019 -19.357   3.511  0.00  0.00    +0.120 C 
ENDBRANCH   1  14
BRANCH  10  15
ATOM     15  C   LIG    1       22.328 -21.910   5.567  0.00  0.00    +0.342 C 
ATOM     16  O   LIG    1       21.425 -21.332   4.978  0.00  0.00    -0.245 OA
BRANCH  15  17
ATOM     17  O   LIG    1       22.149 -23.112   6.153  0.00  0.00    -0.477 OA
ATOM     18  H   LIG    1       21.796 -23.809   5.545  0.00  0.00    +0.295 HD
ENDBRANCH  15  17
ENDBRANCH  10  15
TORSDOF 3
ENDMDL
MODEL 8
REMARK VINA RESULT:      -6.0      2.957      5.038
REMARK  Name = *****
REMARK                            x       y       z     vdW  Elec       q    Type
REMARK                         _______ _______ _______ _____ _____    ______ ____
ROOT
ATOM      1  N   LIG    1       25.066 -21.872   7.109  0.00  0.00    -0.331 N 
ATOM      2  C   LIG    1       25.141 -23.120   6.447  0.00  0.00    +0.145 A 
ATOM      3  C   LIG    1       24.727 -23.208   5.113  0.00  0.00    +0.065 A 
ATOM      4  C   LIG    1       24.803 -24.426   4.437  0.00  0.00    +0.017 A 
ATOM      5  C   LIG    1       25.296 -25.538   5.107  0.00  0.00    +0.024 A 
ATOM      6  C   LIG    1       25.695 -25.392   6.431  0.00  0.00    +0.041 A 
ATOM      7  C   LIG    1       26.228 -26.570   7.190  0.00  0.00    +0.065 C 
ATOM      8  C   LIG    1       24.213 -22.007   4.423  0.00  0.00    +0.205 A 
ATOM      9  O   LIG    1       23.842 -22.047   3.251  0.00  0.00    -0.286 OA
ATOM     10  C   LIG    1       24.146 -20.734   5.174  0.00  0.00    +0.122 A 
ATOM     11  N   LIG    1       25.615 -24.212   7.096  0.00  0.00    -0.234 NA
ATOM     12  C   LIG    1       24.568 -20.763   6.447  0.00  0.00    +0.106 A 
ENDROOT
BRANCH   1  14
ATOM     13  C   LIG    1       26.216 -20.531   8.827  0.00  0.00    +0.027 C 
ATOM     14  C   LIG    1       25.510 -21.841   8.508  0.00  0.00    +0.120 C 
ENDBRANCH   1  14
BRANCH  10  15
ATOM     15  C   LIG    1       23.654 -19.465   4.599  0.00  0.00    +0.342 C 
ATOM     16  O   LIG    1       22.618 -18.923   4.958  0.00  0.00    -0.245 OA
BRANCH  15  17
ATOM     17  O   LIG    1       24.442 -18.942   3.637  0.00  0.00    -0.477 OA
ATOM     18  H   LIG    1       25.403 -18.915   3.873  0.00  0.00    +0.295 HD
ENDBRANCH  15  17
ENDBRANCH  10  15
TORSDOF 3
ENDMDL
MODEL 9
REMARK VINA RESULT:      -5.7      2.741      5.231
REMARK  Name = *****
REMARK                            x       y       z     vdW  Elec       q    Type
REMARK                         _______ _______ _______ _____ _____    ______ ____
ROOT
ATOM      1  N   LIG    1       27.612 -19.544   5.614  0.00  0.00    -0.331 N 
ATOM      2  C   LIG    1       26.621 -20.408   6.137  0.00  0.00    +0.145 A 
ATOM      3  C   LIG    1       26.931 -21.204   7.246  0.00  0.00    +0.065 A 
ATOM      4  C   LIG    1       25.966 -22.055   7.785  0.00  0.00    +0.017 A 
ATOM      5  C   LIG    1       24.704 -22.095   7.207  0.00  0.00    +0.024 A 
ATOM      6  C   LIG    1       24.452 -21.280   6.108  0.00  0.00    +0.041 A 
ATOM      7  C   LIG    1       23.103 -21.298   5.454  0.00  0.00    +0.065 C 
ATOM      8  C   LIG    1       28.280 -21.137   7.844  0.00  0.00    +0.205 A 
ATOM      9  O   LIG    1       28.586 -21.820   8.820  0.00  0.00    -0.286 OA
ATOM     10  C   LIG    1       29.277 -20.223   7.242  0.00  0.00    +0.122 A 
ATOM     11  N   LIG    1       25.389 -20.457   5.574  0.00  0.00    -0.234 NA
ATOM     12  C   LIG    1       28.873 -19.507   6.182  0.00  0.00    +0.106 A 
ENDROOT
BRANCH   1  14
ATOM     13  C   LIG    1       27.982 -17.412   4.434  0.00  0.00    +0.027 C 
ATOM     14  C   LIG    1       27.232 -18.736   4.449  0.00  0.00    +0.120 C 
ENDBRANCH   1  14
BRANCH  10  15
ATOM     15  C   LIG    1       30.655 -20.064   7.747  0.00  0.00    +0.342 C 
ATOM     16  O   LIG    1       31.594 -19.727   7.040  0.00  0.00    -0.245 OA
BRANCH  15  17
ATOM     17  O   LIG    1       30.804 -20.320   9.064  0.00  0.00    -0.477 OA
ATOM     18  H   LIG    1       30.170 -20.992   9.419  0.00  0.00    +0.295 HD
ENDBRANCH  15  17
ENDBRANCH  10  15
TORSDOF 3
ENDMDL
