MODEL 1
REMARK VINA RESULT:      -2.5      0.000      0.000
REMARK  Name = *****
REMARK                            x       y       z     vdW  Elec       q    Type
REMARK                         _______ _______ _______ _____ _____    ______ ____
ROOT
ATOM      1  C   LIG    1       27.179 -16.936   3.582  0.00  0.00    +0.134 A 
ATOM      2  C   LIG    1       25.872 -17.333   3.313  0.00  0.00    +0.052 A 
ATOM      3  C   LIG    1       25.401 -18.491   3.917  0.00  0.00    -0.014 A 
ATOM      4  C   LIG    1       24.050 -19.108   3.781  0.00  0.00    +0.028 C 
ATOM      5  C   LIG    1       24.142 -20.359   4.725  0.00  0.00    +0.154 C 
ATOM      6  N   LIG    1       25.511 -20.375   5.304  0.00  0.00    -0.316 N 
ATOM      7  C   LIG    1       25.635 -20.593   6.737  0.00  0.00    +0.131 C 
ATOM      8  N   LIG    1       22.943 -20.276   5.591  0.00  0.00    -0.287 NA
ATOM      9  C   LIG    1       22.310 -21.571   5.793  0.00  0.00    +0.106 C 
ATOM     10  C   LIG    1       22.021 -19.310   4.992  0.00  0.00    +0.087 C 
ATOM     11  C   LIG    1       22.940 -18.263   4.401  0.00  0.00    +0.030 C 
ATOM     12  C   LIG    1       23.744 -19.488   2.329  0.00  0.00    +0.019 C 
ATOM     13  C   LIG    1       26.174 -19.238   4.804  0.00  0.00    +0.035 A 
ATOM     14  C   LIG    1       27.472 -18.829   5.081  0.00  0.00    +0.027 A 
ATOM     15  C   LIG    1       27.975 -17.668   4.471  0.00  0.00    +0.048 A 
ENDROOT
BRANCH   1  16
ATOM     16  O   LIG    1       27.722 -15.729   3.085  0.00  0.00    -0.411 OA
BRANCH  16  20
ATOM     17  C   LIG    1       25.530 -13.266   4.502  0.00  0.00    +0.131 C 
ATOM     18  N   LIG    1       26.659 -14.128   4.273  0.00  0.00    -0.284 N 
ATOM     19  H   LIG    1       27.018 -14.692   5.029  0.00  0.00    +0.152 HD
ATOM     20  C   LIG    1       26.931 -14.585   3.007  0.00  0.00    +0.405 C 
ATOM     21  O   LIG    1       26.484 -14.086   1.987  0.00  0.00    -0.226 OA
ENDBRANCH  16  20
ENDBRANCH   1  16
TORSDOF 2
ENDMDL
MODEL 2
REMARK VINA RESULT:      -2.1      1.092      1.107
REMARK  Name = *****
REMARK                            x       y       z     vdW  Elec       q    Type
REMARK                         _______ _______ _______ _____ _____    ______ ____
ROOT
ATOM      1  C   LIG    1       26.908 -16.458   3.311  0.00  0.00    +0.134 A 
ATOM      2  C   LIG    1       25.627 -16.979   3.158  0.00  0.00    +0.052 A 
ATOM      3  C   LIG    1       25.330 -18.184   3.782  0.00  0.00    -0.014 A 
ATOM      4  C   LIG    1       24.037 -18.929   3.761  0.00  0.00    +0.028 C 
ATOM      5  C   LIG    1       24.339 -20.174   4.668  0.00  0.00    +0.154 C 
ATOM      6  N   LIG    1       25.752 -20.061   5.117  0.00  0.00    -0.316 N 
ATOM      7  C   LIG    1       26.031 -20.279   6.529  0.00  0.00    +0.131 C 
ATOM      8  N   LIG    1       23.225 -20.217   5.644  0.00  0.00    -0.287 NA
ATOM      9  C   LIG    1       22.742 -21.570   5.880  0.00  0.00    +0.106 C 
ATOM     10  C   LIG    1       22.161 -19.342   5.151  0.00  0.00    +0.087 C 
ATOM     11  C   LIG    1       22.914 -18.203   4.497  0.00  0.00    +0.030 C 
ATOM     12  C   LIG    1       23.634 -19.325   2.336  0.00  0.00    +0.019 C 
ATOM     13  C   LIG    1       26.251 -18.860   4.579  0.00  0.00    +0.035 A 
ATOM     14  C   LIG    1       27.523 -18.328   4.742  0.00  0.00    +0.027 A 
ATOM     15  C   LIG    1       27.852 -17.118   4.109  0.00  0.00    +0.048 A 
ENDROOT
BRANCH   1  16
ATOM     16  O   LIG    1       27.282 -15.200   2.789  0.00  0.00    -0.411 OA
BRANCH  16  20
ATOM     17  C   LIG    1       28.720 -12.409   4.528  0.00  0.00    +0.131 C 
ATOM     18  N   LIG    1       28.369 -13.350   3.497  0.00  0.00    -0.284 N 
ATOM     19  H   LIG    1       29.096 -13.771   2.937  0.00  0.00    +0.152 HD
ATOM     20  C   LIG    1       27.195 -14.058   3.582  0.00  0.00    +0.405 C 
ATOM     21  O   LIG    1       26.258 -13.748   4.300  0.00  0.00    -0.226 OA
ENDBRANCH  16  20
ENDBRANCH   1  16
TORSDOF 2
ENDMDL
MODEL 3
REMARK VINA RESULT:      -2.0      1.599      2.771
REMARK  Name = *****
REMARK                            x       y       z     vdW  Elec       q    Type
REMARK                         _______ _______ _______ _____ _____    ______ ____
ROOT
ATOM      1  C   LIG    1       25.926 -15.922   3.160  0.00  0.00    +0.134 A 
ATOM      2  C   LIG    1       26.044 -17.297   3.337  0.00  0.00    +0.052 A 
ATOM      3  C   LIG    1       24.973 -17.980   3.898  0.00  0.00    -0.014 A 
ATOM      4  C   LIG    1       24.869 -19.441   4.182  0.00  0.00    +0.028 C 
ATOM      5  C   LIG    1       23.422 -19.578   4.775  0.00  0.00    +0.154 C 
ATOM      6  N   LIG    1       22.825 -18.216   4.802  0.00  0.00    -0.316 N 
ATOM      7  C   LIG    1       21.471 -18.063   4.293  0.00  0.00    +0.131 C 
ATOM      8  N   LIG    1       22.793 -20.676   4.005  0.00  0.00    -0.287 NA
ATOM      9  C   LIG    1       22.011 -21.572   4.847  0.00  0.00    +0.106 C 
ATOM     10  C   LIG    1       23.853 -21.392   3.294  0.00  0.00    +0.087 C 
ATOM     11  C   LIG    1       24.828 -20.297   2.918  0.00  0.00    +0.030 C 
ATOM     12  C   LIG    1       25.952 -19.907   5.161  0.00  0.00    +0.019 C 
ATOM     13  C   LIG    1       23.784 -17.346   4.250  0.00  0.00    +0.035 A 
ATOM     14  C   LIG    1       23.665 -15.975   4.056  0.00  0.00    +0.027 A 
ATOM     15  C   LIG    1       24.740 -15.260   3.504  0.00  0.00    +0.048 A 
ENDROOT
BRANCH   1  16
ATOM     16  O   LIG    1       26.924 -15.152   2.521  0.00  0.00    -0.411 OA
BRANCH  16  20
ATOM     17  C   LIG    1       28.716 -12.568   4.250  0.00  0.00    +0.131 C 
ATOM     18  N   LIG    1       28.399 -13.682   3.396  0.00  0.00    -0.284 N 
ATOM     19  H   LIG    1       28.944 -14.530   3.460  0.00  0.00    +0.152 HD
ATOM     20  C   LIG    1       27.130 -13.825   2.892  0.00  0.00    +0.405 C 
ATOM     21  O   LIG    1       26.305 -12.927   2.847  0.00  0.00    -0.226 OA
ENDBRANCH  16  20
ENDBRANCH   1  16
TORSDOF 2
ENDMDL
MODEL 4
REMARK VINA RESULT:      -1.7      2.559      6.020
REMARK  Name = *****
REMARK                            x       y       z     vdW  Elec       q    Type
REMARK                         _______ _______ _______ _____ _____    ______ ____
ROOT
ATOM      1  C   LIG    1       25.081 -18.573   3.652  0.00  0.00    +0.134 A 
ATOM      2  C   LIG    1       25.766 -17.371   3.502  0.00  0.00    +0.052 A 
ATOM      3  C   LIG    1       25.066 -16.189   3.703  0.00  0.00    -0.014 A 
ATOM      4  C   LIG    1       25.582 -14.793   3.600  0.00  0.00    +0.028 C 
ATOM      5  C   LIG    1       24.325 -13.929   3.969  0.00  0.00    +0.154 C 
ATOM      6  N   LIG    1       23.205 -14.870   4.234  0.00  0.00    -0.316 N 
ATOM      7  C   LIG    1       22.406 -14.649   5.430  0.00  0.00    +0.131 C 
ATOM      8  N   LIG    1       24.798 -12.987   5.010  0.00  0.00    -0.287 NA
ATOM      9  C   LIG    1       24.275 -11.641   4.825  0.00  0.00    +0.106 C 
ATOM     10  C   LIG    1       26.261 -13.004   5.001  0.00  0.00    +0.087 C 
ATOM     11  C   LIG    1       26.597 -14.446   4.688  0.00  0.00    +0.030 C 
ATOM     12  C   LIG    1       26.114 -14.487   2.195  0.00  0.00    +0.019 C 
ATOM     13  C   LIG    1       23.726 -16.169   4.083  0.00  0.00    +0.035 A 
ATOM     14  C   LIG    1       23.051 -17.372   4.247  0.00  0.00    +0.027 A 
ATOM     15  C   LIG    1       23.734 -18.581   4.036  0.00  0.00    +0.048 A 
ENDROOT
BRANCH   1  16
ATOM     16  O   LIG    1       25.723 -19.829   3.554  0.00  0.00    -0.411 OA
BRANCH  16  20
ATOM     17  C   LIG    1       27.808 -20.905   6.270  0.00  0.00    +0.131 C 
ATOM     18  N   LIG    1       27.075 -20.079   5.346  0.00  0.00    -0.284 N 
ATOM     19  H   LIG    1       27.542 -19.311   4.886  0.00  0.00    +0.152 HD
ATOM     20  C   LIG    1       25.972 -20.580   4.700  0.00  0.00    +0.405 C 
ATOM     21  O   LIG    1       25.358 -21.572   5.060  0.00  0.00    -0.226 OA
ENDBRANCH  16  20
ENDBRANCH   1  16
TORSDOF 2
ENDMDL
MODEL 5
REMARK VINA RESULT:      -1.3      2.857      5.986
REMARK  Name = *****
REMARK                            x       y       z     vdW  Elec       q    Type
REMARK                         _______ _______ _______ _____ _____    ______ ____
ROOT
ATOM      1  C   LIG    1       27.565 -17.730   4.111  0.00  0.00    +0.134 A 
ATOM      2  C   LIG    1       27.748 -16.355   4.223  0.00  0.00    +0.052 A 
ATOM      3  C   LIG    1       26.668 -15.525   3.952  0.00  0.00    -0.014 A 
ATOM      4  C   LIG    1       26.625 -14.035   4.005  0.00  0.00    +0.028 C 
ATOM      5  C   LIG    1       25.134 -13.717   3.628  0.00  0.00    +0.154 C 
ATOM      6  N   LIG    1       24.455 -15.015   3.378  0.00  0.00    -0.316 N 
ATOM      7  C   LIG    1       23.156 -15.227   3.996  0.00  0.00    +0.131 C 
ATOM      8  N   LIG    1       24.660 -12.794   4.686  0.00  0.00    -0.287 NA
ATOM      9  C   LIG    1       23.850 -11.706   4.155  0.00  0.00    +0.106 C 
ATOM     10  C   LIG    1       25.831 -12.293   5.406  0.00  0.00    +0.087 C 
ATOM     11  C   LIG    1       26.771 -13.480   5.420  0.00  0.00    +0.030 C 
ATOM     12  C   LIG    1       27.625 -13.404   3.030  0.00  0.00    +0.019 C 
ATOM     13  C   LIG    1       25.411 -16.022   3.613  0.00  0.00    +0.035 A 
ATOM     14  C   LIG    1       25.229 -17.395   3.518  0.00  0.00    +0.027 A 
ATOM     15  C   LIG    1       26.310 -18.254   3.774  0.00  0.00    +0.048 A 
ENDROOT
BRANCH   1  16
ATOM     16  O   LIG    1       28.575 -18.659   4.448  0.00  0.00    -0.411 OA
BRANCH  16  20
ATOM     17  C   LIG    1       27.350 -20.791   7.062  0.00  0.00    +0.131 C 
ATOM     18  N   LIG    1       27.829 -20.315   5.791  0.00  0.00    -0.284 N 
ATOM     19  H   LIG    1       27.313 -20.531   4.950  0.00  0.00    +0.152 HD
ATOM     20  C   LIG    1       28.629 -19.201   5.730  0.00  0.00    +0.405 C 
ATOM     21  O   LIG    1       29.234 -18.738   6.684  0.00  0.00    -0.226 OA
ENDBRANCH  16  20
ENDBRANCH   1  16
TORSDOF 2
ENDMDL
MODEL 6
REMARK VINA RESULT:      -0.4      2.559      6.207
REMARK  Name = *****
REMARK                            x       y       z     vdW  Elec       q    Type
REMARK                         _______ _______ _______ _____ _____    ______ ____
ROOT
ATOM      1  C   LIG    1       24.347 -18.369   3.721  0.00  0.00    +0.134 A 
ATOM      2  C   LIG    1       23.732 -17.135   3.906  0.00  0.00    +0.052 A 
ATOM      3  C   LIG    1       24.520 -15.993   3.844  0.00  0.00    -0.014 A 
ATOM      4  C   LIG    1       24.088 -14.575   4.009  0.00  0.00    +0.028 C 
ATOM      5  C   LIG    1       25.424 -13.778   3.799  0.00  0.00    +0.154 C 
ATOM      6  N   LIG    1       26.499 -14.775   3.552  0.00  0.00    -0.316 N 
ATOM      7  C   LIG    1       27.403 -14.531   2.438  0.00  0.00    +0.131 C 
ATOM      8  N   LIG    1       25.097 -12.738   2.797  0.00  0.00    -0.287 NA
ATOM      9  C   LIG    1       25.690 -11.447   3.118  0.00  0.00    +0.106 C 
ATOM     10  C   LIG    1       23.640 -12.652   2.695  0.00  0.00    +0.087 C 
ATOM     11  C   LIG    1       23.189 -14.086   2.877  0.00  0.00    +0.030 C 
ATOM     12  C   LIG    1       23.467 -14.328   5.389  0.00  0.00    +0.019 C 
ATOM     13  C   LIG    1       25.885 -16.042   3.568  0.00  0.00    +0.035 A 
ATOM     14  C   LIG    1       26.491 -17.275   3.369  0.00  0.00    +0.027 A 
ATOM     15  C   LIG    1       25.717 -18.445   3.440  0.00  0.00    +0.048 A 
ENDROOT
BRANCH   1  16
ATOM     16  O   LIG    1       23.620 -19.580   3.680  0.00  0.00    -0.411 OA
BRANCH  16  20
ATOM     17  C   LIG    1       23.471 -20.773   7.062  0.00  0.00    +0.131 C 
ATOM     18  N   LIG    1       23.105 -20.219   5.785  0.00  0.00    -0.284 N 
ATOM     19  H   LIG    1       22.608 -19.340   5.746  0.00  0.00    +0.152 HD
ATOM     20  C   LIG    1       23.818 -20.551   4.660  0.00  0.00    +0.405 C 
ATOM     21  O   LIG    1       24.558 -21.518   4.577  0.00  0.00    -0.226 OA
ENDBRANCH  16  20
ENDBRANCH   1  16
TORSDOF 2
ENDMDL
MODEL 7
REMARK VINA RESULT:      -0.0      1.730      2.262
REMARK  Name = *****
REMARK                            x       y       z     vdW  Elec       q    Type
REMARK                         _______ _______ _______ _____ _____    ______ ____
ROOT
ATOM      1  C   LIG    1       25.527 -15.054   3.617  0.00  0.00    +0.134 A 
ATOM      2  C   LIG    1       24.325 -15.720   3.840  0.00  0.00    +0.052 A 
ATOM      3  C   LIG    1       24.328 -17.108   3.803  0.00  0.00    -0.014 A 
ATOM      4  C   LIG    1       23.173 -18.030   4.010  0.00  0.00    +0.028 C 
ATOM      5  C   LIG    1       23.832 -19.448   3.874  0.00  0.00    +0.154 C 
ATOM      6  N   LIG    1       25.276 -19.239   3.591  0.00  0.00    -0.316 N 
ATOM      7  C   LIG    1       26.234 -20.021   4.358  0.00  0.00    +0.131 C 
ATOM      8  N   LIG    1       23.385 -20.195   5.073  0.00  0.00    -0.287 NA
ATOM      9  C   LIG    1       23.019 -21.571   4.769  0.00  0.00    +0.106 C 
ATOM     10  C   LIG    1       22.270 -19.460   5.673  0.00  0.00    +0.087 C 
ATOM     11  C   LIG    1       22.637 -18.010   5.439  0.00  0.00    +0.030 C 
ATOM     12  C   LIG    1       22.067 -17.794   2.974  0.00  0.00    +0.019 C 
ATOM     13  C   LIG    1       25.489 -17.847   3.592  0.00  0.00    +0.035 A 
ATOM     14  C   LIG    1       26.689 -17.179   3.386  0.00  0.00    +0.027 A 
ATOM     15  C   LIG    1       26.709 -15.774   3.404  0.00  0.00    +0.048 A 
ENDROOT
BRANCH   1  16
ATOM     16  O   LIG    1       25.645 -13.649   3.718  0.00  0.00    -0.411 OA
BRANCH  16  20
ATOM     17  C   LIG    1       23.249 -11.450   5.236  0.00  0.00    +0.131 C 
ATOM     18  N   LIG    1       24.488 -12.033   4.790  0.00  0.00    -0.284 N 
ATOM     19  H   LIG    1       25.240 -12.170   5.450  0.00  0.00    +0.152 HD
ATOM     20  C   LIG    1       24.508 -12.846   3.684  0.00  0.00    +0.405 C 
ATOM     21  O   LIG    1       23.621 -12.887   2.847  0.00  0.00    -0.226 OA
ENDBRANCH  16  20
ENDBRANCH   1  16
TORSDOF 2
ENDMDL
