MODEL 1
REMARK VINA RESULT:      -4.5      0.000      0.000
REMARK  Name = *****
REMARK                            x       y       z     vdW  Elec       q    Type
REMARK                         _______ _______ _______ _____ _____    ______ ____
ROOT
ATOM      1  C   LIG    1       22.342 -16.771   4.818  0.00  0.00    +0.200 C 
ENDROOT
BRANCH   1   4
ATOM      2  N   LIG    1       23.148 -14.601   4.003  0.00  0.00    -0.305 N 
ATOM      3  H   LIG    1       22.294 -14.233   4.409  0.00  0.00    +0.149 HD
ATOM      4  C   LIG    1       23.433 -15.940   4.141  0.00  0.00    +0.231 C 
ATOM      5  O   LIG    1       24.529 -16.409   3.836  0.00  0.00    -0.274 OA
BRANCH   2   6
ATOM      6  C   LIG    1       24.101 -13.652   3.439  0.00  0.00    +0.200 C 
BRANCH   6   9
ATOM      7  N   LIG    1       26.276 -13.906   4.559  0.00  0.00    -0.304 N 
ATOM      8  H   LIG    1       26.468 -14.564   3.809  0.00  0.00    +0.149 HD
ATOM      9  C   LIG    1       25.130 -13.146   4.459  0.00  0.00    +0.231 C 
ATOM     10  O   LIG    1       24.970 -12.105   5.090  0.00  0.00    -0.274 OA
BRANCH   7  11
ATOM     11  C   LIG    1       27.377 -13.524   5.431  0.00  0.00    +0.224 C 
BRANCH  11  13
ATOM     12  O   LIG    1       28.813 -13.129   3.513  0.00  0.00    -0.249 OA
ATOM     13  C   LIG    1       28.464 -12.800   4.648  0.00  0.00    +0.322 C 
BRANCH  13  14
ATOM     14  O   LIG    1       29.058 -11.786   5.313  0.00  0.00    -0.479 OA
ATOM     15  H   LIG    1       29.283 -11.070   4.677  0.00  0.00    +0.295 HD
ENDBRANCH  13  14
ENDBRANCH  11  13
ENDBRANCH   7  11
ENDBRANCH   6   9
ENDBRANCH   2   6
ENDBRANCH   1   4
BRANCH   1  16
ATOM     16  N   LIG    1       22.738 -18.166   4.867  0.00  0.00    -0.306 N 
ATOM     17  H   LIG    1       23.584 -18.410   5.365  0.00  0.00    +0.149 HD
ATOM     18  C   LIG    1       21.981 -19.141   4.249  0.00  0.00    +0.224 C 
ATOM     19  O   LIG    1       20.898 -18.878   3.731  0.00  0.00    -0.275 OA
BRANCH  18  20
ATOM     20  C   LIG    1       22.571 -20.544   4.354  0.00  0.00    +0.173 C 
BRANCH  20  21
ATOM     21  S   LIG    1       24.351 -20.580   4.028  0.00  0.00    -0.074 S 
BRANCH  21  22
ATOM     22  C   LIG    1       24.929 -20.735   5.679  0.00  0.00    +0.220 C 
ATOM     23  O   LIG    1       24.157 -20.985   6.600  0.00  0.00    -0.280 OA
BRANCH  22  24
ATOM     24  C   LIG    1       26.388 -20.630   5.948  0.00  0.00    +0.028 A 
ATOM     25  C   LIG    1       27.084 -21.476   6.822  0.00  0.00    +0.012 A 
ATOM     26  C   LIG    1       28.447 -21.279   7.053  0.00  0.00    +0.001 A 
ATOM     27  C   LIG    1       29.125 -20.242   6.412  0.00  0.00    +0.000 A 
ATOM     28  C   LIG    1       28.446 -19.398   5.538  0.00  0.00    +0.001 A 
ATOM     29  C   LIG    1       27.084 -19.591   5.308  0.00  0.00    +0.012 A 
ENDBRANCH  22  24
ENDBRANCH  21  22
ENDBRANCH  20  21
ENDBRANCH  18  20
ENDBRANCH   1  16
TORSDOF 11
ENDMDL
MODEL 2
REMARK VINA RESULT:      -3.9      2.659      6.853
REMARK  Name = *****
REMARK                            x       y       z     vdW  Elec       q    Type
REMARK                         _______ _______ _______ _____ _____    ______ ____
ROOT
ATOM      1  C   LIG    1       21.665 -18.277   4.380  0.00  0.00    +0.200 C 
ENDROOT
BRANCH   1   4
ATOM      2  N   LIG    1       23.794 -19.469   4.121  0.00  0.00    -0.305 N 
ATOM      3  H   LIG    1       24.184 -18.549   3.946  0.00  0.00    +0.149 HD
ATOM      4  C   LIG    1       22.460 -19.582   4.436  0.00  0.00    +0.231 C 
ATOM      5  O   LIG    1       21.971 -20.638   4.836  0.00  0.00    -0.274 OA
BRANCH   2   6
ATOM      6  C   LIG    1       24.713 -20.600   4.186  0.00  0.00    +0.200 C 
BRANCH   6   9
ATOM      7  N   LIG    1       26.588 -20.433   5.769  0.00  0.00    -0.304 N 
ATOM      8  H   LIG    1       26.980 -19.802   5.078  0.00  0.00    +0.149 HD
ATOM      9  C   LIG    1       25.282 -20.839   5.590  0.00  0.00    +0.231 C 
ATOM     10  O   LIG    1       24.601 -21.298   6.504  0.00  0.00    -0.274 OA
BRANCH   7  11
ATOM     11  C   LIG    1       27.250 -20.529   7.062  0.00  0.00    +0.224 C 
BRANCH  11  13
ATOM     12  O   LIG    1       29.274 -19.201   6.860  0.00  0.00    -0.249 OA
ATOM     13  C   LIG    1       28.751 -20.315   6.919  0.00  0.00    +0.322 C 
BRANCH  13  14
ATOM     14  O   LIG    1       29.475 -21.450   6.815  0.00  0.00    -0.479 OA
ATOM     15  H   LIG    1       30.372 -21.233   6.474  0.00  0.00    +0.295 HD
ENDBRANCH  13  14
ENDBRANCH  11  13
ENDBRANCH   7  11
ENDBRANCH   6   9
ENDBRANCH   2   6
ENDBRANCH   1   4
BRANCH   1  16
ATOM     16  N   LIG    1       22.546 -17.171   4.057  0.00  0.00    -0.306 N 
ATOM     17  H   LIG    1       23.088 -17.220   3.203  0.00  0.00    +0.149 HD
ATOM     18  C   LIG    1       22.648 -16.077   4.892  0.00  0.00    +0.224 C 
ATOM     19  O   LIG    1       21.922 -15.952   5.876  0.00  0.00    -0.275 OA
BRANCH  18  20
ATOM     20  C   LIG    1       23.661 -15.034   4.428  0.00  0.00    +0.173 C 
BRANCH  20  21
ATOM     21  S   LIG    1       23.073 -14.069   3.014  0.00  0.00    -0.074 S 
BRANCH  21  22
ATOM     22  C   LIG    1       24.325 -12.838   2.983  0.00  0.00    +0.220 C 
ATOM     23  O   LIG    1       24.094 -11.709   2.560  0.00  0.00    -0.280 OA
BRANCH  22  24
ATOM     24  C   LIG    1       25.665 -13.155   3.546  0.00  0.00    +0.028 A 
ATOM     25  C   LIG    1       25.988 -13.039   4.905  0.00  0.00    +0.012 A 
ATOM     26  C   LIG    1       27.286 -13.313   5.343  0.00  0.00    +0.001 A 
ATOM     27  C   LIG    1       28.266 -13.708   4.433  0.00  0.00    +0.000 A 
ATOM     28  C   LIG    1       27.955 -13.831   3.081  0.00  0.00    +0.001 A 
ATOM     29  C   LIG    1       26.662 -13.556   2.640  0.00  0.00    +0.012 A 
ENDBRANCH  22  24
ENDBRANCH  21  22
ENDBRANCH  20  21
ENDBRANCH  18  20
ENDBRANCH   1  16
TORSDOF 11
ENDMDL
MODEL 3
REMARK VINA RESULT:      -3.9      1.453      1.875
REMARK  Name = *****
REMARK                            x       y       z     vdW  Elec       q    Type
REMARK                         _______ _______ _______ _____ _____    ______ ____
ROOT
ATOM      1  C   LIG    1       21.949 -17.530   4.379  0.00  0.00    +0.200 C 
ENDROOT
BRANCH   1   4
ATOM      2  N   LIG    1       23.123 -15.435   3.873  0.00  0.00    -0.305 N 
ATOM      3  H   LIG    1       23.272 -15.846   2.957  0.00  0.00    +0.149 HD
ATOM      4  C   LIG    1       22.384 -16.127   4.805  0.00  0.00    +0.231 C 
ATOM      5  O   LIG    1       22.015 -15.611   5.859  0.00  0.00    -0.274 OA
BRANCH   2   6
ATOM      6  C   LIG    1       23.566 -14.062   4.087  0.00  0.00    +0.200 C 
BRANCH   6   9
ATOM      7  N   LIG    1       25.991 -14.449   3.953  0.00  0.00    -0.304 N 
ATOM      8  H   LIG    1       25.788 -15.265   4.522  0.00  0.00    +0.149 HD
ATOM      9  C   LIG    1       24.920 -13.753   3.435  0.00  0.00    +0.231 C 
ATOM     10  O   LIG    1       25.027 -12.990   2.478  0.00  0.00    -0.274 OA
BRANCH   7  11
ATOM     11  C   LIG    1       27.331 -14.320   3.400  0.00  0.00    +0.224 C 
BRANCH  11  13
ATOM     12  O   LIG    1       29.318 -13.028   3.931  0.00  0.00    -0.249 OA
ATOM     13  C   LIG    1       28.178 -13.376   4.242  0.00  0.00    +0.322 C 
BRANCH  13  14
ATOM     14  O   LIG    1       27.598 -12.976   5.395  0.00  0.00    -0.479 OA
ATOM     15  H   LIG    1       28.292 -12.642   6.007  0.00  0.00    +0.295 HD
ENDBRANCH  13  14
ENDBRANCH  11  13
ENDBRANCH   7  11
ENDBRANCH   6   9
ENDBRANCH   2   6
ENDBRANCH   1   4
BRANCH   1  16
ATOM     16  N   LIG    1       22.709 -18.528   5.106  0.00  0.00    -0.306 N 
ATOM     17  H   LIG    1       23.424 -18.215   5.751  0.00  0.00    +0.149 HD
ATOM     18  C   LIG    1       22.467 -19.876   4.926  0.00  0.00    +0.224 C 
ATOM     19  O   LIG    1       21.535 -20.271   4.230  0.00  0.00    -0.275 OA
BRANCH  18  20
ATOM     20  C   LIG    1       23.393 -20.785   5.728  0.00  0.00    +0.173 C 
BRANCH  20  21
ATOM     21  S   LIG    1       24.856 -21.294   4.792  0.00  0.00    -0.074 S 
BRANCH  21  22
ATOM     22  C   LIG    1       26.087 -20.944   5.996  0.00  0.00    +0.220 C 
ATOM     23  O   LIG    1       26.134 -21.565   7.053  0.00  0.00    -0.280 OA
BRANCH  22  24
ATOM     24  C   LIG    1       27.128 -19.926   5.691  0.00  0.00    +0.028 A 
ATOM     25  C   LIG    1       26.949 -18.874   4.783  0.00  0.00    +0.012 A 
ATOM     26  C   LIG    1       27.997 -17.988   4.521  0.00  0.00    +0.001 A 
ATOM     27  C   LIG    1       29.225 -18.142   5.164  0.00  0.00    +0.000 A 
ATOM     28  C   LIG    1       29.412 -19.181   6.072  0.00  0.00    +0.001 A 
ATOM     29  C   LIG    1       28.370 -20.068   6.334  0.00  0.00    +0.012 A 
ENDBRANCH  22  24
ENDBRANCH  21  22
ENDBRANCH  20  21
ENDBRANCH  18  20
ENDBRANCH   1  16
TORSDOF 11
ENDMDL
MODEL 4
REMARK VINA RESULT:      -3.8      2.573      7.498
REMARK  Name = *****
REMARK                            x       y       z     vdW  Elec       q    Type
REMARK                         _______ _______ _______ _____ _____    ______ ____
ROOT
ATOM      1  C   LIG    1       27.999 -20.461   5.924  0.00  0.00    +0.200 C 
ENDROOT
BRANCH   1   4
ATOM      2  N   LIG    1       25.830 -20.865   4.848  0.00  0.00    -0.305 N 
ATOM      3  H   LIG    1       26.313 -20.622   3.989  0.00  0.00    +0.149 HD
ATOM      4  C   LIG    1       26.539 -20.906   6.027  0.00  0.00    +0.231 C 
ATOM      5  O   LIG    1       26.060 -21.367   7.062  0.00  0.00    -0.274 OA
BRANCH   2   6
ATOM      6  C   LIG    1       24.446 -21.314   4.751  0.00  0.00    +0.200 C 
BRANCH   6   9
ATOM      7  N   LIG    1       22.627 -19.669   4.944  0.00  0.00    -0.304 N 
ATOM      8  H   LIG    1       22.807 -19.741   5.941  0.00  0.00    +0.149 HD
ATOM      9  C   LIG    1       23.519 -20.285   4.091  0.00  0.00    +0.231 C 
ATOM     10  O   LIG    1       23.612 -19.986   2.904  0.00  0.00    -0.274 OA
BRANCH   7  11
ATOM     11  C   LIG    1       21.727 -18.621   4.487  0.00  0.00    +0.224 C 
BRANCH  11  13
ATOM     12  O   LIG    1       21.972 -16.336   5.270  0.00  0.00    -0.249 OA
ATOM     13  C   LIG    1       22.396 -17.256   4.570  0.00  0.00    +0.322 C 
BRANCH  13  14
ATOM     14  O   LIG    1       23.478 -17.109   3.774  0.00  0.00    -0.479 OA
ATOM     15  H   LIG    1       24.290 -17.103   4.329  0.00  0.00    +0.295 HD
ENDBRANCH  13  14
ENDBRANCH  11  13
ENDBRANCH   7  11
ENDBRANCH   6   9
ENDBRANCH   2   6
ENDBRANCH   1   4
BRANCH   1  16
ATOM     16  N   LIG    1       28.096 -19.256   5.123  0.00  0.00    -0.306 N 
ATOM     17  H   LIG    1       27.560 -19.201   4.266  0.00  0.00    +0.149 HD
ATOM     18  C   LIG    1       28.900 -18.204   5.516  0.00  0.00    +0.224 C 
ATOM     19  O   LIG    1       29.474 -18.209   6.603  0.00  0.00    -0.275 OA
BRANCH  18  20
ATOM     20  C   LIG    1       28.925 -17.040   4.531  0.00  0.00    +0.173 C 
BRANCH  20  21
ATOM     21  S   LIG    1       27.296 -16.683   3.828  0.00  0.00    -0.074 S 
BRANCH  21  22
ATOM     22  C   LIG    1       27.379 -14.929   3.821  0.00  0.00    +0.220 C 
ATOM     23  O   LIG    1       28.450 -14.344   3.956  0.00  0.00    -0.280 OA
BRANCH  22  24
ATOM     24  C   LIG    1       26.138 -14.146   3.575  0.00  0.00    +0.028 A 
ATOM     25  C   LIG    1       25.042 -14.127   4.449  0.00  0.00    +0.012 A 
ATOM     26  C   LIG    1       23.895 -13.401   4.119  0.00  0.00    +0.001 A 
ATOM     27  C   LIG    1       23.835 -12.688   2.921  0.00  0.00    +0.000 A 
ATOM     28  C   LIG    1       24.920 -12.696   2.049  0.00  0.00    +0.001 A 
ATOM     29  C   LIG    1       26.065 -13.422   2.374  0.00  0.00    +0.012 A 
ENDBRANCH  22  24
ENDBRANCH  21  22
ENDBRANCH  20  21
ENDBRANCH  18  20
ENDBRANCH   1  16
TORSDOF 11
ENDMDL
MODEL 5
REMARK VINA RESULT:      -3.3      2.488      5.969
REMARK  Name = *****
REMARK                            x       y       z     vdW  Elec       q    Type
REMARK                         _______ _______ _______ _____ _____    ______ ____
ROOT
ATOM      1  C   LIG    1       24.905 -21.012   4.781  0.00  0.00    +0.200 C 
ENDROOT
BRANCH   1   4
ATOM      2  N   LIG    1       27.268 -20.357   4.898  0.00  0.00    -0.305 N 
ATOM      3  H   LIG    1       27.221 -20.343   3.885  0.00  0.00    +0.149 HD
ATOM      4  C   LIG    1       26.129 -20.635   5.618  0.00  0.00    +0.231 C 
ATOM      5  O   LIG    1       26.075 -20.487   6.838  0.00  0.00    -0.274 OA
BRANCH   2   6
ATOM      6  C   LIG    1       28.507 -19.918   5.531  0.00  0.00    +0.200 C 
BRANCH   6   9
ATOM      7  N   LIG    1       27.953 -17.745   4.521  0.00  0.00    -0.304 N 
ATOM      8  H   LIG    1       27.156 -18.243   4.137  0.00  0.00    +0.149 HD
ATOM      9  C   LIG    1       28.719 -18.400   5.462  0.00  0.00    +0.231 C 
ATOM     10  O   LIG    1       29.468 -17.808   6.234  0.00  0.00    -0.274 OA
BRANCH   7  11
ATOM     11  C   LIG    1       27.987 -16.297   4.376  0.00  0.00    +0.224 C 
BRANCH  11  13
ATOM     12  O   LIG    1       26.050 -16.513   2.927  0.00  0.00    -0.249 OA
ATOM     13  C   LIG    1       27.006 -15.835   3.308  0.00  0.00    +0.322 C 
BRANCH  13  14
ATOM     14  O   LIG    1       27.288 -14.630   2.766  0.00  0.00    -0.479 OA
ATOM     15  H   LIG    1       26.968 -14.611   1.836  0.00  0.00    +0.295 HD
ENDBRANCH  13  14
ENDBRANCH  11  13
ENDBRANCH   7  11
ENDBRANCH   6   9
ENDBRANCH   2   6
ENDBRANCH   1   4
BRANCH   1  16
ATOM     16  N   LIG    1       24.080 -19.842   4.552  0.00  0.00    -0.306 N 
ATOM     17  H   LIG    1       24.440 -19.108   3.954  0.00  0.00    +0.149 HD
ATOM     18  C   LIG    1       22.834 -19.726   5.133  0.00  0.00    +0.224 C 
ATOM     19  O   LIG    1       22.338 -20.650   5.774  0.00  0.00    -0.275 OA
BRANCH  18  20
ATOM     20  C   LIG    1       22.127 -18.409   4.829  0.00  0.00    +0.173 C 
BRANCH  20  21
ATOM     21  S   LIG    1       23.114 -17.310   3.782  0.00  0.00    -0.074 S 
BRANCH  21  22
ATOM     22  C   LIG    1       22.818 -15.795   4.620  0.00  0.00    +0.220 C 
ATOM     23  O   LIG    1       22.082 -15.746   5.601  0.00  0.00    -0.280 OA
BRANCH  22  24
ATOM     24  C   LIG    1       23.532 -14.569   4.171  0.00  0.00    +0.028 A 
ATOM     25  C   LIG    1       23.475 -14.067   2.864  0.00  0.00    +0.012 A 
ATOM     26  C   LIG    1       24.213 -12.934   2.515  0.00  0.00    +0.001 A 
ATOM     27  C   LIG    1       25.008 -12.293   3.466  0.00  0.00    +0.000 A 
ATOM     28  C   LIG    1       25.068 -12.780   4.769  0.00  0.00    +0.001 A 
ATOM     29  C   LIG    1       24.334 -13.912   5.119  0.00  0.00    +0.012 A 
ENDBRANCH  22  24
ENDBRANCH  21  22
ENDBRANCH  20  21
ENDBRANCH  18  20
ENDBRANCH   1  16
TORSDOF 11
ENDMDL
MODEL 6
REMARK VINA RESULT:      -2.7      2.586      4.930
REMARK  Name = *****
REMARK                            x       y       z     vdW  Elec       q    Type
REMARK                         _______ _______ _______ _____ _____    ______ ____
ROOT
ATOM      1  C   LIG    1       28.389 -13.475   3.579  0.00  0.00    +0.200 C 
ENDROOT
BRANCH   1   4
ATOM      2  N   LIG    1       26.638 -12.207   2.417  0.00  0.00    -0.305 N 
ATOM      3  H   LIG    1       27.125 -12.484   1.571  0.00  0.00    +0.149 HD
ATOM      4  C   LIG    1       27.093 -12.664   3.632  0.00  0.00    +0.231 C 
ATOM      5  O   LIG    1       26.446 -12.518   4.668  0.00  0.00    -0.274 OA
BRANCH   2   6
ATOM      6  C   LIG    1       25.385 -11.473   2.275  0.00  0.00    +0.200 C 
BRANCH   6   9
ATOM      7  N   LIG    1       24.028 -13.505   2.553  0.00  0.00    -0.304 N 
ATOM      8  H   LIG    1       24.816 -13.967   2.111  0.00  0.00    +0.149 HD
ATOM      9  C   LIG    1       24.189 -12.185   2.919  0.00  0.00    +0.231 C 
ATOM     10  O   LIG    1       23.469 -11.637   3.749  0.00  0.00    -0.274 OA
BRANCH   7  11
ATOM     11  C   LIG    1       22.982 -14.338   3.127  0.00  0.00    +0.224 C 
BRANCH  11  13
ATOM     12  O   LIG    1       22.686 -15.601   5.180  0.00  0.00    -0.249 OA
ATOM     13  C   LIG    1       23.407 -14.887   4.482  0.00  0.00    +0.322 C 
BRANCH  13  14
ATOM     14  O   LIG    1       24.632 -14.491   4.891  0.00  0.00    -0.479 OA
ATOM     15  H   LIG    1       25.247 -15.257   4.858  0.00  0.00    +0.295 HD
ENDBRANCH  13  14
ENDBRANCH  11  13
ENDBRANCH   7  11
ENDBRANCH   6   9
ENDBRANCH   2   6
ENDBRANCH   1   4
BRANCH   1  16
ATOM     16  N   LIG    1       28.151 -14.824   4.057  0.00  0.00    -0.306 N 
ATOM     17  H   LIG    1       28.689 -15.157   4.847  0.00  0.00    +0.149 HD
ATOM     18  C   LIG    1       27.214 -15.637   3.452  0.00  0.00    +0.224 C 
ATOM     19  O   LIG    1       26.479 -15.215   2.562  0.00  0.00    -0.275 OA
BRANCH  18  20
ATOM     20  C   LIG    1       27.132 -17.039   4.048  0.00  0.00    +0.173 C 
BRANCH  20  21
ATOM     21  S   LIG    1       25.747 -18.000   3.389  0.00  0.00    -0.074 S 
BRANCH  21  22
ATOM     22  C   LIG    1       25.891 -19.422   4.409  0.00  0.00    +0.220 C 
ATOM     23  O   LIG    1       26.987 -19.822   4.789  0.00  0.00    -0.280 OA
BRANCH  22  24
ATOM     24  C   LIG    1       24.654 -20.107   4.874  0.00  0.00    +0.028 A 
ATOM     25  C   LIG    1       23.399 -19.947   4.271  0.00  0.00    +0.012 A 
ATOM     26  C   LIG    1       22.280 -20.592   4.801  0.00  0.00    +0.001 A 
ATOM     27  C   LIG    1       22.404 -21.402   5.930  0.00  0.00    +0.000 A 
ATOM     28  C   LIG    1       23.646 -21.572   6.534  0.00  0.00    +0.001 A 
ATOM     29  C   LIG    1       24.765 -20.928   6.009  0.00  0.00    +0.012 A 
ENDBRANCH  22  24
ENDBRANCH  21  22
ENDBRANCH  20  21
ENDBRANCH  18  20
ENDBRANCH   1  16
TORSDOF 11
ENDMDL
MODEL 7
REMARK VINA RESULT:      -2.5      2.729      6.614
REMARK  Name = *****
REMARK                            x       y       z     vdW  Elec       q    Type
REMARK                         _______ _______ _______ _____ _____    ______ ____
ROOT
ATOM      1  C   LIG    1       21.792 -18.539   4.359  0.00  0.00    +0.200 C 
ENDROOT
BRANCH   1   4
ATOM      2  N   LIG    1       22.930 -19.789   6.137  0.00  0.00    -0.305 N 
ATOM      3  H   LIG    1       22.551 -19.079   6.755  0.00  0.00    +0.149 HD
ATOM      4  C   LIG    1       22.616 -19.750   4.799  0.00  0.00    +0.231 C 
ATOM      5  O   LIG    1       22.888 -20.677   4.036  0.00  0.00    -0.274 OA
BRANCH   2   6
ATOM      6  C   LIG    1       23.655 -20.903   6.740  0.00  0.00    +0.200 C 
BRANCH   6   9
ATOM      7  N   LIG    1       25.534 -20.028   5.417  0.00  0.00    -0.304 N 
ATOM      8  H   LIG    1       24.874 -19.306   5.148  0.00  0.00    +0.149 HD
ATOM      9  C   LIG    1       25.155 -20.893   6.422  0.00  0.00    +0.231 C 
ATOM     10  O   LIG    1       25.965 -21.559   7.061  0.00  0.00    -0.274 OA
BRANCH   7  11
ATOM     11  C   LIG    1       26.930 -19.852   5.042  0.00  0.00    +0.224 C 
BRANCH  11  13
ATOM     12  O   LIG    1       28.112 -17.826   4.414  0.00  0.00    -0.249 OA
ATOM     13  C   LIG    1       27.126 -18.551   4.276  0.00  0.00    +0.322 C 
BRANCH  13  14
ATOM     14  O   LIG    1       26.105 -18.220   3.456  0.00  0.00    -0.479 OA
ATOM     15  H   LIG    1       25.552 -19.017   3.291  0.00  0.00    +0.295 HD
ENDBRANCH  13  14
ENDBRANCH  11  13
ENDBRANCH   7  11
ENDBRANCH   6   9
ENDBRANCH   2   6
ENDBRANCH   1   4
BRANCH   1  16
ATOM     16  N   LIG    1       22.669 -17.424   4.058  0.00  0.00    -0.306 N 
ATOM     17  H   LIG    1       23.310 -17.511   3.279  0.00  0.00    +0.149 HD
ATOM     18  C   LIG    1       22.634 -16.269   4.813  0.00  0.00    +0.224 C 
ATOM     19  O   LIG    1       21.792 -16.104   5.692  0.00  0.00    -0.275 OA
BRANCH  18  20
ATOM     20  C   LIG    1       23.660 -15.221   4.391  0.00  0.00    +0.173 C 
BRANCH  20  21
ATOM     21  S   LIG    1       23.034 -14.104   3.112  0.00  0.00    -0.074 S 
BRANCH  21  22
ATOM     22  C   LIG    1       24.191 -12.796   3.301  0.00  0.00    +0.220 C 
ATOM     23  O   LIG    1       23.833 -11.622   3.265  0.00  0.00    -0.280 OA
BRANCH  22  24
ATOM     24  C   LIG    1       25.615 -13.124   3.581  0.00  0.00    +0.028 A 
ATOM     25  C   LIG    1       26.547 -13.462   2.591  0.00  0.00    +0.012 A 
ATOM     26  C   LIG    1       27.854 -13.802   2.946  0.00  0.00    +0.001 A 
ATOM     27  C   LIG    1       28.241 -13.802   4.286  0.00  0.00    +0.000 A 
ATOM     28  C   LIG    1       27.325 -13.463   5.278  0.00  0.00    +0.001 A 
ATOM     29  C   LIG    1       26.019 -13.126   4.927  0.00  0.00    +0.012 A 
ENDBRANCH  22  24
ENDBRANCH  21  22
ENDBRANCH  20  21
ENDBRANCH  18  20
ENDBRANCH   1  16
TORSDOF 11
ENDMDL
MODEL 8
REMARK VINA RESULT:      -1.9      2.006      3.533
REMARK  Name = *****
REMARK                            x       y       z     vdW  Elec       q    Type
REMARK                         _______ _______ _______ _____ _____    ______ ____
ROOT
ATOM      1  C   LIG    1       22.101 -20.098   4.799  0.00  0.00    +0.200 C 
ENDROOT
BRANCH   1   4
ATOM      2  N   LIG    1       22.514 -17.702   4.465  0.00  0.00    -0.305 N 
ATOM      3  H   LIG    1       23.433 -17.899   4.846  0.00  0.00    +0.149 HD
ATOM      4  C   LIG    1       21.626 -18.738   4.286  0.00  0.00    +0.231 C 
ATOM      5  O   LIG    1       20.574 -18.596   3.663  0.00  0.00    -0.274 OA
BRANCH   2   6
ATOM      6  C   LIG    1       22.251 -16.352   3.978  0.00  0.00    +0.200 C 
BRANCH   6   9
ATOM      7  N   LIG    1       24.135 -14.777   3.837  0.00  0.00    -0.304 N 
ATOM      8  H   LIG    1       24.062 -14.941   2.837  0.00  0.00    +0.149 HD
ATOM      9  C   LIG    1       23.135 -15.286   4.639  0.00  0.00    +0.231 C 
ATOM     10  O   LIG    1       22.924 -14.872   5.775  0.00  0.00    -0.274 OA
BRANCH   7  11
ATOM     11  C   LIG    1       25.016 -13.712   4.292  0.00  0.00    +0.224 C 
BRANCH  11  13
ATOM     12  O   LIG    1       25.451 -12.344   2.333  0.00  0.00    -0.249 OA
ATOM     13  C   LIG    1       25.860 -13.177   3.143  0.00  0.00    +0.322 C 
BRANCH  13  14
ATOM     14  O   LIG    1       27.091 -13.724   3.046  0.00  0.00    -0.479 OA
ATOM     15  H   LIG    1       27.285 -14.232   3.865  0.00  0.00    +0.295 HD
ENDBRANCH  13  14
ENDBRANCH  11  13
ENDBRANCH   7  11
ENDBRANCH   6   9
ENDBRANCH   2   6
ENDBRANCH   1   4
BRANCH   1  16
ATOM     16  N   LIG    1       23.386 -19.960   5.457  0.00  0.00    -0.306 N 
ATOM     17  H   LIG    1       24.031 -19.259   5.113  0.00  0.00    +0.149 HD
ATOM     18  C   LIG    1       23.727 -20.764   6.526  0.00  0.00    +0.224 C 
ATOM     19  O   LIG    1       22.919 -21.545   7.022  0.00  0.00    -0.275 OA
BRANCH  18  20
ATOM     20  C   LIG    1       25.135 -20.520   7.061  0.00  0.00    +0.173 C 
BRANCH  20  21
ATOM     21  S   LIG    1       26.377 -21.570   6.265  0.00  0.00    -0.074 S 
BRANCH  21  22
ATOM     22  C   LIG    1       27.591 -20.347   5.925  0.00  0.00    +0.220 C 
ATOM     23  O   LIG    1       28.721 -20.425   6.398  0.00  0.00    -0.280 OA
BRANCH  22  24
ATOM     24  C   LIG    1       27.259 -19.239   4.989  0.00  0.00    +0.028 A 
ATOM     25  C   LIG    1       27.993 -18.049   4.897  0.00  0.00    +0.012 A 
ATOM     26  C   LIG    1       27.584 -17.039   4.023  0.00  0.00    +0.001 A 
ATOM     27  C   LIG    1       26.447 -17.210   3.233  0.00  0.00    +0.000 A 
ATOM     28  C   LIG    1       25.713 -18.390   3.313  0.00  0.00    +0.001 A 
ATOM     29  C   LIG    1       26.117 -19.399   4.186  0.00  0.00    +0.012 A 
ENDBRANCH  22  24
ENDBRANCH  21  22
ENDBRANCH  20  21
ENDBRANCH  18  20
ENDBRANCH   1  16
TORSDOF 11
ENDMDL
MODEL 9
REMARK VINA RESULT:      -1.8      2.709      7.014
REMARK  Name = *****
REMARK                            x       y       z     vdW  Elec       q    Type
REMARK                         _______ _______ _______ _____ _____    ______ ____
ROOT
ATOM      1  C   LIG    1       22.571 -16.750   4.957  0.00  0.00    +0.200 C 
ENDROOT
BRANCH   1   4
ATOM      2  N   LIG    1       22.334 -19.178   5.223  0.00  0.00    -0.305 N 
ATOM      3  H   LIG    1       21.745 -18.943   6.015  0.00  0.00    +0.149 HD
ATOM      4  C   LIG    1       22.857 -18.165   4.452  0.00  0.00    +0.231 C 
ATOM      5  O   LIG    1       23.420 -18.383   3.381  0.00  0.00    -0.274 OA
BRANCH   2   6
ATOM      6  C   LIG    1       22.456 -20.585   4.854  0.00  0.00    +0.200 C 
BRANCH   6   9
ATOM      7  N   LIG    1       24.503 -21.058   6.132  0.00  0.00    -0.304 N 
ATOM      8  H   LIG    1       23.901 -20.942   6.941  0.00  0.00    +0.149 HD
ATOM      9  C   LIG    1       23.901 -21.098   4.893  0.00  0.00    +0.231 C 
ATOM     10  O   LIG    1       24.454 -21.572   3.904  0.00  0.00    -0.274 OA
BRANCH   7  11
ATOM     11  C   LIG    1       25.848 -21.572   6.350  0.00  0.00    +0.224 C 
BRANCH  11  13
ATOM     12  O   LIG    1       27.668 -20.091   6.973  0.00  0.00    -0.249 OA
ATOM     13  C   LIG    1       26.889 -20.488   6.106  0.00  0.00    +0.322 C 
BRANCH  13  14
ATOM     14  O   LIG    1       26.866 -19.952   4.866  0.00  0.00    -0.479 OA
ATOM     15  H   LIG    1       26.280 -19.162   4.866  0.00  0.00    +0.295 HD
ENDBRANCH  13  14
ENDBRANCH  11  13
ENDBRANCH   7  11
ENDBRANCH   6   9
ENDBRANCH   2   6
ENDBRANCH   1   4
BRANCH   1  16
ATOM     16  N   LIG    1       22.674 -15.802   3.865  0.00  0.00    -0.306 N 
ATOM     17  H   LIG    1       22.344 -16.082   2.950  0.00  0.00    +0.149 HD
ATOM     18  C   LIG    1       23.209 -14.545   4.063  0.00  0.00    +0.224 C 
ATOM     19  O   LIG    1       23.516 -14.150   5.186  0.00  0.00    -0.275 OA
BRANCH  18  20
ATOM     20  C   LIG    1       23.292 -13.698   2.796  0.00  0.00    +0.173 C 
BRANCH  20  21
ATOM     21  S   LIG    1       23.877 -12.016   3.116  0.00  0.00    -0.074 S 
BRANCH  21  22
ATOM     22  C   LIG    1       25.566 -12.227   2.682  0.00  0.00    +0.220 C 
ATOM     23  O   LIG    1       26.089 -11.535   1.812  0.00  0.00    -0.280 OA
BRANCH  22  24
ATOM     24  C   LIG    1       26.389 -13.212   3.434  0.00  0.00    +0.028 A 
ATOM     25  C   LIG    1       26.846 -14.422   2.893  0.00  0.00    +0.012 A 
ATOM     26  C   LIG    1       27.575 -15.312   3.684  0.00  0.00    +0.001 A 
ATOM     27  C   LIG    1       27.857 -15.002   5.015  0.00  0.00    +0.000 A 
ATOM     28  C   LIG    1       27.412 -13.801   5.560  0.00  0.00    +0.001 A 
ATOM     29  C   LIG    1       26.682 -12.911   4.774  0.00  0.00    +0.012 A 
ENDBRANCH  22  24
ENDBRANCH  21  22
ENDBRANCH  20  21
ENDBRANCH  18  20
ENDBRANCH   1  16
TORSDOF 11
ENDMDL
