MODEL 1
REMARK VINA RESULT:      -3.1      0.000      0.000
REMARK  Name = *****
REMARK                            x       y       z     vdW  Elec       q    Type
REMARK                         _______ _______ _______ _____ _____    ______ ____
ROOT
ATOM      1  C   LIG    1       25.176 -17.287   3.290  0.00  0.00    +0.234 C 
ATOM      2  N   LIG    1       24.191 -17.695   4.157  0.00  0.00    -0.284 N 
ATOM      3  H   LIG    1       23.561 -16.952   4.411  0.00  0.00    +0.155 HD
ATOM      4  O   LIG    1       25.901 -18.073   2.634  0.00  0.00    -0.274 OA
ENDROOT
BRANCH   2   5
ATOM      5  C   LIG    1       23.822 -19.030   4.513  0.00  0.00    +0.039 A 
ATOM      6  C   LIG    1       22.435 -19.386   4.513  0.00  0.00    -0.029 A 
ATOM      7  C   LIG    1       21.337 -18.577   3.867  0.00  0.00    +0.045 C 
ATOM      8  C   LIG    1       22.022 -20.651   4.992  0.00  0.00    +0.005 A 
ATOM      9  C   LIG    1       22.932 -21.571   5.479  0.00  0.00    +0.001 A 
ATOM     10  C   LIG    1       24.282 -21.264   5.438  0.00  0.00    +0.005 A 
ATOM     11  C   LIG    1       24.746 -20.021   4.951  0.00  0.00    -0.029 A 
ATOM     12  C   LIG    1       26.245 -19.861   4.968  0.00  0.00    +0.045 C 
ENDBRANCH   2   5
BRANCH   1  13
ATOM     13  C   LIG    1       25.431 -15.741   3.146  0.00  0.00    +0.143 C 
BRANCH  13  14
ATOM     14  C   LIG    1       24.525 -14.998   4.184  0.00  0.00    +0.025 C 
ATOM     15  C   LIG    1       23.966 -13.622   3.842  0.00  0.00    +0.006 C 
ENDBRANCH  13  14
BRANCH  13  16
ATOM     16  N   LIG    1       26.910 -15.498   3.143  0.00  0.00    -0.292 NA
BRANCH  16  17
ATOM     17  C   LIG    1       27.499 -15.740   4.481  0.00  0.00    +0.082 C 
ATOM     18  C   LIG    1       28.367 -16.996   4.558  0.00  0.00    +0.020 C 
ENDBRANCH  16  17
BRANCH  16  19
ATOM     19  C   LIG    1       27.305 -14.176   2.594  0.00  0.00    +0.085 C 
BRANCH  19  21
ATOM     20  C   LIG    1       29.075 -12.756   3.825  0.00  0.00    +0.005 C 
ATOM     21  C   LIG    1       27.603 -13.123   3.676  0.00  0.00    +0.012 C 
ENDBRANCH  19  21
ENDBRANCH  16  19
ENDBRANCH  13  16
ENDBRANCH   1  13
TORSDOF 7
ENDMDL
MODEL 2
REMARK VINA RESULT:      -3.1      1.225      5.982
REMARK  Name = *****
REMARK                            x       y       z     vdW  Elec       q    Type
REMARK                         _______ _______ _______ _____ _____    ______ ____
ROOT
ATOM      1  C   LIG    1       24.973 -17.723   3.645  0.00  0.00    +0.234 C 
ATOM      2  N   LIG    1       24.859 -16.443   4.135  0.00  0.00    -0.284 N 
ATOM      3  H   LIG    1       24.344 -16.400   4.998  0.00  0.00    +0.155 HD
ATOM      4  O   LIG    1       25.782 -18.059   2.747  0.00  0.00    -0.274 OA
ENDROOT
BRANCH   2   5
ATOM      5  C   LIG    1       25.571 -15.272   3.726  0.00  0.00    +0.039 A 
ATOM      6  C   LIG    1       24.830 -14.151   3.231  0.00  0.00    -0.029 A 
ATOM      7  C   LIG    1       23.341 -13.963   3.393  0.00  0.00    +0.045 C 
ATOM      8  C   LIG    1       25.504 -13.033   2.688  0.00  0.00    +0.005 A 
ATOM      9  C   LIG    1       26.884 -12.989   2.609  0.00  0.00    +0.001 A 
ATOM     10  C   LIG    1       27.618 -14.041   3.131  0.00  0.00    +0.005 A 
ATOM     11  C   LIG    1       26.992 -15.173   3.701  0.00  0.00    -0.029 A 
ATOM     12  C   LIG    1       27.942 -16.215   4.229  0.00  0.00    +0.045 C 
ENDBRANCH   2   5
BRANCH   1  13
ATOM     13  C   LIG    1       23.999 -18.816   4.220  0.00  0.00    +0.143 C 
BRANCH  13  14
ATOM     14  C   LIG    1       22.702 -18.826   3.345  0.00  0.00    +0.025 C 
ATOM     15  C   LIG    1       21.356 -18.530   3.995  0.00  0.00    +0.006 C 
ENDBRANCH  13  14
BRANCH  13  16
ATOM     16  N   LIG    1       24.770 -20.086   4.420  0.00  0.00    -0.292 NA
BRANCH  16  17
ATOM     17  C   LIG    1       23.884 -21.271   4.361  0.00  0.00    +0.082 C 
ATOM     18  C   LIG    1       23.151 -21.563   5.671  0.00  0.00    +0.020 C 
ENDBRANCH  16  17
BRANCH  16  19
ATOM     19  C   LIG    1       25.622 -20.091   5.637  0.00  0.00    +0.085 C 
BRANCH  19  21
ATOM     20  C   LIG    1       28.028 -20.293   6.553  0.00  0.00    +0.005 C 
ATOM     21  C   LIG    1       27.131 -20.116   5.333  0.00  0.00    +0.012 C 
ENDBRANCH  19  21
ENDBRANCH  16  19
ENDBRANCH  13  16
ENDBRANCH   1  13
TORSDOF 7
ENDMDL
MODEL 3
REMARK VINA RESULT:      -3.0      1.045      1.668
REMARK  Name = *****
REMARK                            x       y       z     vdW  Elec       q    Type
REMARK                         _______ _______ _______ _____ _____    ______ ____
ROOT
ATOM      1  C   LIG    1       25.163 -16.834   3.455  0.00  0.00    +0.234 C 
ATOM      2  N   LIG    1       24.137 -17.459   4.125  0.00  0.00    -0.284 N 
ATOM      3  H   LIG    1       23.352 -16.852   4.291  0.00  0.00    +0.155 HD
ATOM      4  O   LIG    1       26.113 -17.442   2.907  0.00  0.00    -0.274 OA
ENDROOT
BRANCH   2   5
ATOM      5  C   LIG    1       23.958 -18.858   4.364  0.00  0.00    +0.039 A 
ATOM      6  C   LIG    1       22.628 -19.376   4.468  0.00  0.00    -0.029 A 
ATOM      7  C   LIG    1       21.381 -18.643   4.036  0.00  0.00    +0.045 C 
ATOM      8  C   LIG    1       22.413 -20.723   4.842  0.00  0.00    +0.005 A 
ATOM      9  C   LIG    1       23.468 -21.572   5.124  0.00  0.00    +0.001 A 
ATOM     10  C   LIG    1       24.762 -21.102   4.977  0.00  0.00    +0.005 A 
ATOM     11  C   LIG    1       25.029 -19.770   4.588  0.00  0.00    -0.029 A 
ATOM     12  C   LIG    1       26.493 -19.434   4.466  0.00  0.00    +0.045 C 
ENDBRANCH   2   5
BRANCH   1  13
ATOM     13  C   LIG    1       25.158 -15.262   3.413  0.00  0.00    +0.143 C 
BRANCH  13  14
ATOM     14  C   LIG    1       24.652 -14.736   4.798  0.00  0.00    +0.025 C 
ATOM     15  C   LIG    1       23.624 -13.613   4.843  0.00  0.00    +0.006 C 
ENDBRANCH  13  14
BRANCH  13  16
ATOM     16  N   LIG    1       26.477 -14.794   2.878  0.00  0.00    -0.292 NA
BRANCH  16  17
ATOM     17  C   LIG    1       27.482 -14.665   3.958  0.00  0.00    +0.082 C 
ATOM     18  C   LIG    1       28.316 -13.385   3.878  0.00  0.00    +0.020 C 
ENDBRANCH  16  17
BRANCH  16  19
ATOM     19  C   LIG    1       26.392 -13.564   2.049  0.00  0.00    +0.085 C 
BRANCH  19  21
ATOM     20  C   LIG    1       24.705 -11.613   2.155  0.00  0.00    +0.005 C 
ATOM     21  C   LIG    1       24.951 -13.078   1.814  0.00  0.00    +0.012 C 
ENDBRANCH  19  21
ENDBRANCH  16  19
ENDBRANCH  13  16
ENDBRANCH   1  13
TORSDOF 7
ENDMDL
MODEL 4
REMARK VINA RESULT:      -3.0      1.457      6.149
REMARK  Name = *****
REMARK                            x       y       z     vdW  Elec       q    Type
REMARK                         _______ _______ _______ _____ _____    ______ ____
ROOT
ATOM      1  C   LIG    1       26.463 -17.266   3.541  0.00  0.00    +0.234 C 
ATOM      2  N   LIG    1       26.647 -16.008   4.066  0.00  0.00    -0.284 N 
ATOM      3  H   LIG    1       27.447 -15.952   4.674  0.00  0.00    +0.155 HD
ATOM      4  O   LIG    1       25.713 -17.514   2.567  0.00  0.00    -0.274 OA
ENDROOT
BRANCH   2   5
ATOM      5  C   LIG    1       26.030 -14.782   3.665  0.00  0.00    +0.039 A 
ATOM      6  C   LIG    1       24.603 -14.681   3.707  0.00  0.00    -0.029 A 
ATOM      7  C   LIG    1       23.692 -15.640   4.436  0.00  0.00    +0.045 C 
ATOM      8  C   LIG    1       23.951 -13.538   3.188  0.00  0.00    +0.005 A 
ATOM      9  C   LIG    1       24.662 -12.497   2.620  0.00  0.00    +0.001 A 
ATOM     10  C   LIG    1       26.046 -12.554   2.618  0.00  0.00    +0.005 A 
ATOM     11  C   LIG    1       26.744 -13.666   3.142  0.00  0.00    -0.029 A 
ATOM     12  C   LIG    1       28.245 -13.555   3.069  0.00  0.00    +0.045 C 
ENDBRANCH   2   5
BRANCH   1  13
ATOM     13  C   LIG    1       27.210 -18.465   4.233  0.00  0.00    +0.143 C 
BRANCH  13  14
ATOM     14  C   LIG    1       28.345 -17.877   5.137  0.00  0.00    +0.025 C 
ATOM     15  C   LIG    1       29.475 -18.785   5.606  0.00  0.00    +0.006 C 
ENDBRANCH  13  14
BRANCH  13  16
ATOM     16  N   LIG    1       26.187 -19.384   4.829  0.00  0.00    -0.292 NA
BRANCH  16  17
ATOM     17  C   LIG    1       26.803 -20.322   5.796  0.00  0.00    +0.082 C 
ATOM     18  C   LIG    1       25.973 -20.540   7.062  0.00  0.00    +0.020 C 
ENDBRANCH  16  17
BRANCH  16  19
ATOM     19  C   LIG    1       25.353 -20.092   3.824  0.00  0.00    +0.085 C 
BRANCH  19  21
ATOM     20  C   LIG    1       23.028 -19.141   4.419  0.00  0.00    +0.005 C 
ATOM     21  C   LIG    1       23.917 -20.373   4.303  0.00  0.00    +0.012 C 
ENDBRANCH  19  21
ENDBRANCH  16  19
ENDBRANCH  13  16
ENDBRANCH   1  13
TORSDOF 7
ENDMDL
MODEL 5
REMARK VINA RESULT:      -2.8      1.304      2.766
REMARK  Name = *****
REMARK                            x       y       z     vdW  Elec       q    Type
REMARK                         _______ _______ _______ _____ _____    ______ ____
ROOT
ATOM      1  C   LIG    1       25.415 -16.727   3.611  0.00  0.00    +0.234 C 
ATOM      2  N   LIG    1       24.388 -17.274   4.344  0.00  0.00    -0.284 N 
ATOM      3  H   LIG    1       23.796 -16.579   4.767  0.00  0.00    +0.155 HD
ATOM      4  O   LIG    1       26.108 -17.371   2.788  0.00  0.00    -0.274 OA
ENDROOT
BRANCH   2   5
ATOM      5  C   LIG    1       23.935 -18.630   4.357  0.00  0.00    +0.039 A 
ATOM      6  C   LIG    1       22.529 -18.890   4.277  0.00  0.00    -0.029 A 
ATOM      7  C   LIG    1       21.489 -17.878   3.861  0.00  0.00    +0.045 C 
ATOM      8  C   LIG    1       22.036 -20.207   4.428  0.00  0.00    +0.005 A 
ATOM      9  C   LIG    1       22.883 -21.273   4.663  0.00  0.00    +0.001 A 
ATOM     10  C   LIG    1       24.250 -21.049   4.691  0.00  0.00    +0.005 A 
ATOM     11  C   LIG    1       24.793 -19.755   4.527  0.00  0.00    -0.029 A 
ATOM     12  C   LIG    1       26.298 -19.696   4.573  0.00  0.00    +0.045 C 
ENDBRANCH   2   5
BRANCH   1  13
ATOM     13  C   LIG    1       25.761 -15.212   3.855  0.00  0.00    +0.143 C 
BRANCH  13  14
ATOM     14  C   LIG    1       27.290 -15.010   3.587  0.00  0.00    +0.025 C 
ATOM     15  C   LIG    1       27.965 -13.720   4.035  0.00  0.00    +0.006 C 
ENDBRANCH  13  14
BRANCH  13  16
ATOM     16  N   LIG    1       24.761 -14.369   3.123  0.00  0.00    -0.292 NA
BRANCH  16  17
ATOM     17  C   LIG    1       25.420 -13.488   2.132  0.00  0.00    +0.082 C 
ATOM     18  C   LIG    1       24.640 -12.208   1.825  0.00  0.00    +0.020 C 
ENDBRANCH  16  17
BRANCH  16  19
ATOM     19  C   LIG    1       23.841 -13.614   4.011  0.00  0.00    +0.085 C 
BRANCH  19  21
ATOM     20  C   LIG    1       23.716 -11.453   5.419  0.00  0.00    +0.005 C 
ATOM     21  C   LIG    1       24.560 -12.634   4.955  0.00  0.00    +0.012 C 
ENDBRANCH  19  21
ENDBRANCH  16  19
ENDBRANCH  13  16
ENDBRANCH   1  13
TORSDOF 7
ENDMDL
MODEL 6
REMARK VINA RESULT:      -2.8      1.468      1.746
REMARK  Name = *****
REMARK                            x       y       z     vdW  Elec       q    Type
REMARK                         _______ _______ _______ _____ _____    ______ ____
ROOT
ATOM      1  C   LIG    1       24.021 -16.079   4.131  0.00  0.00    +0.234 C 
ATOM      2  N   LIG    1       24.421 -17.341   3.759  0.00  0.00    -0.284 N 
ATOM      3  H   LIG    1       25.310 -17.346   3.288  0.00  0.00    +0.155 HD
ATOM      4  O   LIG    1       23.100 -15.849   4.951  0.00  0.00    -0.274 OA
ENDROOT
BRANCH   2   5
ATOM      5  C   LIG    1       23.880 -18.598   4.173  0.00  0.00    +0.039 A 
ATOM      6  C   LIG    1       22.458 -18.755   4.227  0.00  0.00    -0.029 A 
ATOM      7  C   LIG    1       21.463 -17.820   3.584  0.00  0.00    +0.045 C 
ATOM      8  C   LIG    1       21.889 -19.934   4.763  0.00  0.00    +0.005 A 
ATOM      9  C   LIG    1       22.677 -20.957   5.257  0.00  0.00    +0.001 A 
ATOM     10  C   LIG    1       24.054 -20.845   5.165  0.00  0.00    +0.005 A 
ATOM     11  C   LIG    1       24.671 -19.696   4.620  0.00  0.00    -0.029 A 
ATOM     12  C   LIG    1       26.177 -19.748   4.588  0.00  0.00    +0.045 C 
ENDBRANCH   2   5
BRANCH   1  13
ATOM     13  C   LIG    1       24.739 -14.854   3.452  0.00  0.00    +0.143 C 
BRANCH  13  14
ATOM     14  C   LIG    1       23.710 -13.679   3.350  0.00  0.00    +0.025 C 
ATOM     15  C   LIG    1       24.074 -12.431   2.555  0.00  0.00    +0.006 C 
ENDBRANCH  13  14
BRANCH  13  16
ATOM     16  N   LIG    1       26.054 -14.633   4.135  0.00  0.00    -0.292 NA
BRANCH  16  17
ATOM     17  C   LIG    1       26.005 -13.455   5.032  0.00  0.00    +0.082 C 
ATOM     18  C   LIG    1       26.801 -13.628   6.326  0.00  0.00    +0.020 C 
ENDBRANCH  16  17
BRANCH  16  19
ATOM     19  C   LIG    1       27.215 -14.577   3.209  0.00  0.00    +0.085 C 
BRANCH  19  21
ATOM     20  C   LIG    1       29.115 -12.897   3.690  0.00  0.00    +0.005 C 
ATOM     21  C   LIG    1       27.776 -13.158   3.010  0.00  0.00    +0.012 C 
ENDBRANCH  19  21
ENDBRANCH  16  19
ENDBRANCH  13  16
ENDBRANCH   1  13
TORSDOF 7
ENDMDL
MODEL 7
REMARK VINA RESULT:      -2.7      1.492      6.256
REMARK  Name = *****
REMARK                            x       y       z     vdW  Elec       q    Type
REMARK                         _______ _______ _______ _____ _____    ______ ____
ROOT
ATOM      1  C   LIG    1       26.321 -17.431   3.513  0.00  0.00    +0.234 C 
ATOM      2  N   LIG    1       26.335 -16.164   4.046  0.00  0.00    -0.284 N 
ATOM      3  H   LIG    1       27.091 -16.022   4.696  0.00  0.00    +0.155 HD
ATOM      4  O   LIG    1       25.655 -17.757   2.501  0.00  0.00    -0.274 OA
ENDROOT
BRANCH   2   5
ATOM      5  C   LIG    1       25.605 -15.013   3.614  0.00  0.00    +0.039 A 
ATOM      6  C   LIG    1       26.317 -13.931   3.007  0.00  0.00    -0.029 A 
ATOM      7  C   LIG    1       27.732 -14.014   2.487  0.00  0.00    +0.045 C 
ATOM      8  C   LIG    1       25.652 -12.722   2.695  0.00  0.00    +0.005 A 
ATOM      9  C   LIG    1       24.309 -12.545   2.972  0.00  0.00    +0.001 A 
ATOM     10  C   LIG    1       23.591 -13.600   3.511  0.00  0.00    +0.005 A 
ATOM     11  C   LIG    1       24.207 -14.834   3.822  0.00  0.00    -0.029 A 
ATOM     12  C   LIG    1       23.275 -15.873   4.390  0.00  0.00    +0.045 C 
ENDBRANCH   2   5
BRANCH   1  13
ATOM     13  C   LIG    1       27.162 -18.542   4.243  0.00  0.00    +0.143 C 
BRANCH  13  14
ATOM     14  C   LIG    1       28.332 -17.843   5.013  0.00  0.00    +0.025 C 
ATOM     15  C   LIG    1       29.412 -18.695   5.668  0.00  0.00    +0.006 C 
ENDBRANCH  13  14
BRANCH  13  16
ATOM     16  N   LIG    1       26.222 -19.445   4.982  0.00  0.00    -0.292 NA
BRANCH  16  17
ATOM     17  C   LIG    1       26.950 -20.339   5.912  0.00  0.00    +0.082 C 
ATOM     18  C   LIG    1       26.092 -20.869   7.061  0.00  0.00    +0.020 C 
ENDBRANCH  16  17
BRANCH  16  19
ATOM     19  C   LIG    1       25.290 -20.198   4.104  0.00  0.00    +0.085 C 
BRANCH  19  21
ATOM     20  C   LIG    1       23.133 -20.072   5.518  0.00  0.00    +0.005 C 
ATOM     21  C   LIG    1       23.829 -19.726   4.206  0.00  0.00    +0.012 C 
ENDBRANCH  19  21
ENDBRANCH  16  19
ENDBRANCH  13  16
ENDBRANCH   1  13
TORSDOF 7
ENDMDL
MODEL 8
REMARK VINA RESULT:      -2.7      1.476      2.620
REMARK  Name = *****
REMARK                            x       y       z     vdW  Elec       q    Type
REMARK                         _______ _______ _______ _____ _____    ______ ____
ROOT
ATOM      1  C   LIG    1       24.144 -16.043   4.045  0.00  0.00    +0.234 C 
ATOM      2  N   LIG    1       24.556 -17.317   3.732  0.00  0.00    -0.284 N 
ATOM      3  H   LIG    1       25.466 -17.339   3.303  0.00  0.00    +0.155 HD
ATOM      4  O   LIG    1       23.186 -15.788   4.814  0.00  0.00    -0.274 OA
ENDROOT
BRANCH   2   5
ATOM      5  C   LIG    1       23.994 -18.560   4.159  0.00  0.00    +0.039 A 
ATOM      6  C   LIG    1       24.869 -19.663   4.416  0.00  0.00    -0.029 A 
ATOM      7  C   LIG    1       26.366 -19.555   4.584  0.00  0.00    +0.045 C 
ATOM      8  C   LIG    1       24.341 -20.944   4.703  0.00  0.00    +0.005 A 
ATOM      9  C   LIG    1       22.978 -21.172   4.737  0.00  0.00    +0.001 A 
ATOM     10  C   LIG    1       22.116 -20.105   4.544  0.00  0.00    +0.005 A 
ATOM     11  C   LIG    1       22.594 -18.803   4.272  0.00  0.00    -0.029 A 
ATOM     12  C   LIG    1       21.518 -17.763   4.101  0.00  0.00    +0.045 C 
ENDBRANCH   2   5
BRANCH   1  13
ATOM     13  C   LIG    1       24.896 -14.842   3.363  0.00  0.00    +0.143 C 
BRANCH  13  14
ATOM     14  C   LIG    1       23.877 -13.668   3.180  0.00  0.00    +0.025 C 
ATOM     15  C   LIG    1       24.229 -12.507   2.258  0.00  0.00    +0.006 C 
ENDBRANCH  13  14
BRANCH  13  16
ATOM     16  N   LIG    1       26.180 -14.603   4.097  0.00  0.00    -0.292 NA
BRANCH  16  17
ATOM     17  C   LIG    1       26.074 -13.437   5.004  0.00  0.00    +0.082 C 
ATOM     18  C   LIG    1       26.835 -13.604   6.320  0.00  0.00    +0.020 C 
ENDBRANCH  16  17
BRANCH  16  19
ATOM     19  C   LIG    1       27.373 -14.514   3.216  0.00  0.00    +0.085 C 
BRANCH  19  21
ATOM     20  C   LIG    1       29.191 -12.766   3.768  0.00  0.00    +0.005 C 
ATOM     21  C   LIG    1       27.895 -13.078   3.029  0.00  0.00    +0.012 C 
ENDBRANCH  19  21
ENDBRANCH  16  19
ENDBRANCH  13  16
ENDBRANCH   1  13
TORSDOF 7
ENDMDL
MODEL 9
REMARK VINA RESULT:      -2.4      1.222      6.249
REMARK  Name = *****
REMARK                            x       y       z     vdW  Elec       q    Type
REMARK                         _______ _______ _______ _____ _____    ______ ____
ROOT
ATOM      1  C   LIG    1       24.883 -17.687   3.660  0.00  0.00    +0.234 C 
ATOM      2  N   LIG    1       24.814 -16.408   4.160  0.00  0.00    -0.284 N 
ATOM      3  H   LIG    1       24.377 -16.366   5.066  0.00  0.00    +0.155 HD
ATOM      4  O   LIG    1       25.610 -18.022   2.694  0.00  0.00    -0.274 OA
ENDROOT
BRANCH   2   5
ATOM      5  C   LIG    1       25.488 -15.237   3.692  0.00  0.00    +0.039 A 
ATOM      6  C   LIG    1       26.916 -15.185   3.767  0.00  0.00    -0.029 A 
ATOM      7  C   LIG    1       27.811 -16.377   4.002  0.00  0.00    +0.045 C 
ATOM      8  C   LIG    1       27.606 -13.992   3.445  0.00  0.00    +0.005 A 
ATOM      9  C   LIG    1       26.931 -12.848   3.061  0.00  0.00    +0.001 A 
ATOM     10  C   LIG    1       25.552 -12.896   2.932  0.00  0.00    +0.005 A 
ATOM     11  C   LIG    1       24.819 -14.069   3.224  0.00  0.00    -0.029 A 
ATOM     12  C   LIG    1       23.332 -13.946   3.018  0.00  0.00    +0.045 C 
ENDBRANCH   2   5
BRANCH   1  13
ATOM     13  C   LIG    1       23.964 -18.781   4.318  0.00  0.00    +0.143 C 
BRANCH  13  14
ATOM     14  C   LIG    1       22.585 -18.771   3.577  0.00  0.00    +0.025 C 
ATOM     15  C   LIG    1       21.456 -17.897   4.106  0.00  0.00    +0.006 C 
ENDBRANCH  13  14
BRANCH  13  16
ATOM     16  N   LIG    1       24.741 -20.058   4.424  0.00  0.00    -0.292 NA
BRANCH  16  17
ATOM     17  C   LIG    1       23.856 -21.240   4.308  0.00  0.00    +0.082 C 
ATOM     18  C   LIG    1       23.064 -21.548   5.579  0.00  0.00    +0.020 C 
ENDBRANCH  16  17
BRANCH  16  19
ATOM     19  C   LIG    1       25.615 -20.136   5.622  0.00  0.00    +0.085 C 
BRANCH  19  21
ATOM     20  C   LIG    1       28.042 -20.115   6.504  0.00  0.00    +0.005 C 
ATOM     21  C   LIG    1       27.112 -19.970   5.305  0.00  0.00    +0.012 C 
ENDBRANCH  19  21
ENDBRANCH  16  19
ENDBRANCH  13  16
ENDBRANCH   1  13
TORSDOF 7
ENDMDL
