MODEL 1
REMARK VINA RESULT:      29.7      0.000      0.000
REMARK  Name = *****
REMARK                            x       y       z     vdW  Elec       q    Type
REMARK                         _______ _______ _______ _____ _____    ______ ____
ROOT
ATOM      1  C   LIG    1       21.547 -20.470   3.704  0.00  0.00    +0.176 C 
ATOM      2  C   LIG    1       22.511 -19.192   3.424  0.00  0.00    +0.019 C 
ATOM      3  C   LIG    1       21.891 -18.140   2.464  0.00  0.00    +0.016 C 
ATOM      4  C   LIG    1       23.727 -19.769   2.605  0.00  0.00    +0.006 C 
ATOM      5  C   LIG    1       25.112 -19.116   2.840  0.00  0.00    +0.020 C 
ATOM      6  C   LIG    1       25.358 -18.774   4.305  0.00  0.00    -0.055 C 
ATOM      7  C   LIG    1       24.291 -17.826   4.869  0.00  0.00    +0.046 C 
ATOM      8  C   LIG    1       26.463 -19.206   4.966  0.00  0.00    -0.044 C 
ATOM      9  C   LIG    1       27.572 -19.817   4.225  0.00  0.00    -0.041 C 
ATOM     10  C   LIG    1       28.535 -20.545   4.813  0.00  0.00    +0.050 C 
ATOM     11  C   LIG    1       28.495 -20.826   6.264  0.00  0.00    +0.157 C 
ATOM     12  O   LIG    1       29.371 -21.527   6.766  0.00  0.00    -0.293 OA
ATOM     13  C   LIG    1       27.324 -20.305   7.059  0.00  0.00    +0.083 C 
ATOM     14  C   LIG    1       27.602 -19.540   2.746  0.00  0.00    +0.036 C 
ATOM     15  C   LIG    1       26.756 -19.028   6.441  0.00  0.00    +0.043 C 
ATOM     16  C   LIG    1       26.248 -19.920   2.171  0.00  0.00    +0.013 C 
ATOM     17  C   LIG    1       23.615 -21.283   2.736  0.00  0.00    +0.009 C 
ATOM     18  C   LIG    1       22.906 -18.503   4.769  0.00  0.00    +0.024 C 
ATOM     19  C   LIG    1       22.113 -21.527   2.741  0.00  0.00    +0.057 C 
ENDROOT
BRANCH   7  20
ATOM     20  C   LIG    1       24.380 -16.394   4.321  0.00  0.00    -0.040 A 
ATOM     21  C   LIG    1       23.367 -15.450   4.516  0.00  0.00    +0.006 A 
ATOM     22  C   LIG    1       23.482 -14.132   4.049  0.00  0.00    +0.023 A 
ATOM     23  C   LIG    1       24.637 -13.659   3.420  0.00  0.00    +0.029 A 
ATOM     24  C   LIG    1       25.648 -14.613   3.220  0.00  0.00    +0.023 A 
ATOM     25  C   LIG    1       25.534 -15.940   3.672  0.00  0.00    +0.006 A 
BRANCH  23  26
ATOM     26  N   LIG    1       24.765 -12.332   2.983  0.00  0.00    -0.336 N 
ATOM     27  C   LIG    1       25.747 -12.045   1.934  0.00  0.00    +0.129 C 
ATOM     28  C   LIG    1       23.539 -11.536   2.900  0.00  0.00    +0.129 C 
ENDBRANCH  23  26
ENDBRANCH   7  20
BRANCH   1  29
ATOM     29  C   LIG    1       20.042 -20.196   3.405  0.00  0.00    +0.174 C 
ATOM     30  O   LIG    1       19.353 -20.985   2.751  0.00  0.00    -0.293 OA
ATOM     31  C   LIG    1       19.432 -18.892   3.869  0.00  0.00    +0.090 C 
ENDBRANCH   1  29
BRANCH   1  32
ATOM     32  O   LIG    1       21.769 -20.936   5.068  0.00  0.00    -0.450 OA
BRANCH  32  34
ATOM     33  C   LIG    1       23.953 -21.386   5.900  0.00  0.00    +0.136 C 
ATOM     34  C   LIG    1       22.765 -20.436   5.834  0.00  0.00    +0.305 C 
ATOM     35  O   LIG    1       22.748 -19.368   6.391  0.00  0.00    -0.251 OA
ENDBRANCH  32  34
ENDBRANCH   1  32
TORSDOF 5
ENDMDL
