MODEL 1
REMARK VINA RESULT:      -5.8      0.000      0.000
REMARK  Name = *****
REMARK                            x       y       z     vdW  Elec       q    Type
REMARK                         _______ _______ _______ _____ _____    ______ ____
ROOT
ATOM      1  C   LIG    1       25.039 -31.365   7.543  0.00  0.00    +0.183 C 
ATOM      2  C   LIG    1       24.795 -30.619   8.920  0.00  0.00    +0.021 C 
ATOM      3  C   LIG    1       25.552 -29.259   9.006  0.00  0.00    +0.016 C 
ATOM      4  C   LIG    1       25.451 -31.548  10.004  0.00  0.00    +0.003 C 
ATOM      5  C   LIG    1       24.573 -32.248  11.051  0.00  0.00    -0.000 C 
ATOM      6  C   LIG    1       23.249 -31.562  11.406  0.00  0.00    +0.035 C 
ATOM      7  C   LIG    1       22.528 -31.200  10.085  0.00  0.00    +0.120 C 
ATOM      8  C   LIG    1       23.247 -30.522  12.606  0.00  0.00    +0.013 C 
ATOM      9  C   LIG    1       21.905 -30.723  13.374  0.00  0.00    +0.020 C 
ATOM     10  C   LIG    1       24.388 -30.740  13.632  0.00  0.00    -0.056 C 
ATOM     11  C   LIG    1       24.542 -29.840  14.634  0.00  0.00    +0.051 C 
ATOM     12  C   LIG    1       24.794 -28.467  14.054  0.00  0.00    +0.179 C 
ATOM     13  O   LIG    1       25.498 -27.647  14.626  0.00  0.00    -0.288 OA
ATOM     14  C   LIG    1       24.041 -28.126  12.817  0.00  0.00    +0.047 C 
ATOM     15  C   LIG    1       25.662 -31.395  13.165  0.00  0.00    +0.032 C 
ATOM     16  C   LIG    1       23.302 -29.057  12.190  0.00  0.00    -0.012 C 
ATOM     17  C   LIG    1       25.389 -32.610  12.300  0.00  0.00    +0.008 C 
ATOM     18  C   LIG    1       26.253 -32.629   9.254  0.00  0.00    +0.009 C 
ATOM     19  C   LIG    1       23.304 -30.286   9.143  0.00  0.00    +0.043 C 
ATOM     20  C   LIG    1       26.298 -32.176   7.827  0.00  0.00    +0.057 C 
ENDROOT
BRANCH   1  21
ATOM     21  C   LIG    1       25.211 -30.363   6.349  0.00  0.00    +0.214 C 
ATOM     22  O   LIG    1       26.143 -30.501   5.548  0.00  0.00    -0.289 OA
BRANCH  21  23
ATOM     23  C   LIG    1       24.193 -29.218   6.156  0.00  0.00    +0.310 C 
BRANCH  23  24
ATOM     24  O   LIG    1       24.515 -28.334   5.067  0.00  0.00    -0.457 OA
BRANCH  24  25
ATOM     25  C   LIG    1       25.265 -27.228   5.327  0.00  0.00    +0.307 C 
ATOM     26  O   LIG    1       26.376 -26.984   4.899  0.00  0.00    -0.251 OA
BRANCH  25  27
ATOM     27  C   LIG    1       24.569 -26.244   6.209  0.00  0.00    +0.117 C 
ATOM     28  C   LIG    1       25.571 -25.166   6.556  0.00  0.00    +0.015 C 
ENDBRANCH  25  27
ENDBRANCH  24  25
ENDBRANCH  23  24
ENDBRANCH  21  23
ENDBRANCH   1  21
BRANCH   7  29
ATOM     29  O   LIG    1       21.262 -30.598  10.324  0.00  0.00    -0.391 OA
ATOM     30  H   LIG    1       21.406 -29.643  10.437  0.00  0.00    +0.210 HD
ENDBRANCH   7  29
BRANCH   1  31
ATOM     31  O   LIG    1       23.969 -32.319   7.381  0.00  0.00    -0.419 OA
BRANCH  31  32
ATOM     32  C   LIG    1       23.824 -32.829   6.127  0.00  0.00    +0.511 C 
ATOM     33  O   LIG    1       23.044 -32.442   5.294  0.00  0.00    -0.203 OA
BRANCH  32  34
ATOM     34  O   LIG    1       24.889 -33.665   5.938  0.00  0.00    -0.434 OA
BRANCH  34  36
ATOM     35  C   LIG    1       26.832 -33.657   4.427  0.00  0.00    +0.048 C 
ATOM     36  C   LIG    1       25.326 -33.824   4.578  0.00  0.00    +0.232 C 
ENDBRANCH  34  36
ENDBRANCH  32  34
ENDBRANCH  31  32
ENDBRANCH   1  31
TORSDOF 10
ENDMDL
MODEL 2
REMARK VINA RESULT:      -5.4      1.595      2.121
REMARK  Name = *****
REMARK                            x       y       z     vdW  Elec       q    Type
REMARK                         _______ _______ _______ _____ _____    ______ ____
ROOT
ATOM      1  C   LIG    1       25.359 -31.568   7.921  0.00  0.00    +0.183 C 
ATOM      2  C   LIG    1       24.445 -31.005   9.088  0.00  0.00    +0.021 C 
ATOM      3  C   LIG    1       23.695 -29.700   8.684  0.00  0.00    +0.016 C 
ATOM      4  C   LIG    1       25.449 -30.593  10.224  0.00  0.00    +0.003 C 
ATOM      5  C   LIG    1       25.452 -31.347  11.561  0.00  0.00    -0.000 C 
ATOM      6  C   LIG    1       24.132 -32.006  11.979  0.00  0.00    +0.035 C 
ATOM      7  C   LIG    1       23.597 -32.814  10.774  0.00  0.00    +0.120 C 
ATOM      8  C   LIG    1       23.120 -31.153  12.858  0.00  0.00    +0.013 C 
ATOM      9  C   LIG    1       22.489 -32.133  13.895  0.00  0.00    +0.020 C 
ATOM     10  C   LIG    1       23.791 -30.015  13.668  0.00  0.00    -0.056 C 
ATOM     11  C   LIG    1       23.003 -29.159  14.364  0.00  0.00    +0.051 C 
ATOM     12  C   LIG    1       22.050 -28.461  13.421  0.00  0.00    +0.179 C 
ATOM     13  O   LIG    1       21.670 -27.316  13.623  0.00  0.00    -0.288 OA
ATOM     14  C   LIG    1       21.505 -29.282  12.306  0.00  0.00    +0.047 C 
ATOM     15  C   LIG    1       25.070 -29.416  13.145  0.00  0.00    +0.032 C 
ATOM     16  C   LIG    1       21.967 -30.525  12.086  0.00  0.00    -0.012 C 
ATOM     17  C   LIG    1       26.045 -30.480  12.680  0.00  0.00    +0.008 C 
ATOM     18  C   LIG    1       26.869 -30.672   9.629  0.00  0.00    +0.009 C 
ATOM     19  C   LIG    1       23.349 -32.010   9.502  0.00  0.00    +0.043 C 
ATOM     20  C   LIG    1       26.675 -30.836   8.153  0.00  0.00    +0.057 C 
ENDROOT
BRANCH   1  21
ATOM     21  C   LIG    1       24.745 -31.295   6.505  0.00  0.00    +0.214 C 
ATOM     22  O   LIG    1       23.712 -31.875   6.150  0.00  0.00    -0.289 OA
BRANCH  21  23
ATOM     23  C   LIG    1       25.417 -30.273   5.561  0.00  0.00    +0.310 C 
BRANCH  23  24
ATOM     24  O   LIG    1       24.715 -29.021   5.467  0.00  0.00    -0.457 OA
BRANCH  24  25
ATOM     25  C   LIG    1       25.439 -27.867   5.486  0.00  0.00    +0.307 C 
ATOM     26  O   LIG    1       25.907 -27.287   4.527  0.00  0.00    -0.251 OA
BRANCH  25  27
ATOM     27  C   LIG    1       25.600 -27.302   6.858  0.00  0.00    +0.117 C 
ATOM     28  C   LIG    1       25.930 -25.834   6.702  0.00  0.00    +0.015 C 
ENDBRANCH  25  27
ENDBRANCH  24  25
ENDBRANCH  23  24
ENDBRANCH  21  23
ENDBRANCH   1  21
BRANCH   7  29
ATOM     29  O   LIG    1       22.391 -33.500  11.092  0.00  0.00    -0.391 OA
ATOM     30  H   LIG    1       22.421 -33.724  12.038  0.00  0.00    +0.210 HD
ENDBRANCH   7  29
BRANCH   1  31
ATOM     31  O   LIG    1       25.610 -32.958   8.212  0.00  0.00    -0.419 OA
BRANCH  31  32
ATOM     32  C   LIG    1       26.747 -33.474   7.668  0.00  0.00    +0.511 C 
ATOM     33  O   LIG    1       27.749 -33.763   8.271  0.00  0.00    -0.203 OA
BRANCH  32  34
ATOM     34  O   LIG    1       26.422 -33.825   6.386  0.00  0.00    -0.434 OA
BRANCH  34  36
ATOM     35  C   LIG    1       26.906 -33.290   4.033  0.00  0.00    +0.048 C 
ATOM     36  C   LIG    1       27.459 -33.645   5.407  0.00  0.00    +0.232 C 
ENDBRANCH  34  36
ENDBRANCH  32  34
ENDBRANCH  31  32
ENDBRANCH   1  31
TORSDOF 10
ENDMDL
MODEL 3
REMARK VINA RESULT:      -5.4      2.202      3.228
REMARK  Name = *****
REMARK                            x       y       z     vdW  Elec       q    Type
REMARK                         _______ _______ _______ _____ _____    ______ ____
ROOT
ATOM      1  C   LIG    1       25.469 -30.891  10.707  0.00  0.00    +0.183 C 
ATOM      2  C   LIG    1       24.315 -30.070  11.418  0.00  0.00    +0.021 C 
ATOM      3  C   LIG    1       24.693 -28.573  11.635  0.00  0.00    +0.016 C 
ATOM      4  C   LIG    1       24.197 -30.698  12.853  0.00  0.00    +0.003 C 
ATOM      5  C   LIG    1       22.926 -31.457  13.259  0.00  0.00    -0.000 C 
ATOM      6  C   LIG    1       21.629 -31.052  12.549  0.00  0.00    +0.035 C 
ATOM      7  C   LIG    1       21.909 -31.014  11.028  0.00  0.00    +0.120 C 
ATOM      8  C   LIG    1       20.743 -29.911  13.209  0.00  0.00    +0.013 C 
ATOM      9  C   LIG    1       19.253 -30.323  13.003  0.00  0.00    +0.020 C 
ATOM     10  C   LIG    1       20.956 -29.748  14.735  0.00  0.00    -0.056 C 
ATOM     11  C   LIG    1       20.331 -28.731  15.375  0.00  0.00    +0.051 C 
ATOM     12  C   LIG    1       20.760 -27.410  14.776  0.00  0.00    +0.179 C 
ATOM     13  O   LIG    1       20.836 -26.393  15.451  0.00  0.00    -0.288 OA
ATOM     14  C   LIG    1       20.963 -27.389  13.302  0.00  0.00    +0.047 C 
ATOM     15  C   LIG    1       22.285 -30.146  15.323  0.00  0.00    +0.032 C 
ATOM     16  C   LIG    1       20.907 -28.528  12.590  0.00  0.00    -0.012 C 
ATOM     17  C   LIG    1       22.764 -31.481  14.786  0.00  0.00    +0.008 C 
ATOM     18  C   LIG    1       25.397 -31.648  13.036  0.00  0.00    +0.009 C 
ATOM     19  C   LIG    1       23.014 -30.059  10.587  0.00  0.00    +0.043 C 
ATOM     20  C   LIG    1       26.314 -31.359  11.886  0.00  0.00    +0.057 C 
ENDROOT
BRANCH   1  21
ATOM     21  C   LIG    1       26.274 -30.017   9.685  0.00  0.00    +0.214 C 
ATOM     22  O   LIG    1       27.463 -29.746   9.895  0.00  0.00    -0.289 OA
BRANCH  21  23
ATOM     23  C   LIG    1       25.588 -29.519   8.394  0.00  0.00    +0.310 C 
BRANCH  23  24
ATOM     24  O   LIG    1       25.976 -28.188   8.007  0.00  0.00    -0.457 OA
BRANCH  24  25
ATOM     25  C   LIG    1       25.339 -27.606   6.954  0.00  0.00    +0.307 C 
ATOM     26  O   LIG    1       24.511 -28.121   6.229  0.00  0.00    -0.251 OA
BRANCH  25  27
ATOM     27  C   LIG    1       25.726 -26.177   6.755  0.00  0.00    +0.117 C 
ATOM     28  C   LIG    1       24.494 -25.442   6.276  0.00  0.00    +0.015 C 
ENDBRANCH  25  27
ENDBRANCH  24  25
ENDBRANCH  23  24
ENDBRANCH  21  23
ENDBRANCH   1  21
BRANCH   7  29
ATOM     29  O   LIG    1       20.739 -30.690  10.285  0.00  0.00    -0.391 OA
ATOM     30  H   LIG    1       20.519 -29.761  10.472  0.00  0.00    +0.210 HD
ENDBRANCH   7  29
BRANCH   1  31
ATOM     31  O   LIG    1       24.864 -32.074  10.146  0.00  0.00    -0.419 OA
BRANCH  31  32
ATOM     32  C   LIG    1       25.705 -32.888   9.450  0.00  0.00    +0.511 C 
ATOM     33  O   LIG    1       26.573 -33.577   9.925  0.00  0.00    -0.203 OA
BRANCH  32  34
ATOM     34  O   LIG    1       25.199 -32.953   8.181  0.00  0.00    -0.434 OA
BRANCH  34  36
ATOM     35  C   LIG    1       27.082 -32.493   6.665  0.00  0.00    +0.048 C 
ATOM     36  C   LIG    1       26.074 -33.509   7.186  0.00  0.00    +0.232 C 
ENDBRANCH  34  36
ENDBRANCH  32  34
ENDBRANCH  31  32
ENDBRANCH   1  31
TORSDOF 10
ENDMDL
MODEL 4
REMARK VINA RESULT:      -5.1      3.093      5.714
REMARK  Name = *****
REMARK                            x       y       z     vdW  Elec       q    Type
REMARK                         _______ _______ _______ _____ _____    ______ ____
ROOT
ATOM      1  C   LIG    1       22.939 -31.251  10.530  0.00  0.00    +0.183 C 
ATOM      2  C   LIG    1       23.583 -30.340  11.656  0.00  0.00    +0.021 C 
ATOM      3  C   LIG    1       22.589 -29.268  12.198  0.00  0.00    +0.016 C 
ATOM      4  C   LIG    1       24.723 -29.542  10.927  0.00  0.00    +0.003 C 
ATOM      5  C   LIG    1       26.192 -29.791  11.294  0.00  0.00    -0.000 C 
ATOM      6  C   LIG    1       26.469 -30.291  12.716  0.00  0.00    +0.035 C 
ATOM      7  C   LIG    1       25.515 -31.475  13.001  0.00  0.00    +0.120 C 
ATOM      8  C   LIG    1       26.728 -29.208  13.849  0.00  0.00    +0.013 C 
ATOM      9  C   LIG    1       27.845 -29.783  14.774  0.00  0.00    +0.020 C 
ATOM     10  C   LIG    1       27.245 -27.847  13.316  0.00  0.00    -0.056 C 
ATOM     11  C   LIG    1       27.394 -26.821  14.188  0.00  0.00    +0.051 C 
ATOM     12  C   LIG    1       26.066 -26.508  14.839  0.00  0.00    +0.179 C 
ATOM     13  O   LIG    1       25.769 -25.371  15.179  0.00  0.00    -0.288 OA
ATOM     14  C   LIG    1       25.195 -27.672  15.156  0.00  0.00    +0.047 C 
ATOM     15  C   LIG    1       26.884 -27.440  11.911  0.00  0.00    +0.032 C 
ATOM     16  C   LIG    1       25.530 -28.906  14.740  0.00  0.00    -0.012 C 
ATOM     17  C   LIG    1       27.063 -28.580  10.928  0.00  0.00    +0.008 C 
ATOM     18  C   LIG    1       24.560 -29.794   9.414  0.00  0.00    +0.009 C 
ATOM     19  C   LIG    1       24.026 -31.162  12.884  0.00  0.00    +0.043 C 
ATOM     20  C   LIG    1       23.227 -30.459   9.261  0.00  0.00    +0.057 C 
ENDROOT
BRANCH   1  21
ATOM     21  C   LIG    1       21.409 -31.494  10.768  0.00  0.00    +0.214 C 
ATOM     22  O   LIG    1       20.569 -30.917  10.066  0.00  0.00    -0.289 OA
BRANCH  21  23
ATOM     23  C   LIG    1       20.948 -32.481  11.863  0.00  0.00    +0.310 C 
BRANCH  23  24
ATOM     24  O   LIG    1       19.731 -32.090  12.523  0.00  0.00    -0.457 OA
BRANCH  24  25
ATOM     25  C   LIG    1       19.814 -31.262  13.601  0.00  0.00    +0.307 C 
ATOM     26  O   LIG    1       19.173 -30.247  13.790  0.00  0.00    -0.251 OA
BRANCH  25  27
ATOM     27  C   LIG    1       20.790 -31.736  14.628  0.00  0.00    +0.117 C 
ATOM     28  C   LIG    1       21.225 -30.526  15.424  0.00  0.00    +0.015 C 
ENDBRANCH  25  27
ENDBRANCH  24  25
ENDBRANCH  23  24
ENDBRANCH  21  23
ENDBRANCH   1  21
BRANCH   7  29
ATOM     29  O   LIG    1       25.738 -32.032  14.292  0.00  0.00    -0.391 OA
ATOM     30  H   LIG    1       25.453 -31.375  14.950  0.00  0.00    +0.210 HD
ENDBRANCH   7  29
BRANCH   1  31
ATOM     31  O   LIG    1       23.735 -32.452  10.449  0.00  0.00    -0.419 OA
BRANCH  31  32
ATOM     32  C   LIG    1       23.528 -33.219   9.343  0.00  0.00    +0.511 C 
ATOM     33  O   LIG    1       22.456 -33.571   8.919  0.00  0.00    -0.203 OA
BRANCH  32  34
ATOM     34  O   LIG    1       24.733 -33.277   8.698  0.00  0.00    -0.434 OA
BRANCH  34  36
ATOM     35  C   LIG    1       27.056 -32.494   8.913  0.00  0.00    +0.048 C 
ATOM     36  C   LIG    1       25.896 -33.254   9.542  0.00  0.00    +0.232 C 
ENDBRANCH  34  36
ENDBRANCH  32  34
ENDBRANCH  31  32
ENDBRANCH   1  31
TORSDOF 10
ENDMDL
MODEL 5
REMARK VINA RESULT:      -5.1      2.668      7.359
REMARK  Name = *****
REMARK                            x       y       z     vdW  Elec       q    Type
REMARK                         _______ _______ _______ _____ _____    ______ ____
ROOT
ATOM      1  C   LIG    1       22.371 -31.682  13.041  0.00  0.00    +0.183 C 
ATOM      2  C   LIG    1       22.936 -31.161  11.654  0.00  0.00    +0.021 C 
ATOM      3  C   LIG    1       22.221 -29.865  11.165  0.00  0.00    +0.016 C 
ATOM      4  C   LIG    1       22.559 -32.280  10.618  0.00  0.00    +0.003 C 
ATOM      5  C   LIG    1       23.662 -33.106   9.940  0.00  0.00    -0.000 C 
ATOM      6  C   LIG    1       25.032 -32.433   9.796  0.00  0.00    +0.035 C 
ATOM      7  C   LIG    1       25.416 -31.831  11.169  0.00  0.00    +0.120 C 
ATOM      8  C   LIG    1       25.319 -31.603   8.473  0.00  0.00    +0.013 C 
ATOM      9  C   LIG    1       26.805 -31.872   8.087  0.00  0.00    +0.020 C 
ATOM     10  C   LIG    1       24.456 -32.032   7.259  0.00  0.00    -0.056 C 
ATOM     11  C   LIG    1       24.544 -31.315   6.112  0.00  0.00    +0.051 C 
ATOM     12  C   LIG    1       24.160 -29.877   6.377  0.00  0.00    +0.179 C 
ATOM     13  O   LIG    1       23.612 -29.191   5.527  0.00  0.00    -0.288 OA
ATOM     14  C   LIG    1       24.596 -29.308   7.681  0.00  0.00    +0.047 C 
ATOM     15  C   LIG    1       23.108 -32.653   7.517  0.00  0.00    +0.032 C 
ATOM     16  C   LIG    1       25.165 -30.094   8.612  0.00  0.00    -0.012 C 
ATOM     17  C   LIG    1       23.167 -33.699   8.614  0.00  0.00    +0.008 C 
ATOM     18  C   LIG    1       21.602 -33.257  11.330  0.00  0.00    +0.009 C 
ATOM     19  C   LIG    1       24.437 -30.808  11.735  0.00  0.00    +0.043 C 
ATOM     20  C   LIG    1       21.218 -32.579  12.610  0.00  0.00    +0.057 C 
ENDROOT
BRANCH   1  21
ATOM     21  C   LIG    1       21.920 -30.507  13.974  0.00  0.00    +0.214 C 
ATOM     22  O   LIG    1       22.760 -29.745  14.471  0.00  0.00    -0.289 OA
BRANCH  21  23
ATOM     23  C   LIG    1       20.417 -30.280  14.251  0.00  0.00    +0.310 C 
BRANCH  23  24
ATOM     24  O   LIG    1       19.865 -29.143  13.563  0.00  0.00    -0.457 OA
BRANCH  24  25
ATOM     25  C   LIG    1       20.147 -27.898  14.035  0.00  0.00    +0.307 C 
ATOM     26  O   LIG    1       20.086 -27.526  15.190  0.00  0.00    -0.251 OA
BRANCH  25  27
ATOM     27  C   LIG    1       20.606 -26.958  12.968  0.00  0.00    +0.117 C 
ATOM     28  C   LIG    1       22.041 -26.596  13.277  0.00  0.00    +0.015 C 
ENDBRANCH  25  27
ENDBRANCH  24  25
ENDBRANCH  23  24
ENDBRANCH  21  23
ENDBRANCH   1  21
BRANCH   7  29
ATOM     29  O   LIG    1       26.703 -31.224  11.136  0.00  0.00    -0.391 OA
ATOM     30  H   LIG    1       27.356 -31.927  10.979  0.00  0.00    +0.210 HD
ENDBRANCH   7  29
BRANCH   1  31
ATOM     31  O   LIG    1       23.373 -32.552  13.607  0.00  0.00    -0.419 OA
BRANCH  31  32
ATOM     32  C   LIG    1       23.266 -32.775  14.946  0.00  0.00    +0.511 C 
ATOM     33  O   LIG    1       22.426 -33.453  15.482  0.00  0.00    -0.203 OA
BRANCH  32  34
ATOM     34  O   LIG    1       24.422 -32.300  15.499  0.00  0.00    -0.434 OA
BRANCH  34  36
ATOM     35  C   LIG    1       26.688 -31.790  14.682  0.00  0.00    +0.048 C 
ATOM     36  C   LIG    1       25.640 -32.856  14.977  0.00  0.00    +0.232 C 
ENDBRANCH  34  36
ENDBRANCH  32  34
ENDBRANCH  31  32
ENDBRANCH   1  31
TORSDOF 10
ENDMDL
MODEL 6
REMARK VINA RESULT:      -5.0      7.795     12.564
REMARK  Name = *****
REMARK                            x       y       z     vdW  Elec       q    Type
REMARK                         _______ _______ _______ _____ _____    ______ ____
ROOT
ATOM      1  C   LIG    1       29.729 -19.141   7.110  0.00  0.00    +0.183 C 
ATOM      2  C   LIG    1       28.725 -20.357   6.949  0.00  0.00    +0.021 C 
ATOM      3  C   LIG    1       29.435 -21.660   6.472  0.00  0.00    +0.016 C 
ATOM      4  C   LIG    1       27.764 -19.936   5.780  0.00  0.00    +0.003 C 
ATOM      5  C   LIG    1       26.277 -19.677   6.060  0.00  0.00    -0.000 C 
ATOM      6  C   LIG    1       25.665 -20.418   7.254  0.00  0.00    +0.035 C 
ATOM      7  C   LIG    1       26.603 -20.224   8.470  0.00  0.00    +0.120 C 
ATOM      8  C   LIG    1       25.012 -21.842   6.992  0.00  0.00    +0.013 C 
ATOM      9  C   LIG    1       23.739 -21.925   7.889  0.00  0.00    +0.020 C 
ATOM     10  C   LIG    1       24.546 -22.064   5.531  0.00  0.00    -0.056 C 
ATOM     11  C   LIG    1       24.076 -23.285   5.176  0.00  0.00    +0.051 C 
ATOM     12  C   LIG    1       25.143 -24.331   5.410  0.00  0.00    +0.179 C 
ATOM     13  O   LIG    1       25.236 -25.323   4.702  0.00  0.00    -0.288 OA
ATOM     14  C   LIG    1       25.989 -24.150   6.620  0.00  0.00    +0.047 C 
ATOM     15  C   LIG    1       25.243 -21.307   4.430  0.00  0.00    +0.032 C 
ATOM     16  C   LIG    1       25.890 -23.032   7.361  0.00  0.00    -0.012 C 
ATOM     17  C   LIG    1       25.440 -19.846   4.784  0.00  0.00    +0.008 C 
ATOM     18  C   LIG    1       28.356 -18.666   5.138  0.00  0.00    +0.009 C 
ATOM     19  C   LIG    1       28.034 -20.718   8.281  0.00  0.00    +0.043 C 
ATOM     20  C   LIG    1       29.733 -18.531   5.713  0.00  0.00    +0.057 C 
ENDROOT
BRANCH   1  21
ATOM     21  C   LIG    1       31.150 -19.605   7.581  0.00  0.00    +0.214 C 
ATOM     22  O   LIG    1       32.081 -19.686   6.769  0.00  0.00    -0.289 OA
BRANCH  21  23
ATOM     23  C   LIG    1       31.397 -19.934   9.070  0.00  0.00    +0.310 C 
BRANCH  23  24
ATOM     24  O   LIG    1       32.071 -21.186   9.283  0.00  0.00    -0.457 OA
BRANCH  24  25
ATOM     25  C   LIG    1       31.319 -22.306   9.468  0.00  0.00    +0.307 C 
ATOM     26  O   LIG    1       30.653 -22.583  10.446  0.00  0.00    -0.251 OA
BRANCH  25  27
ATOM     27  C   LIG    1       31.337 -23.223   8.289  0.00  0.00    +0.117 C 
ATOM     28  C   LIG    1       32.773 -23.647   8.073  0.00  0.00    +0.015 C 
ENDBRANCH  25  27
ENDBRANCH  24  25
ENDBRANCH  23  24
ENDBRANCH  21  23
ENDBRANCH   1  21
BRANCH   7  29
ATOM     29  O   LIG    1       26.084 -20.844   9.640  0.00  0.00    -0.391 OA
ATOM     30  H   LIG    1       25.137 -21.010   9.490  0.00  0.00    +0.210 HD
ENDBRANCH   7  29
BRANCH   1  31
ATOM     31  O   LIG    1       29.093 -18.176   7.973  0.00  0.00    -0.419 OA
BRANCH  31  32
ATOM     32  C   LIG    1       29.934 -17.443   8.752  0.00  0.00    +0.511 C 
ATOM     33  O   LIG    1       30.792 -16.695   8.354  0.00  0.00    -0.203 OA
BRANCH  32  34
ATOM     34  O   LIG    1       29.440 -17.533  10.024  0.00  0.00    -0.434 OA
BRANCH  34  36
ATOM     35  C   LIG    1       31.061 -16.450  11.526  0.00  0.00    +0.048 C 
ATOM     36  C   LIG    1       30.413 -17.747  11.060  0.00  0.00    +0.232 C 
ENDBRANCH  34  36
ENDBRANCH  32  34
ENDBRANCH  31  32
ENDBRANCH   1  31
TORSDOF 10
ENDMDL
MODEL 7
REMARK VINA RESULT:      -4.9      2.457      4.621
REMARK  Name = *****
REMARK                            x       y       z     vdW  Elec       q    Type
REMARK                         _______ _______ _______ _____ _____    ______ ____
ROOT
ATOM      1  C   LIG    1       24.123 -31.460  10.875  0.00  0.00    +0.183 C 
ATOM      2  C   LIG    1       24.580 -30.077  11.502  0.00  0.00    +0.021 C 
ATOM      3  C   LIG    1       25.717 -29.395  10.682  0.00  0.00    +0.016 C 
ATOM      4  C   LIG    1       25.213 -30.452  12.889  0.00  0.00    +0.003 C 
ATOM      5  C   LIG    1       24.538 -30.000  14.192  0.00  0.00    -0.000 C 
ATOM      6  C   LIG    1       23.687 -28.727  14.117  0.00  0.00    +0.035 C 
ATOM      7  C   LIG    1       22.740 -28.856  12.900  0.00  0.00    +0.120 C 
ATOM      8  C   LIG    1       24.398 -27.337  14.409  0.00  0.00    +0.013 C 
ATOM      9  C   LIG    1       23.378 -26.470  15.209  0.00  0.00    +0.020 C 
ATOM     10  C   LIG    1       25.673 -27.452  15.283  0.00  0.00    -0.056 C 
ATOM     11  C   LIG    1       26.415 -26.339  15.499  0.00  0.00    +0.051 C 
ATOM     12  C   LIG    1       26.894 -25.780  14.179  0.00  0.00    +0.179 C 
ATOM     13  O   LIG    1       27.966 -25.200  14.077  0.00  0.00    -0.288 OA
ATOM     14  C   LIG    1       25.938 -25.863  13.041  0.00  0.00    +0.047 C 
ATOM     15  C   LIG    1       26.453 -28.740  15.254  0.00  0.00    +0.032 C 
ATOM     16  C   LIG    1       24.782 -26.537  13.171  0.00  0.00    -0.012 C 
ATOM     17  C   LIG    1       25.548 -29.953  15.347  0.00  0.00    +0.008 C 
ATOM     18  C   LIG    1       25.346 -31.988  12.930  0.00  0.00    +0.009 C 
ATOM     19  C   LIG    1       23.426 -29.054  11.552  0.00  0.00    +0.043 C 
ATOM     20  C   LIG    1       25.078 -32.449  11.530  0.00  0.00    +0.057 C 
ENDROOT
BRANCH   1  21
ATOM     21  C   LIG    1       24.217 -31.460   9.310  0.00  0.00    +0.214 C 
ATOM     22  O   LIG    1       23.609 -30.609   8.648  0.00  0.00    -0.289 OA
BRANCH  21  23
ATOM     23  C   LIG    1       25.097 -32.508   8.594  0.00  0.00    +0.310 C 
BRANCH  23  24
ATOM     24  O   LIG    1       26.294 -31.961   8.012  0.00  0.00    -0.457 OA
BRANCH  24  25
ATOM     25  C   LIG    1       26.546 -32.203   6.696  0.00  0.00    +0.307 C 
ATOM     26  O   LIG    1       27.565 -32.666   6.224  0.00  0.00    -0.251 OA
BRANCH  25  27
ATOM     27  C   LIG    1       25.391 -31.872   5.809  0.00  0.00    +0.117 C 
ATOM     28  C   LIG    1       25.467 -30.391   5.509  0.00  0.00    +0.015 C 
ENDBRANCH  25  27
ENDBRANCH  24  25
ENDBRANCH  23  24
ENDBRANCH  21  23
ENDBRANCH   1  21
BRANCH   7  29
ATOM     29  O   LIG    1       21.877 -27.731  12.783  0.00  0.00    -0.391 OA
ATOM     30  H   LIG    1       22.223 -27.032  13.364  0.00  0.00    +0.210 HD
ENDBRANCH   7  29
BRANCH   1  31
ATOM     31  O   LIG    1       22.812 -31.751  11.400  0.00  0.00    -0.419 OA
BRANCH  31  32
ATOM     32  C   LIG    1       22.071 -32.631  10.672  0.00  0.00    +0.511 C 
ATOM     33  O   LIG    1       22.037 -33.825  10.831  0.00  0.00    -0.203 OA
BRANCH  32  34
ATOM     34  O   LIG    1       21.212 -31.870   9.928  0.00  0.00    -0.434 OA
BRANCH  34  36
ATOM     35  C   LIG    1       18.918 -31.781  10.817  0.00  0.00    +0.048 C 
ATOM     36  C   LIG    1       20.265 -31.086  10.673  0.00  0.00    +0.232 C 
ENDBRANCH  34  36
ENDBRANCH  32  34
ENDBRANCH  31  32
ENDBRANCH   1  31
TORSDOF 10
ENDMDL
MODEL 8
REMARK VINA RESULT:      -4.8      6.612     11.278
REMARK  Name = *****
REMARK                            x       y       z     vdW  Elec       q    Type
REMARK                         _______ _______ _______ _____ _____    ______ ____
ROOT
ATOM      1  C   LIG    1       25.871 -21.709   6.930  0.00  0.00    +0.183 C 
ATOM      2  C   LIG    1       26.932 -20.829   7.713  0.00  0.00    +0.021 C 
ATOM      3  C   LIG    1       26.263 -19.789   8.662  0.00  0.00    +0.016 C 
ATOM      4  C   LIG    1       27.663 -19.993   6.602  0.00  0.00    +0.003 C 
ATOM      5  C   LIG    1       29.150 -20.236   6.307  0.00  0.00    -0.000 C 
ATOM      6  C   LIG    1       29.997 -20.781   7.462  0.00  0.00    +0.035 C 
ATOM      7  C   LIG    1       29.247 -21.986   8.079  0.00  0.00    +0.120 C 
ATOM      8  C   LIG    1       30.713 -19.735   8.419  0.00  0.00    +0.013 C 
ATOM      9  C   LIG    1       32.113 -20.328   8.767  0.00  0.00    +0.020 C 
ATOM     10  C   LIG    1       30.962 -18.351   7.768  0.00  0.00    -0.056 C 
ATOM     11  C   LIG    1       31.467 -17.353   8.533  0.00  0.00    +0.051 C 
ATOM     12  C   LIG    1       30.538 -17.079   9.694  0.00  0.00    +0.179 C 
ATOM     13  O   LIG    1       30.415 -15.958  10.168  0.00  0.00    -0.288 OA
ATOM     14  C   LIG    1       29.878 -18.264  10.305  0.00  0.00    +0.047 C 
ATOM     15  C   LIG    1       30.045 -17.900   6.661  0.00  0.00    +0.032 C 
ATOM     16  C   LIG    1       30.002 -19.479   9.742  0.00  0.00    -0.012 C 
ATOM     17  C   LIG    1       29.789 -19.003   5.653  0.00  0.00    +0.008 C 
ATOM     18  C   LIG    1       26.878 -20.194   5.290  0.00  0.00    +0.009 C 
ATOM     19  C   LIG    1       27.849 -21.688   8.610  0.00  0.00    +0.043 C 
ATOM     20  C   LIG    1       25.602 -20.870   5.687  0.00  0.00    +0.057 C 
ENDROOT
BRANCH   1  21
ATOM     21  C   LIG    1       24.583 -21.978   7.780  0.00  0.00    +0.214 C 
ATOM     22  O   LIG    1       24.677 -22.316   8.967  0.00  0.00    -0.289 OA
BRANCH  21  23
ATOM     23  C   LIG    1       23.188 -21.791   7.143  0.00  0.00    +0.310 C 
BRANCH  23  24
ATOM     24  O   LIG    1       22.944 -20.457   6.662  0.00  0.00    -0.457 OA
BRANCH  24  25
ATOM     25  C   LIG    1       22.361 -20.302   5.442  0.00  0.00    +0.307 C 
ATOM     26  O   LIG    1       21.768 -21.151   4.806  0.00  0.00    -0.251 OA
BRANCH  25  27
ATOM     27  C   LIG    1       22.474 -18.911   4.912  0.00  0.00    +0.117 C 
ATOM     28  C   LIG    1       23.420 -18.955   3.732  0.00  0.00    +0.015 C 
ENDBRANCH  25  27
ENDBRANCH  24  25
ENDBRANCH  23  24
ENDBRANCH  21  23
ENDBRANCH   1  21
BRANCH   7  29
ATOM     29  O   LIG    1       29.991 -22.585   9.134  0.00  0.00    -0.391 OA
ATOM     30  H   LIG    1       29.377 -23.134   9.652  0.00  0.00    +0.210 HD
ENDBRANCH   7  29
BRANCH   1  31
ATOM     31  O   LIG    1       26.555 -22.896   6.478  0.00  0.00    -0.419 OA
BRANCH  31  32
ATOM     32  C   LIG    1       25.751 -23.925   6.093  0.00  0.00    +0.511 C 
ATOM     33  O   LIG    1       25.086 -23.961   5.088  0.00  0.00    -0.203 OA
BRANCH  32  34
ATOM     34  O   LIG    1       26.054 -24.968   6.923  0.00  0.00    -0.434 OA
BRANCH  34  36
ATOM     35  C   LIG    1       24.953 -27.121   6.463  0.00  0.00    +0.048 C 
ATOM     36  C   LIG    1       26.192 -26.251   6.291  0.00  0.00    +0.232 C 
ENDBRANCH  34  36
ENDBRANCH  32  34
ENDBRANCH  31  32
ENDBRANCH   1  31
TORSDOF 10
ENDMDL
MODEL 9
REMARK VINA RESULT:      -4.8      2.187      4.300
REMARK  Name = *****
REMARK                            x       y       z     vdW  Elec       q    Type
REMARK                         _______ _______ _______ _____ _____    ______ ____
ROOT
ATOM      1  C   LIG    1       24.159 -31.249   9.856  0.00  0.00    +0.183 C 
ATOM      2  C   LIG    1       25.353 -30.753  10.774  0.00  0.00    +0.021 C 
ATOM      3  C   LIG    1       26.747 -30.968  10.110  0.00  0.00    +0.016 C 
ATOM      4  C   LIG    1       25.320 -31.702  12.026  0.00  0.00    +0.003 C 
ATOM      5  C   LIG    1       24.970 -31.138  13.411  0.00  0.00    -0.000 C 
ATOM      6  C   LIG    1       25.283 -29.656  13.646  0.00  0.00    +0.035 C 
ATOM      7  C   LIG    1       24.718 -28.852  12.451  0.00  0.00    +0.120 C 
ATOM      8  C   LIG    1       26.709 -29.280  14.235  0.00  0.00    +0.013 C 
ATOM      9  C   LIG    1       26.487 -28.102  15.233  0.00  0.00    +0.020 C 
ATOM     10  C   LIG    1       27.384 -30.424  15.035  0.00  0.00    -0.056 C 
ATOM     11  C   LIG    1       28.649 -30.244  15.486  0.00  0.00    +0.051 C 
ATOM     12  C   LIG    1       29.575 -29.981  14.319  0.00  0.00    +0.179 C 
ATOM     13  O   LIG    1       30.743 -30.343  14.333  0.00  0.00    -0.288 OA
ATOM     14  C   LIG    1       29.023 -29.154  13.213  0.00  0.00    +0.047 C 
ATOM     15  C   LIG    1       27.027 -31.847  14.695  0.00  0.00    +0.032 C 
ATOM     16  C   LIG    1       27.726 -28.801  13.207  0.00  0.00    -0.012 C 
ATOM     17  C   LIG    1       25.531 -32.031  14.526  0.00  0.00    +0.008 C 
ATOM     18  C   LIG    1       24.329 -32.840  11.711  0.00  0.00    +0.009 C 
ATOM     19  C   LIG    1       25.260 -29.243  11.081  0.00  0.00    +0.043 C 
ATOM     20  C   LIG    1       24.030 -32.716  10.248  0.00  0.00    +0.057 C 
ENDROOT
BRANCH   1  21
ATOM     21  C   LIG    1       24.461 -31.045   8.332  0.00  0.00    +0.214 C 
ATOM     22  O   LIG    1       25.008 -31.943   7.678  0.00  0.00    -0.289 OA
BRANCH  21  23
ATOM     23  C   LIG    1       24.047 -29.730   7.635  0.00  0.00    +0.310 C 
BRANCH  23  24
ATOM     24  O   LIG    1       25.125 -28.789   7.485  0.00  0.00    -0.457 OA
BRANCH  24  25
ATOM     25  C   LIG    1       25.025 -27.835   6.518  0.00  0.00    +0.307 C 
ATOM     26  O   LIG    1       24.320 -27.873   5.528  0.00  0.00    -0.251 OA
BRANCH  25  27
ATOM     27  C   LIG    1       25.871 -26.635   6.790  0.00  0.00    +0.117 C 
ATOM     28  C   LIG    1       25.036 -25.416   6.470  0.00  0.00    +0.015 C 
ENDBRANCH  25  27
ENDBRANCH  24  25
ENDBRANCH  23  24
ENDBRANCH  21  23
ENDBRANCH   1  21
BRANCH   7  29
ATOM     29  O   LIG    1       24.924 -27.453  12.613  0.00  0.00    -0.391 OA
ATOM     30  H   LIG    1       25.413 -27.135  11.834  0.00  0.00    +0.210 HD
ENDBRANCH   7  29
BRANCH   1  31
ATOM     31  O   LIG    1       22.962 -30.595  10.327  0.00  0.00    -0.419 OA
BRANCH  31  32
ATOM     32  C   LIG    1       21.795 -31.239  10.047  0.00  0.00    +0.511 C 
ATOM     33  O   LIG    1       21.654 -32.126   9.244  0.00  0.00    -0.203 OA
BRANCH  32  34
ATOM     34  O   LIG    1       20.915 -30.857  11.022  0.00  0.00    -0.434 OA
BRANCH  34  36
ATOM     35  C   LIG    1       21.009 -28.926  12.545  0.00  0.00    +0.048 C 
ATOM     36  C   LIG    1       21.502 -30.331  12.224  0.00  0.00    +0.232 C 
ENDBRANCH  34  36
ENDBRANCH  32  34
ENDBRANCH  31  32
ENDBRANCH   1  31
TORSDOF 10
ENDMDL
