MODEL 1
REMARK VINA RESULT:       5.2      0.000      0.000
REMARK  Name = *****
REMARK                            x       y       z     vdW  Elec       q    Type
REMARK                         _______ _______ _______ _____ _____    ______ ____
ROOT
ATOM      1  C   LIG    1       26.414 -13.879   3.804  0.00  0.00    +0.136 C 
ATOM      2  N   LIG    1       26.104 -12.807   2.974  0.00  0.00    -0.295 N 
ATOM      3  C   LIG    1       27.026 -11.749   2.575  0.00  0.00    +0.154 C 
ATOM      4  C   LIG    1       24.812 -12.640   2.512  0.00  0.00    +0.296 C 
ATOM      5  O   LIG    1       24.395 -11.655   1.898  0.00  0.00    -0.264 OA
ATOM      6  C   LIG    1       23.845 -13.717   2.784  0.00  0.00    +0.213 C 
ATOM      7  C   LIG    1       24.271 -14.728   3.554  0.00  0.00    +0.173 C 
ATOM      8  N   LIG    1       25.540 -14.799   4.106  0.00  0.00    -0.223 NA
ENDROOT
BRANCH   1   9
ATOM      9  C   LIG    1       27.847 -13.981   4.486  0.00  0.00    +0.087 C 
ATOM     10  C   LIG    1       28.926 -13.664   3.422  0.00  0.00    +0.039 C 
ATOM     11  C   LIG    1       28.031 -12.911   5.588  0.00  0.00    +0.039 C 
BRANCH   9  13
ATOM     12  C   LIG    1       27.792 -16.505   4.373  0.00  0.00    +0.301 C 
ATOM     13  N   LIG    1       28.090 -15.323   5.039  0.00  0.00    -0.295 N 
ATOM     14  H   LIG    1       28.434 -15.424   5.979  0.00  0.00    +0.150 HD
ATOM     15  O   LIG    1       27.216 -16.507   3.292  0.00  0.00    -0.265 OA
BRANCH  12  19
ATOM     16  C   LIG    1       27.708 -21.024   6.127  0.00  0.00    +0.111 C 
ATOM     17  C   LIG    1       28.263 -19.698   5.783  0.00  0.00    +0.215 A 
ATOM     18  O   LIG    1       27.418 -18.801   5.184  0.00  0.00    -0.417 OA
ATOM     19  C   LIG    1       28.250 -17.713   5.040  0.00  0.00    +0.304 A 
ATOM     20  N   LIG    1       29.453 -17.918   5.506  0.00  0.00    -0.102 NA
ATOM     21  N   LIG    1       29.473 -19.220   5.975  0.00  0.00    -0.112 NA
ENDBRANCH  12  19
ENDBRANCH   9  13
ENDBRANCH   1   9
BRANCH   6  22
ATOM     22  O   LIG    1       22.580 -13.569   2.254  0.00  0.00    -0.501 OA
ATOM     23  H   LIG    1       22.302 -12.658   2.478  0.00  0.00    +0.292 HD
ENDBRANCH   6  22
BRANCH   7  24
ATOM     24  C   LIG    1       23.293 -15.822   3.916  0.00  0.00    +0.238 C 
ATOM     25  N   LIG    1       22.504 -15.868   4.921  0.00  0.00    -0.244 NA
BRANCH  24  26
ATOM     26  O   LIG    1       23.367 -16.831   3.012  0.00  0.00    -0.491 OA
ATOM     27  H   LIG    1       23.405 -16.453   2.112  0.00  0.00    +0.294 HD
ENDBRANCH  24  26
BRANCH  25  28
ATOM     28  C   LIG    1       21.681 -17.054   5.135  0.00  0.00    +0.180 C 
BRANCH  28  29
ATOM     29  C   LIG    1       22.527 -18.313   5.010  0.00  0.00    -0.026 A 
ATOM     30  C   LIG    1       23.139 -18.653   3.788  0.00  0.00    +0.008 A 
ATOM     31  C   LIG    1       23.985 -19.763   3.698  0.00  0.00    +0.039 A 
ATOM     32  C   LIG    1       24.222 -20.537   4.825  0.00  0.00    +0.123 A 
ATOM     33  F   LIG    1       25.073 -21.571   4.755  0.00  0.00    -0.205 F 
ATOM     34  C   LIG    1       23.599 -20.245   6.032  0.00  0.00    +0.039 A 
ATOM     35  C   LIG    1       22.745 -19.142   6.122  0.00  0.00    +0.008 A 
ENDBRANCH  28  29
ENDBRANCH  25  28
ENDBRANCH   7  24
TORSDOF 8
ENDMDL
