MODEL 1
REMARK VINA RESULT:      -8.2      0.000      0.000
REMARK  Name = *****
REMARK                            x       y       z     vdW  Elec       q    Type
REMARK                         _______ _______ _______ _____ _____    ______ ____
ROOT
ATOM      1  C   LIG    1       25.813 -21.804   7.041  0.00  0.00    +0.114 C 
ENDROOT
BRANCH   1   2
ATOM      2  C   LIG    1       24.909 -20.898   6.147  0.00  0.00    +0.061 A 
ATOM      3  N   LIG    1       25.467 -20.399   5.002  0.00  0.00    -0.259 NA
ATOM      4  C   LIG    1       24.714 -19.686   4.134  0.00  0.00    +0.111 A 
ATOM      5  C   LIG    1       23.387 -19.400   4.350  0.00  0.00    +0.020 A 
ATOM      6  C   LIG    1       22.829 -19.827   5.550  0.00  0.00    +0.003 A 
ATOM      7  C   LIG    1       23.591 -20.571   6.465  0.00  0.00    +0.025 A 
ENDBRANCH   1   2
BRANCH   1   8
ATOM      8  C   LIG    1       25.393 -23.314   6.786  0.00  0.00    -0.027 A 
ATOM      9  C   LIG    1       24.040 -23.700   6.672  0.00  0.00    +0.005 A 
ATOM     10  C   LIG    1       23.665 -25.026   6.412  0.00  0.00    +0.000 A 
ATOM     11  C   LIG    1       24.632 -26.016   6.297  0.00  0.00    +0.000 A 
ATOM     12  C   LIG    1       25.972 -25.677   6.445  0.00  0.00    +0.000 A 
ATOM     13  C   LIG    1       26.349 -24.346   6.693  0.00  0.00    +0.005 A 
ENDBRANCH   1   8
BRANCH   1  14
ATOM     14  C   LIG    1       25.638 -21.441   8.565  0.00  0.00    +0.227 C 
ATOM     15  O   LIG    1       25.488 -22.324   9.438  0.00  0.00    -0.275 OA
ATOM     16  N   LIG    1       25.716 -20.159   8.994  0.00  0.00    -0.328 N 
ATOM     17  H   LIG    1       25.608 -19.411   8.294  0.00  0.00    +0.145 HD
ATOM     18  H   LIG    1       25.447 -19.925   9.942  0.00  0.00    +0.145 HD
ENDBRANCH   1  14
BRANCH   1  19
ATOM     19  C   LIG    1       27.391 -21.672   6.793  0.00  0.00    +0.042 C 
BRANCH  19  20
ATOM     20  C   LIG    1       28.356 -21.550   8.000  0.00  0.00    +0.086 C 
BRANCH  20  21
ATOM     21  N   LIG    1       29.473 -20.550   7.889  0.00  0.00    -0.297 NA
BRANCH  21  23
ATOM     22  C   LIG    1       29.602 -18.023   8.379  0.00  0.00    +0.024 C 
ATOM     23  C   LIG    1       29.079 -19.171   7.495  0.00  0.00    +0.051 C 
ATOM     24  C   LIG    1       29.567 -18.834   6.068  0.00  0.00    +0.024 C 
ENDBRANCH  21  23
BRANCH  21  25
ATOM     25  C   LIG    1       30.594 -20.765   8.835  0.00  0.00    +0.051 C 
ATOM     26  C   LIG    1       31.911 -20.033   8.542  0.00  0.00    +0.024 C 
ATOM     27  C   LIG    1       30.877 -22.250   9.155  0.00  0.00    +0.024 C 
ENDBRANCH  21  25
ENDBRANCH  20  21
ENDBRANCH  19  20
ENDBRANCH   1  19
TORSDOF 8
ENDMDL
MODEL 2
REMARK VINA RESULT:      -8.0      0.276      2.033
REMARK  Name = *****
REMARK                            x       y       z     vdW  Elec       q    Type
REMARK                         _______ _______ _______ _____ _____    ______ ____
ROOT
ATOM      1  C   LIG    1       25.727 -21.603   6.987  0.00  0.00    +0.114 C 
ENDROOT
BRANCH   1   2
ATOM      2  C   LIG    1       24.821 -20.718   6.074  0.00  0.00    +0.061 A 
ATOM      3  N   LIG    1       25.366 -20.270   4.902  0.00  0.00    -0.259 NA
ATOM      4  C   LIG    1       24.608 -19.579   4.020  0.00  0.00    +0.111 A 
ATOM      5  C   LIG    1       23.289 -19.267   4.248  0.00  0.00    +0.020 A 
ATOM      6  C   LIG    1       22.746 -19.640   5.471  0.00  0.00    +0.003 A 
ATOM      7  C   LIG    1       23.513 -20.360   6.401  0.00  0.00    +0.025 A 
ENDBRANCH   1   2
BRANCH   1   8
ATOM      8  C   LIG    1       25.312 -23.118   6.763  0.00  0.00    -0.027 A 
ATOM      9  C   LIG    1       26.274 -24.147   6.664  0.00  0.00    +0.005 A 
ATOM     10  C   LIG    1       25.911 -25.491   6.502  0.00  0.00    +0.000 A 
ATOM     11  C   LIG    1       24.572 -25.846   6.392  0.00  0.00    +0.000 A 
ATOM     12  C   LIG    1       23.600 -24.852   6.443  0.00  0.00    +0.000 A 
ATOM     13  C   LIG    1       23.964 -23.506   6.619  0.00  0.00    +0.005 A 
ENDBRANCH   1   8
BRANCH   1  14
ATOM     14  C   LIG    1       25.550 -21.208   8.503  0.00  0.00    +0.227 C 
ATOM     15  O   LIG    1       25.150 -22.033   9.354  0.00  0.00    -0.275 OA
ATOM     16  N   LIG    1       25.895 -19.980   8.954  0.00  0.00    -0.328 N 
ATOM     17  H   LIG    1       26.004 -19.226   8.259  0.00  0.00    +0.145 HD
ATOM     18  H   LIG    1       25.632 -19.689   9.888  0.00  0.00    +0.145 HD
ENDBRANCH   1  14
BRANCH   1  19
ATOM     19  C   LIG    1       27.305 -21.470   6.737  0.00  0.00    +0.042 C 
BRANCH  19  20
ATOM     20  C   LIG    1       28.297 -21.731   7.899  0.00  0.00    +0.086 C 
BRANCH  20  21
ATOM     21  N   LIG    1       29.323 -20.669   8.178  0.00  0.00    -0.297 NA
BRANCH  21  23
ATOM     22  C   LIG    1       31.767 -20.079   8.748  0.00  0.00    +0.024 C 
ATOM     23  C   LIG    1       30.719 -21.145   8.375  0.00  0.00    +0.051 C 
ATOM     24  C   LIG    1       30.800 -22.199   9.502  0.00  0.00    +0.024 C 
ENDBRANCH  21  23
BRANCH  21  25
ATOM     25  C   LIG    1       29.064 -19.367   7.520  0.00  0.00    +0.051 C 
ATOM     26  C   LIG    1       29.477 -19.227   6.049  0.00  0.00    +0.024 C 
ATOM     27  C   LIG    1       29.558 -18.142   8.324  0.00  0.00    +0.024 C 
ENDBRANCH  21  25
ENDBRANCH  20  21
ENDBRANCH  19  20
ENDBRANCH   1  19
TORSDOF 8
ENDMDL
MODEL 3
REMARK VINA RESULT:      -7.9      1.525      5.833
REMARK  Name = *****
REMARK                            x       y       z     vdW  Elec       q    Type
REMARK                         _______ _______ _______ _____ _____    ______ ____
ROOT
ATOM      1  C   LIG    1       26.566 -21.180   7.232  0.00  0.00    +0.114 C 
ENDROOT
BRANCH   1   2
ATOM      2  C   LIG    1       27.777 -20.205   7.087  0.00  0.00    +0.061 A 
ATOM      3  N   LIG    1       28.496 -19.933   8.219  0.00  0.00    -0.259 NA
ATOM      4  C   LIG    1       29.613 -19.173   8.148  0.00  0.00    +0.111 A 
ATOM      5  C   LIG    1       30.070 -18.618   6.977  0.00  0.00    +0.020 A 
ATOM      6  C   LIG    1       29.302 -18.814   5.835  0.00  0.00    +0.003 A 
ATOM      7  C   LIG    1       28.141 -19.601   5.884  0.00  0.00    +0.025 A 
ENDBRANCH   1   2
BRANCH   1   8
ATOM      8  C   LIG    1       25.435 -20.705   6.225  0.00  0.00    -0.027 A 
ATOM      9  C   LIG    1       24.077 -20.646   6.605  0.00  0.00    +0.005 A 
ATOM     10  C   LIG    1       23.079 -20.194   5.730  0.00  0.00    +0.000 A 
ATOM     11  C   LIG    1       23.403 -19.823   4.432  0.00  0.00    +0.000 A 
ATOM     12  C   LIG    1       24.726 -19.908   4.011  0.00  0.00    +0.000 A 
ATOM     13  C   LIG    1       25.728 -20.349   4.892  0.00  0.00    +0.005 A 
ENDBRANCH   1   8
BRANCH   1  14
ATOM     14  C   LIG    1       26.016 -21.173   8.710  0.00  0.00    +0.227 C 
ATOM     15  O   LIG    1       25.782 -22.235   9.329  0.00  0.00    -0.275 OA
ATOM     16  N   LIG    1       25.845 -20.015   9.390  0.00  0.00    -0.328 N 
ATOM     17  H   LIG    1       25.807 -19.140   8.847  0.00  0.00    +0.145 HD
ATOM     18  H   LIG    1       25.347 -20.014  10.272  0.00  0.00    +0.145 HD
ENDBRANCH   1  14
BRANCH   1  19
ATOM     19  C   LIG    1       26.880 -22.725   6.946  0.00  0.00    +0.042 C 
BRANCH  19  20
ATOM     20  C   LIG    1       25.881 -23.816   7.409  0.00  0.00    +0.086 C 
BRANCH  20  21
ATOM     21  N   LIG    1       25.455 -24.836   6.391  0.00  0.00    -0.297 NA
BRANCH  21  23
ATOM     22  C   LIG    1       24.651 -27.279   6.558  0.00  0.00    +0.024 C 
ATOM     23  C   LIG    1       25.789 -26.251   6.703  0.00  0.00    +0.051 C 
ATOM     24  C   LIG    1       26.922 -26.775   5.793  0.00  0.00    +0.024 C 
ENDBRANCH  21  23
BRANCH  21  25
ATOM     25  C   LIG    1       24.203 -24.506   5.668  0.00  0.00    +0.051 C 
ATOM     26  C   LIG    1       24.324 -23.632   4.413  0.00  0.00    +0.024 C 
ATOM     27  C   LIG    1       23.071 -23.972   6.575  0.00  0.00    +0.024 C 
ENDBRANCH  21  25
ENDBRANCH  20  21
ENDBRANCH  19  20
ENDBRANCH   1  19
TORSDOF 8
ENDMDL
MODEL 4
REMARK VINA RESULT:      -7.7      1.504      5.652
REMARK  Name = *****
REMARK                            x       y       z     vdW  Elec       q    Type
REMARK                         _______ _______ _______ _____ _____    ______ ____
ROOT
ATOM      1  C   LIG    1       26.478 -21.292   7.249  0.00  0.00    +0.114 C 
ENDROOT
BRANCH   1   2
ATOM      2  C   LIG    1       27.675 -20.310   7.045  0.00  0.00    +0.061 A 
ATOM      3  N   LIG    1       28.458 -20.048   8.136  0.00  0.00    -0.259 NA
ATOM      4  C   LIG    1       29.565 -19.281   8.008  0.00  0.00    +0.111 A 
ATOM      5  C   LIG    1       29.950 -18.711   6.819  0.00  0.00    +0.020 A 
ATOM      6  C   LIG    1       29.118 -18.897   5.722  0.00  0.00    +0.003 A 
ATOM      7  C   LIG    1       27.965 -19.691   5.829  0.00  0.00    +0.025 A 
ENDBRANCH   1   2
BRANCH   1   8
ATOM      8  C   LIG    1       25.328 -20.875   6.238  0.00  0.00    -0.027 A 
ATOM      9  C   LIG    1       25.582 -20.675   4.864  0.00  0.00    +0.005 A 
ATOM     10  C   LIG    1       24.563 -20.341   3.961  0.00  0.00    +0.000 A 
ATOM     11  C   LIG    1       23.262 -20.157   4.411  0.00  0.00    +0.000 A 
ATOM     12  C   LIG    1       22.985 -20.305   5.766  0.00  0.00    +0.000 A 
ATOM     13  C   LIG    1       24.004 -20.653   6.669  0.00  0.00    +0.005 A 
ENDBRANCH   1   8
BRANCH   1  14
ATOM     14  C   LIG    1       25.948 -21.228   8.733  0.00  0.00    +0.227 C 
ATOM     15  O   LIG    1       25.663 -22.264   9.374  0.00  0.00    -0.275 OA
ATOM     16  N   LIG    1       25.851 -20.050   9.393  0.00  0.00    -0.328 N 
ATOM     17  H   LIG    1       25.855 -19.185   8.834  0.00  0.00    +0.145 HD
ATOM     18  H   LIG    1       25.365 -20.005  10.281  0.00  0.00    +0.145 HD
ENDBRANCH   1  14
BRANCH   1  19
ATOM     19  C   LIG    1       26.808 -22.845   7.025  0.00  0.00    +0.042 C 
BRANCH  19  20
ATOM     20  C   LIG    1       25.874 -23.714   6.146  0.00  0.00    +0.086 C 
BRANCH  20  21
ATOM     21  N   LIG    1       25.420 -25.029   6.716  0.00  0.00    -0.297 NA
BRANCH  21  23
ATOM     22  C   LIG    1       23.010 -24.121   6.601  0.00  0.00    +0.024 C 
ATOM     23  C   LIG    1       23.967 -25.327   6.595  0.00  0.00    +0.051 C 
ATOM     24  C   LIG    1       23.656 -26.081   5.283  0.00  0.00    +0.024 C 
ENDBRANCH  21  23
BRANCH  21  25
ATOM     25  C   LIG    1       26.416 -26.122   6.625  0.00  0.00    +0.051 C 
ATOM     26  C   LIG    1       26.705 -26.698   5.233  0.00  0.00    +0.024 C 
ATOM     27  C   LIG    1       26.187 -27.271   7.633  0.00  0.00    +0.024 C 
ENDBRANCH  21  25
ENDBRANCH  20  21
ENDBRANCH  19  20
ENDBRANCH   1  19
TORSDOF 8
ENDMDL
MODEL 5
REMARK VINA RESULT:      -7.2      2.648      6.198
REMARK  Name = *****
REMARK                            x       y       z     vdW  Elec       q    Type
REMARK                         _______ _______ _______ _____ _____    ______ ____
ROOT
ATOM      1  C   LIG    1       24.437 -22.548   6.120  0.00  0.00    +0.114 C 
ENDROOT
BRANCH   1   2
ATOM      2  C   LIG    1       24.999 -23.992   5.931  0.00  0.00    +0.061 A 
ATOM      3  N   LIG    1       24.745 -24.607   4.735  0.00  0.00    -0.259 NA
ATOM      4  C   LIG    1       25.282 -25.820   4.468  0.00  0.00    +0.111 A 
ATOM      5  C   LIG    1       26.069 -26.505   5.360  0.00  0.00    +0.020 A 
ATOM      6  C   LIG    1       26.265 -25.932   6.611  0.00  0.00    +0.003 A 
ATOM      7  C   LIG    1       25.720 -24.673   6.911  0.00  0.00    +0.025 A 
ENDBRANCH   1   2
BRANCH   1   8
ATOM      8  C   LIG    1       25.571 -21.669   6.798  0.00  0.00    -0.027 A 
ATOM      9  C   LIG    1       26.630 -21.114   6.048  0.00  0.00    +0.005 A 
ATOM     10  C   LIG    1       27.615 -20.308   6.636  0.00  0.00    +0.000 A 
ATOM     11  C   LIG    1       27.595 -20.064   8.003  0.00  0.00    +0.000 A 
ATOM     12  C   LIG    1       26.589 -20.630   8.779  0.00  0.00    +0.000 A 
ATOM     13  C   LIG    1       25.594 -21.427   8.187  0.00  0.00    +0.005 A 
ENDBRANCH   1   8
BRANCH   1  14
ATOM     14  C   LIG    1       23.146 -22.563   7.025  0.00  0.00    +0.227 C 
ATOM     15  O   LIG    1       22.960 -21.707   7.918  0.00  0.00    -0.275 OA
ATOM     16  N   LIG    1       22.156 -23.463   6.820  0.00  0.00    -0.328 N 
ATOM     17  H   LIG    1       22.377 -24.302   6.264  0.00  0.00    +0.145 HD
ATOM     18  H   LIG    1       21.413 -23.563   7.501  0.00  0.00    +0.145 HD
ENDBRANCH   1  14
BRANCH   1  19
ATOM     19  C   LIG    1       23.959 -21.808   4.781  0.00  0.00    +0.042 C 
BRANCH  19  20
ATOM     20  C   LIG    1       23.021 -20.577   4.870  0.00  0.00    +0.086 C 
BRANCH  20  21
ATOM     21  N   LIG    1       23.561 -19.263   4.382  0.00  0.00    -0.297 NA
BRANCH  21  23
ATOM     22  C   LIG    1       24.861 -19.993   2.279  0.00  0.00    +0.024 C 
ATOM     23  C   LIG    1       24.862 -19.317   3.663  0.00  0.00    +0.051 C 
ATOM     24  C   LIG    1       25.429 -17.901   3.419  0.00  0.00    +0.024 C 
ENDBRANCH  21  23
BRANCH  21  25
ATOM     25  C   LIG    1       22.529 -18.277   3.982  0.00  0.00    +0.051 C 
ATOM     26  C   LIG    1       22.378 -17.023   4.855  0.00  0.00    +0.024 C 
ATOM     27  C   LIG    1       21.140 -18.893   3.701  0.00  0.00    +0.024 C 
ENDBRANCH  21  25
ENDBRANCH  20  21
ENDBRANCH  19  20
ENDBRANCH   1  19
TORSDOF 8
ENDMDL
MODEL 6
REMARK VINA RESULT:      -6.8      1.631      5.847
REMARK  Name = *****
REMARK                            x       y       z     vdW  Elec       q    Type
REMARK                         _______ _______ _______ _____ _____    ______ ____
ROOT
ATOM      1  C   LIG    1       25.618 -21.221   6.570  0.00  0.00    +0.114 C 
ENDROOT
BRANCH   1   2
ATOM      2  C   LIG    1       26.975 -20.457   6.684  0.00  0.00    +0.061 A 
ATOM      3  N   LIG    1       27.523 -20.345   7.933  0.00  0.00    -0.259 NA
ATOM      4  C   LIG    1       28.741 -19.779   8.092  0.00  0.00    +0.111 A 
ATOM      5  C   LIG    1       29.474 -19.270   7.048  0.00  0.00    +0.020 A 
ATOM      6  C   LIG    1       28.894 -19.299   5.785  0.00  0.00    +0.003 A 
ATOM      7  C   LIG    1       27.631 -19.883   5.595  0.00  0.00    +0.025 A 
ENDBRANCH   1   2
BRANCH   1   8
ATOM      8  C   LIG    1       24.669 -20.386   5.610  0.00  0.00    -0.027 A 
ATOM      9  C   LIG    1       23.324 -20.116   5.945  0.00  0.00    +0.005 A 
ATOM     10  C   LIG    1       22.492 -19.349   5.117  0.00  0.00    +0.000 A 
ATOM     11  C   LIG    1       22.967 -18.861   3.907  0.00  0.00    +0.000 A 
ATOM     12  C   LIG    1       24.275 -19.144   3.527  0.00  0.00    +0.000 A 
ATOM     13  C   LIG    1       25.113 -19.902   4.363  0.00  0.00    +0.005 A 
ENDBRANCH   1   8
BRANCH   1  14
ATOM     14  C   LIG    1       24.948 -21.388   7.988  0.00  0.00    +0.227 C 
ATOM     15  O   LIG    1       25.593 -21.210   9.044  0.00  0.00    -0.275 OA
ATOM     16  N   LIG    1       23.628 -21.660   8.112  0.00  0.00    -0.328 N 
ATOM     17  H   LIG    1       23.135 -22.033   7.287  0.00  0.00    +0.145 HD
ATOM     18  H   LIG    1       23.246 -21.919   9.014  0.00  0.00    +0.145 HD
ENDBRANCH   1  14
BRANCH   1  19
ATOM     19  C   LIG    1       25.710 -22.720   6.009  0.00  0.00    +0.042 C 
BRANCH  19  20
ATOM     20  C   LIG    1       26.155 -23.871   6.947  0.00  0.00    +0.086 C 
BRANCH  20  21
ATOM     21  N   LIG    1       25.534 -25.220   6.722  0.00  0.00    -0.297 NA
BRANCH  21  23
ATOM     22  C   LIG    1       23.845 -26.634   5.383  0.00  0.00    +0.024 C 
ATOM     23  C   LIG    1       24.329 -25.249   5.850  0.00  0.00    +0.051 C 
ATOM     24  C   LIG    1       23.109 -24.614   6.555  0.00  0.00    +0.024 C 
ENDBRANCH  21  23
BRANCH  21  25
ATOM     25  C   LIG    1       26.492 -26.351   6.707  0.00  0.00    +0.051 C 
ATOM     26  C   LIG    1       26.945 -26.871   5.336  0.00  0.00    +0.024 C 
ATOM     27  C   LIG    1       26.088 -27.536   7.612  0.00  0.00    +0.024 C 
ENDBRANCH  21  25
ENDBRANCH  20  21
ENDBRANCH  19  20
ENDBRANCH   1  19
TORSDOF 8
ENDMDL
MODEL 7
REMARK VINA RESULT:      -6.6      7.111      9.757
REMARK  Name = *****
REMARK                            x       y       z     vdW  Elec       q    Type
REMARK                         _______ _______ _______ _____ _____    ______ ____
ROOT
ATOM      1  C   LIG    1       25.501 -29.914   9.336  0.00  0.00    +0.114 C 
ENDROOT
BRANCH   1   2
ATOM      2  C   LIG    1       24.198 -30.723   9.626  0.00  0.00    +0.061 A 
ATOM      3  N   LIG    1       24.262 -32.081   9.473  0.00  0.00    -0.259 NA
ATOM      4  C   LIG    1       23.199 -32.852   9.798  0.00  0.00    +0.111 A 
ATOM      5  C   LIG    1       22.012 -32.337  10.262  0.00  0.00    +0.020 A 
ATOM      6  C   LIG    1       21.903 -30.954  10.341  0.00  0.00    +0.003 A 
ATOM      7  C   LIG    1       22.994 -30.134  10.011  0.00  0.00    +0.025 A 
ENDBRANCH   1   2
BRANCH   1   8
ATOM      8  C   LIG    1       25.261 -29.059   8.020  0.00  0.00    -0.027 A 
ATOM      9  C   LIG    1       24.372 -29.483   7.009  0.00  0.00    +0.005 A 
ATOM     10  C   LIG    1       24.129 -28.715   5.862  0.00  0.00    +0.000 A 
ATOM     11  C   LIG    1       24.799 -27.514   5.670  0.00  0.00    +0.000 A 
ATOM     12  C   LIG    1       25.714 -27.086   6.627  0.00  0.00    +0.000 A 
ATOM     13  C   LIG    1       25.947 -27.850   7.783  0.00  0.00    +0.005 A 
ENDBRANCH   1   8
BRANCH   1  14
ATOM     14  C   LIG    1       26.730 -30.882   9.138  0.00  0.00    +0.227 C 
ATOM     15  O   LIG    1       27.549 -31.100  10.058  0.00  0.00    -0.275 OA
ATOM     16  N   LIG    1       26.901 -31.571   7.985  0.00  0.00    -0.328 N 
ATOM     17  H   LIG    1       26.391 -31.246   7.151  0.00  0.00    +0.145 HD
ATOM     18  H   LIG    1       27.770 -32.063   7.813  0.00  0.00    +0.145 HD
ENDBRANCH   1  14
BRANCH   1  19
ATOM     19  C   LIG    1       25.977 -28.922  10.501  0.00  0.00    +0.042 C 
BRANCH  19  20
ATOM     20  C   LIG    1       25.432 -29.103  11.941  0.00  0.00    +0.086 C 
BRANCH  20  21
ATOM     21  N   LIG    1       25.231 -27.861  12.762  0.00  0.00    -0.297 NA
BRANCH  21  23
ATOM     22  C   LIG    1       22.954 -26.761  13.265  0.00  0.00    +0.024 C 
ATOM     23  C   LIG    1       24.009 -27.829  13.611  0.00  0.00    +0.051 C 
ATOM     24  C   LIG    1       23.252 -29.175  13.558  0.00  0.00    +0.024 C 
ENDBRANCH  21  23
BRANCH  21  25
ATOM     25  C   LIG    1       26.481 -27.215  13.229  0.00  0.00    +0.051 C 
ATOM     26  C   LIG    1       26.971 -27.568  14.640  0.00  0.00    +0.024 C 
ATOM     27  C   LIG    1       26.515 -25.683  13.027  0.00  0.00    +0.024 C 
ENDBRANCH  21  25
ENDBRANCH  20  21
ENDBRANCH  19  20
ENDBRANCH   1  19
TORSDOF 8
ENDMDL
MODEL 8
REMARK VINA RESULT:      -6.4      7.131      9.773
REMARK  Name = *****
REMARK                            x       y       z     vdW  Elec       q    Type
REMARK                         _______ _______ _______ _____ _____    ______ ____
ROOT
ATOM      1  C   LIG    1       25.514 -29.891   9.484  0.00  0.00    +0.114 C 
ENDROOT
BRANCH   1   2
ATOM      2  C   LIG    1       24.243 -30.775   9.685  0.00  0.00    +0.061 A 
ATOM      3  N   LIG    1       24.399 -32.128   9.550  0.00  0.00    -0.259 NA
ATOM      4  C   LIG    1       23.362 -32.959   9.803  0.00  0.00    +0.111 A 
ATOM      5  C   LIG    1       22.116 -32.514  10.174  0.00  0.00    +0.020 A 
ATOM      6  C   LIG    1       21.920 -31.140  10.231  0.00  0.00    +0.003 A 
ATOM      7  C   LIG    1       22.981 -30.257   9.976  0.00  0.00    +0.025 A 
ENDBRANCH   1   2
BRANCH   1   8
ATOM      8  C   LIG    1       25.304 -29.029   8.168  0.00  0.00    -0.027 A 
ATOM      9  C   LIG    1       25.988 -27.812   7.959  0.00  0.00    +0.005 A 
ATOM     10  C   LIG    1       25.833 -27.064   6.783  0.00  0.00    +0.000 A 
ATOM     11  C   LIG    1       24.956 -27.491   5.794  0.00  0.00    +0.000 A 
ATOM     12  C   LIG    1       24.234 -28.664   5.986  0.00  0.00    +0.000 A 
ATOM     13  C   LIG    1       24.400 -29.420   7.160  0.00  0.00    +0.005 A 
ENDBRANCH   1   8
BRANCH   1  14
ATOM     14  C   LIG    1       26.805 -30.787   9.348  0.00  0.00    +0.227 C 
ATOM     15  O   LIG    1       27.632 -30.893  10.279  0.00  0.00    -0.275 OA
ATOM     16  N   LIG    1       27.026 -31.533   8.240  0.00  0.00    -0.328 N 
ATOM     17  H   LIG    1       26.500 -31.295   7.387  0.00  0.00    +0.145 HD
ATOM     18  H   LIG    1       27.926 -31.977   8.099  0.00  0.00    +0.145 HD
ENDBRANCH   1  14
BRANCH   1  19
ATOM     19  C   LIG    1       25.864 -28.894  10.689  0.00  0.00    +0.042 C 
BRANCH  19  20
ATOM     20  C   LIG    1       25.206 -29.098  12.078  0.00  0.00    +0.086 C 
BRANCH  20  21
ATOM     21  N   LIG    1       25.386 -28.004  13.092  0.00  0.00    -0.297 NA
BRANCH  21  23
ATOM     22  C   LIG    1       26.565 -25.716  12.950  0.00  0.00    +0.024 C 
ATOM     23  C   LIG    1       26.667 -27.251  13.022  0.00  0.00    +0.051 C 
ATOM     24  C   LIG    1       27.556 -27.538  14.253  0.00  0.00    +0.024 C 
ENDBRANCH  21  23
BRANCH  21  25
ATOM     25  C   LIG    1       24.136 -27.314  13.489  0.00  0.00    +0.051 C 
ATOM     26  C   LIG    1       23.921 -27.053  14.986  0.00  0.00    +0.024 C 
ATOM     27  C   LIG    1       22.855 -27.918  12.870  0.00  0.00    +0.024 C 
ENDBRANCH  21  25
ENDBRANCH  20  21
ENDBRANCH  19  20
ENDBRANCH   1  19
TORSDOF 8
ENDMDL
MODEL 9
REMARK VINA RESULT:      -6.4      1.945      6.036
REMARK  Name = *****
REMARK                            x       y       z     vdW  Elec       q    Type
REMARK                         _______ _______ _______ _____ _____    ______ ____
ROOT
ATOM      1  C   LIG    1       25.435 -21.358   7.520  0.00  0.00    +0.114 C 
ENDROOT
BRANCH   1   2
ATOM      2  C   LIG    1       25.152 -22.815   7.035  0.00  0.00    +0.061 A 
ATOM      3  N   LIG    1       23.851 -23.238   7.061  0.00  0.00    -0.259 NA
ATOM      4  C   LIG    1       23.521 -24.453   6.567  0.00  0.00    +0.111 A 
ATOM      5  C   LIG    1       24.445 -25.328   6.047  0.00  0.00    +0.020 A 
ATOM      6  C   LIG    1       25.781 -24.947   6.093  0.00  0.00    +0.003 A 
ATOM      7  C   LIG    1       26.147 -23.690   6.599  0.00  0.00    +0.025 A 
ENDBRANCH   1   2
BRANCH   1   8
ATOM      8  C   LIG    1       26.812 -20.892   6.883  0.00  0.00    -0.027 A 
ATOM      9  C   LIG    1       26.860 -20.033   5.764  0.00  0.00    +0.005 A 
ATOM     10  C   LIG    1       28.074 -19.590   5.219  0.00  0.00    +0.000 A 
ATOM     11  C   LIG    1       29.280 -20.025   5.752  0.00  0.00    +0.000 A 
ATOM     12  C   LIG    1       29.268 -20.906   6.829  0.00  0.00    +0.000 A 
ATOM     13  C   LIG    1       28.052 -21.339   7.383  0.00  0.00    +0.005 A 
ENDBRANCH   1   8
BRANCH   1  14
ATOM     14  C   LIG    1       25.516 -21.298   9.094  0.00  0.00    +0.227 C 
ATOM     15  O   LIG    1       25.777 -20.234   9.698  0.00  0.00    -0.275 OA
ATOM     16  N   LIG    1       25.233 -22.382   9.853  0.00  0.00    -0.328 N 
ATOM     17  H   LIG    1       25.242 -23.305   9.395  0.00  0.00    +0.145 HD
ATOM     18  H   LIG    1       25.440 -22.375  10.845  0.00  0.00    +0.145 HD
ENDBRANCH   1  14
BRANCH   1  19
ATOM     19  C   LIG    1       24.315 -20.273   7.151  0.00  0.00    +0.042 C 
BRANCH  19  20
ATOM     20  C   LIG    1       23.292 -20.570   6.024  0.00  0.00    +0.086 C 
BRANCH  20  21
ATOM     21  N   LIG    1       23.282 -19.642   4.842  0.00  0.00    -0.297 NA
BRANCH  21  23
ATOM     22  C   LIG    1       25.109 -19.450   3.033  0.00  0.00    +0.024 C 
ATOM     23  C   LIG    1       23.869 -20.179   3.585  0.00  0.00    +0.051 C 
ATOM     24  C   LIG    1       24.310 -21.651   3.753  0.00  0.00    +0.024 C 
ENDBRANCH  21  23
BRANCH  21  25
ATOM     25  C   LIG    1       22.127 -18.715   4.790  0.00  0.00    +0.051 C 
ATOM     26  C   LIG    1       21.034 -19.010   3.754  0.00  0.00    +0.024 C 
ATOM     27  C   LIG    1       22.518 -17.221   4.732  0.00  0.00    +0.024 C 
ENDBRANCH  21  25
ENDBRANCH  20  21
ENDBRANCH  19  20
ENDBRANCH   1  19
TORSDOF 8
ENDMDL
