MODEL 1
REMARK VINA RESULT:      -8.8      0.000      0.000
REMARK  Name = *****
REMARK                            x       y       z     vdW  Elec       q    Type
REMARK                         _______ _______ _______ _____ _____    ______ ____
ROOT
ATOM      1  N   LIG    1       25.101 -21.472   7.717  0.00  0.00    -0.297 NA
ATOM      2  C   LIG    1       25.996 -20.966   8.756  0.00  0.00    +0.100 C 
ATOM      3  C   LIG    1       27.432 -20.581   8.310  0.00  0.00    +0.100 C 
ATOM      4  N   LIG    1       27.836 -20.940   6.947  0.00  0.00    -0.299 NA
ATOM      5  C   LIG    1       26.796 -20.478   6.019  0.00  0.00    +0.100 C 
ATOM      6  C   LIG    1       25.330 -20.726   6.476  0.00  0.00    +0.100 C 
ENDROOT
BRANCH   1   7
ATOM      7  C   LIG    1       25.072 -22.944   7.574  0.00  0.00    +0.120 C 
BRANCH   7   8
ATOM      8  C   LIG    1       24.441 -23.670   6.334  0.00  0.00    +0.162 C 
BRANCH   8   9
ATOM      9  C   LIG    1       24.896 -25.102   6.099  0.00  0.00    -0.018 A 
ATOM     10  C   LIG    1       26.240 -25.459   6.254  0.00  0.00    +0.006 A 
ATOM     11  C   LIG    1       26.643 -26.785   6.039  0.00  0.00    +0.000 A 
ATOM     12  C   LIG    1       25.695 -27.789   5.844  0.00  0.00    +0.000 A 
ATOM     13  C   LIG    1       24.353 -27.455   5.753  0.00  0.00    +0.000 A 
ATOM     14  C   LIG    1       23.984 -26.112   5.745  0.00  0.00    +0.006 A 
ENDBRANCH   8   9
BRANCH   8  15
ATOM     15  O   LIG    1       23.031 -23.883   6.490  0.00  0.00    -0.371 OA
BRANCH  15  17
ATOM     16  C   LIG    1       22.121 -21.943   5.536  0.00  0.00    +0.034 C 
ATOM     17  C   LIG    1       22.233 -22.760   6.810  0.00  0.00    +0.157 C 
ENDBRANCH  15  17
ENDBRANCH   8  15
ENDBRANCH   7   8
ENDBRANCH   1   7
BRANCH   4  18
ATOM     18  C   LIG    1       29.180 -20.483   6.501  0.00  0.00    +0.095 C 
BRANCH  18  19
ATOM     19  C   LIG    1       29.631 -19.024   6.725  0.00  0.00    +0.071 C 
ATOM     20  C   LIG    1       29.507 -18.092   5.515  0.00  0.00    +0.017 C 
BRANCH  19  21
ATOM     21  C   LIG    1       30.959 -18.851   7.450  0.00  0.00    +0.167 C 
ATOM     22  O   LIG    1       31.968 -19.608   7.153  0.00  0.00    -0.292 OA
BRANCH  21  23
ATOM     23  C   LIG    1       31.083 -17.974   8.620  0.00  0.00    +0.018 A 
ATOM     24  C   LIG    1       32.238 -17.238   8.878  0.00  0.00    +0.011 A 
ATOM     25  C   LIG    1       32.335 -16.510  10.064  0.00  0.00    +0.001 A 
ATOM     26  C   LIG    1       31.323 -16.570  11.029  0.00  0.00    +0.000 A 
ATOM     27  C   LIG    1       30.185 -17.321  10.793  0.00  0.00    +0.001 A 
ATOM     28  C   LIG    1       30.035 -17.928   9.560  0.00  0.00    +0.011 A 
ENDBRANCH  21  23
ENDBRANCH  19  21
ENDBRANCH  18  19
ENDBRANCH   4  18
TORSDOF 9
ENDMDL
MODEL 2
REMARK VINA RESULT:      -8.5      3.450      9.034
REMARK  Name = *****
REMARK                            x       y       z     vdW  Elec       q    Type
REMARK                         _______ _______ _______ _____ _____    ______ ____
ROOT
ATOM      1  N   LIG    1       25.228 -24.355   5.930  0.00  0.00    -0.297 NA
ATOM      2  C   LIG    1       25.987 -25.211   6.840  0.00  0.00    +0.100 C 
ATOM      3  C   LIG    1       25.603 -26.715   6.864  0.00  0.00    +0.100 C 
ATOM      4  N   LIG    1       24.396 -27.116   6.134  0.00  0.00    -0.299 NA
ATOM      5  C   LIG    1       24.466 -26.555   4.780  0.00  0.00    +0.100 C 
ATOM      6  C   LIG    1       24.966 -25.086   4.686  0.00  0.00    +0.100 C 
ENDROOT
BRANCH   1   7
ATOM      7  C   LIG    1       24.053 -23.685   6.528  0.00  0.00    +0.120 C 
BRANCH   7   8
ATOM      8  C   LIG    1       23.911 -22.124   6.614  0.00  0.00    +0.162 C 
BRANCH   8   9
ATOM      9  C   LIG    1       25.178 -21.360   6.964  0.00  0.00    -0.018 A 
ATOM     10  C   LIG    1       25.579 -21.213   8.297  0.00  0.00    +0.006 A 
ATOM     11  C   LIG    1       26.753 -20.509   8.604  0.00  0.00    +0.000 A 
ATOM     12  C   LIG    1       27.619 -20.105   7.589  0.00  0.00    +0.000 A 
ATOM     13  C   LIG    1       27.263 -20.303   6.264  0.00  0.00    +0.000 A 
ATOM     14  C   LIG    1       25.996 -20.800   5.967  0.00  0.00    +0.006 A 
ENDBRANCH   8   9
BRANCH   8  15
ATOM     15  O   LIG    1       23.613 -21.536   5.341  0.00  0.00    -0.371 OA
BRANCH  15  17
ATOM     16  C   LIG    1       22.541 -19.460   5.134  0.00  0.00    +0.034 C 
ATOM     17  C   LIG    1       22.331 -20.963   5.170  0.00  0.00    +0.157 C 
ENDBRANCH  15  17
ENDBRANCH   8  15
ENDBRANCH   7   8
ENDBRANCH   1   7
BRANCH   4  18
ATOM     18  C   LIG    1       24.092 -28.572   6.086  0.00  0.00    +0.095 C 
BRANCH  18  19
ATOM     19  C   LIG    1       25.028 -29.596   6.762  0.00  0.00    +0.071 C 
ATOM     20  C   LIG    1       25.596 -30.688   5.849  0.00  0.00    +0.017 C 
BRANCH  19  21
ATOM     21  C   LIG    1       24.540 -30.155   8.092  0.00  0.00    +0.167 C 
ATOM     22  O   LIG    1       23.494 -30.919   8.134  0.00  0.00    -0.292 OA
BRANCH  21  23
ATOM     23  C   LIG    1       25.106 -29.699   9.368  0.00  0.00    +0.018 A 
ATOM     24  C   LIG    1       24.400 -29.787  10.566  0.00  0.00    +0.011 A 
ATOM     25  C   LIG    1       24.949 -29.236  11.725  0.00  0.00    +0.001 A 
ATOM     26  C   LIG    1       26.158 -28.532  11.682  0.00  0.00    +0.000 A 
ATOM     27  C   LIG    1       26.850 -28.416  10.490  0.00  0.00    +0.001 A 
ATOM     28  C   LIG    1       26.371 -29.081   9.377  0.00  0.00    +0.011 A 
ENDBRANCH  21  23
ENDBRANCH  19  21
ENDBRANCH  18  19
ENDBRANCH   4  18
TORSDOF 9
ENDMDL
MODEL 3
REMARK VINA RESULT:      -8.5      5.197      7.546
REMARK  Name = *****
REMARK                            x       y       z     vdW  Elec       q    Type
REMARK                         _______ _______ _______ _____ _____    ______ ____
ROOT
ATOM      1  N   LIG    1       25.840 -27.746   5.981  0.00  0.00    -0.297 NA
ATOM      2  C   LIG    1       25.661 -27.186   4.643  0.00  0.00    +0.100 C 
ATOM      3  C   LIG    1       25.263 -25.687   4.564  0.00  0.00    +0.100 C 
ATOM      4  N   LIG    1       24.907 -25.014   5.817  0.00  0.00    -0.299 NA
ATOM      5  C   LIG    1       25.960 -25.285   6.803  0.00  0.00    +0.100 C 
ATOM      6  C   LIG    1       26.486 -26.748   6.840  0.00  0.00    +0.100 C 
ENDROOT
BRANCH   1   7
ATOM      7  C   LIG    1       24.642 -28.395   6.558  0.00  0.00    +0.120 C 
BRANCH   7   8
ATOM      8  C   LIG    1       24.687 -29.793   7.270  0.00  0.00    +0.162 C 
BRANCH   8   9
ATOM      9  C   LIG    1       24.525 -29.774   8.781  0.00  0.00    -0.018 A 
ATOM     10  C   LIG    1       23.345 -30.233   9.380  0.00  0.00    +0.006 A 
ATOM     11  C   LIG    1       23.213 -30.213  10.776  0.00  0.00    +0.000 A 
ATOM     12  C   LIG    1       24.307 -29.907  11.585  0.00  0.00    +0.000 A 
ATOM     13  C   LIG    1       25.501 -29.513  11.002  0.00  0.00    +0.000 A 
ATOM     14  C   LIG    1       25.555 -29.321   9.624  0.00  0.00    +0.006 A 
ENDBRANCH   8   9
BRANCH   8  15
ATOM     15  O   LIG    1       23.570 -30.619   6.913  0.00  0.00    -0.371 OA
BRANCH  15  17
ATOM     16  C   LIG    1       25.327 -31.773   5.872  0.00  0.00    +0.034 C 
ATOM     17  C   LIG    1       23.825 -31.739   6.088  0.00  0.00    +0.157 C 
ENDBRANCH  15  17
ENDBRANCH   8  15
ENDBRANCH   7   8
ENDBRANCH   1   7
BRANCH   4  18
ATOM     18  C   LIG    1       24.620 -23.556   5.740  0.00  0.00    +0.095 C 
BRANCH  18  19
ATOM     19  C   LIG    1       23.744 -22.868   6.807  0.00  0.00    +0.071 C 
ATOM     20  C   LIG    1       22.282 -23.323   6.868  0.00  0.00    +0.017 C 
BRANCH  19  21
ATOM     21  C   LIG    1       23.878 -21.353   6.890  0.00  0.00    +0.167 C 
ATOM     22  O   LIG    1       23.935 -20.765   8.043  0.00  0.00    -0.292 OA
BRANCH  21  23
ATOM     23  C   LIG    1       23.752 -20.507   5.697  0.00  0.00    +0.018 A 
ATOM     24  C   LIG    1       24.808 -20.315   4.808  0.00  0.00    +0.011 A 
ATOM     25  C   LIG    1       24.659 -19.413   3.754  0.00  0.00    +0.001 A 
ATOM     26  C   LIG    1       23.497 -18.644   3.625  0.00  0.00    +0.000 A 
ATOM     27  C   LIG    1       22.455 -18.808   4.521  0.00  0.00    +0.001 A 
ATOM     28  C   LIG    1       22.553 -19.801   5.478  0.00  0.00    +0.011 A 
ENDBRANCH  21  23
ENDBRANCH  19  21
ENDBRANCH  18  19
ENDBRANCH   4  18
TORSDOF 9
ENDMDL
MODEL 4
REMARK VINA RESULT:      -8.4      2.807      8.969
REMARK  Name = *****
REMARK                            x       y       z     vdW  Elec       q    Type
REMARK                         _______ _______ _______ _____ _____    ______ ____
ROOT
ATOM      1  N   LIG    1       25.119 -22.347   7.049  0.00  0.00    -0.297 NA
ATOM      2  C   LIG    1       23.709 -22.728   7.079  0.00  0.00    +0.100 C 
ATOM      3  C   LIG    1       23.369 -24.176   6.634  0.00  0.00    +0.100 C 
ATOM      4  N   LIG    1       24.447 -24.970   6.036  0.00  0.00    -0.299 NA
ATOM      5  C   LIG    1       25.621 -24.891   6.914  0.00  0.00    +0.100 C 
ATOM      6  C   LIG    1       25.935 -23.482   7.491  0.00  0.00    +0.100 C 
ENDROOT
BRANCH   1   7
ATOM      7  C   LIG    1       25.569 -21.694   5.800  0.00  0.00    +0.120 C 
BRANCH   7   8
ATOM      8  C   LIG    1       26.106 -20.220   5.751  0.00  0.00    +0.162 C 
BRANCH   8   9
ATOM      9  C   LIG    1       27.580 -20.039   6.076  0.00  0.00    -0.018 A 
ATOM     10  C   LIG    1       28.338 -19.052   5.434  0.00  0.00    +0.006 A 
ATOM     11  C   LIG    1       29.695 -18.895   5.748  0.00  0.00    +0.000 A 
ATOM     12  C   LIG    1       30.258 -19.590   6.818  0.00  0.00    +0.000 A 
ATOM     13  C   LIG    1       29.498 -20.524   7.504  0.00  0.00    +0.000 A 
ATOM     14  C   LIG    1       28.221 -20.834   7.042  0.00  0.00    +0.006 A 
ENDBRANCH   8   9
BRANCH   8  15
ATOM     15  O   LIG    1       26.078 -19.676   4.424  0.00  0.00    -0.371 OA
BRANCH  15  17
ATOM     16  C   LIG    1       23.943 -18.951   3.779  0.00  0.00    +0.034 C 
ATOM     17  C   LIG    1       24.989 -20.034   3.595  0.00  0.00    +0.157 C 
ENDBRANCH  15  17
ENDBRANCH   8  15
ENDBRANCH   7   8
ENDBRANCH   1   7
BRANCH   4  18
ATOM     18  C   LIG    1       24.133 -26.385   5.702  0.00  0.00    +0.095 C 
BRANCH  18  19
ATOM     19  C   LIG    1       25.158 -27.506   5.975  0.00  0.00    +0.071 C 
ATOM     20  C   LIG    1       26.139 -27.808   4.837  0.00  0.00    +0.017 C 
BRANCH  19  21
ATOM     21  C   LIG    1       24.594 -28.775   6.600  0.00  0.00    +0.167 C 
ATOM     22  O   LIG    1       23.665 -29.444   5.993  0.00  0.00    -0.292 OA
BRANCH  21  23
ATOM     23  C   LIG    1       24.935 -29.170   7.972  0.00  0.00    +0.018 A 
ATOM     24  C   LIG    1       24.111 -29.999   8.732  0.00  0.00    +0.011 A 
ATOM     25  C   LIG    1       24.436 -30.248  10.066  0.00  0.00    +0.001 A 
ATOM     26  C   LIG    1       25.530 -29.616  10.669  0.00  0.00    +0.000 A 
ATOM     27  C   LIG    1       26.335 -28.769   9.928  0.00  0.00    +0.001 A 
ATOM     28  C   LIG    1       26.090 -28.636   8.575  0.00  0.00    +0.011 A 
ENDBRANCH  21  23
ENDBRANCH  19  21
ENDBRANCH  18  19
ENDBRANCH   4  18
TORSDOF 9
ENDMDL
MODEL 5
REMARK VINA RESULT:      -8.4      5.027      7.467
REMARK  Name = *****
REMARK                            x       y       z     vdW  Elec       q    Type
REMARK                         _______ _______ _______ _____ _____    ______ ____
ROOT
ATOM      1  N   LIG    1       25.733 -28.045   6.150  0.00  0.00    -0.297 NA
ATOM      2  C   LIG    1       25.754 -27.479   4.803  0.00  0.00    +0.100 C 
ATOM      3  C   LIG    1       25.415 -25.970   4.676  0.00  0.00    +0.100 C 
ATOM      4  N   LIG    1       24.910 -25.288   5.873  0.00  0.00    -0.299 NA
ATOM      5  C   LIG    1       25.811 -25.589   6.991  0.00  0.00    +0.100 C 
ATOM      6  C   LIG    1       26.285 -27.067   7.093  0.00  0.00    +0.100 C 
ENDROOT
BRANCH   1   7
ATOM      7  C   LIG    1       24.450 -28.660   6.556  0.00  0.00    +0.120 C 
BRANCH   7   8
ATOM      8  C   LIG    1       24.329 -30.150   7.033  0.00  0.00    +0.162 C 
BRANCH   8   9
ATOM      9  C   LIG    1       25.359 -31.115   6.468  0.00  0.00    -0.018 A 
ATOM     10  C   LIG    1       26.271 -31.762   7.309  0.00  0.00    +0.006 A 
ATOM     11  C   LIG    1       27.211 -32.653   6.772  0.00  0.00    +0.000 A 
ATOM     12  C   LIG    1       27.136 -33.038   5.434  0.00  0.00    +0.000 A 
ATOM     13  C   LIG    1       26.194 -32.451   4.605  0.00  0.00    +0.000 A 
ATOM     14  C   LIG    1       25.413 -31.406   5.093  0.00  0.00    +0.006 A 
ENDBRANCH   8   9
BRANCH   8  15
ATOM     15  O   LIG    1       24.601 -30.294   8.435  0.00  0.00    -0.371 OA
BRANCH  15  17
ATOM     16  C   LIG    1       24.122 -30.040  10.716  0.00  0.00    +0.034 C 
ATOM     17  C   LIG    1       23.516 -30.143   9.329  0.00  0.00    +0.157 C 
ENDBRANCH  15  17
ENDBRANCH   8  15
ENDBRANCH   7   8
ENDBRANCH   1   7
BRANCH   4  18
ATOM     18  C   LIG    1       24.679 -23.822   5.764  0.00  0.00    +0.095 C 
BRANCH  18  19
ATOM     19  C   LIG    1       23.865 -23.070   6.838  0.00  0.00    +0.071 C 
ATOM     20  C   LIG    1       22.350 -23.302   6.814  0.00  0.00    +0.017 C 
BRANCH  19  21
ATOM     21  C   LIG    1       24.218 -21.600   7.021  0.00  0.00    +0.167 C 
ATOM     22  O   LIG    1       24.549 -21.149   8.190  0.00  0.00    -0.292 OA
BRANCH  21  23
ATOM     23  C   LIG    1       24.011 -20.623   5.945  0.00  0.00    +0.018 A 
ATOM     24  C   LIG    1       22.790 -19.980   5.751  0.00  0.00    +0.011 A 
ATOM     25  C   LIG    1       22.625 -19.146   4.645  0.00  0.00    +0.001 A 
ATOM     26  C   LIG    1       23.639 -19.010   3.690  0.00  0.00    +0.000 A 
ATOM     27  C   LIG    1       24.844 -19.668   3.860  0.00  0.00    +0.001 A 
ATOM     28  C   LIG    1       25.051 -20.381   5.027  0.00  0.00    +0.011 A 
ENDBRANCH  21  23
ENDBRANCH  19  21
ENDBRANCH  18  19
ENDBRANCH   4  18
TORSDOF 9
ENDMDL
MODEL 6
REMARK VINA RESULT:      -8.3      1.308      3.453
REMARK  Name = *****
REMARK                            x       y       z     vdW  Elec       q    Type
REMARK                         _______ _______ _______ _____ _____    ______ ____
ROOT
ATOM      1  N   LIG    1       25.209 -21.750   7.888  0.00  0.00    -0.297 NA
ATOM      2  C   LIG    1       26.312 -21.864   8.840  0.00  0.00    +0.100 C 
ATOM      3  C   LIG    1       27.713 -21.421   8.339  0.00  0.00    +0.100 C 
ATOM      4  N   LIG    1       27.856 -21.120   6.911  0.00  0.00    -0.299 NA
ATOM      5  C   LIG    1       26.781 -20.199   6.522  0.00  0.00    +0.100 C 
ATOM      6  C   LIG    1       25.375 -20.525   7.101  0.00  0.00    +0.100 C 
ENDROOT
BRANCH   1   7
ATOM      7  C   LIG    1       24.927 -22.972   7.103  0.00  0.00    +0.120 C 
BRANCH   7   8
ATOM      8  C   LIG    1       23.882 -23.014   5.933  0.00  0.00    +0.162 C 
BRANCH   8   9
ATOM      9  C   LIG    1       23.643 -21.699   5.208  0.00  0.00    -0.018 A 
ATOM     10  C   LIG    1       22.655 -20.810   5.647  0.00  0.00    +0.006 A 
ATOM     11  C   LIG    1       22.451 -19.598   4.970  0.00  0.00    +0.000 A 
ATOM     12  C   LIG    1       23.335 -19.188   3.973  0.00  0.00    +0.000 A 
ATOM     13  C   LIG    1       24.358 -20.034   3.574  0.00  0.00    +0.000 A 
ATOM     14  C   LIG    1       24.417 -21.324   4.095  0.00  0.00    +0.006 A 
ENDBRANCH   8   9
BRANCH   8  15
ATOM     15  O   LIG    1       24.329 -23.822   4.836  0.00  0.00    -0.371 OA
BRANCH  15  17
ATOM     16  C   LIG    1       24.221 -26.058   5.535  0.00  0.00    +0.034 C 
ATOM     17  C   LIG    1       25.155 -24.931   5.136  0.00  0.00    +0.157 C 
ENDBRANCH  15  17
ENDBRANCH   8  15
ENDBRANCH   7   8
ENDBRANCH   1   7
BRANCH   4  18
ATOM     18  C   LIG    1       29.178 -20.606   6.461  0.00  0.00    +0.095 C 
BRANCH  18  19
ATOM     19  C   LIG    1       29.604 -19.155   6.763  0.00  0.00    +0.071 C 
ATOM     20  C   LIG    1       29.522 -18.175   5.587  0.00  0.00    +0.017 C 
BRANCH  19  21
ATOM     21  C   LIG    1       30.898 -19.000   7.551  0.00  0.00    +0.167 C 
ATOM     22  O   LIG    1       31.874 -19.834   7.373  0.00  0.00    -0.292 OA
BRANCH  21  23
ATOM     23  C   LIG    1       31.011 -18.041   8.657  0.00  0.00    +0.018 A 
ATOM     24  C   LIG    1       32.073 -17.144   8.756  0.00  0.00    +0.011 A 
ATOM     25  C   LIG    1       32.181 -16.335   9.887  0.00  0.00    +0.001 A 
ATOM     26  C   LIG    1       31.284 -16.467  10.953  0.00  0.00    +0.000 A 
ATOM     27  C   LIG    1       30.243 -17.376  10.874  0.00  0.00    +0.001 A 
ATOM     28  C   LIG    1       30.061 -18.074   9.695  0.00  0.00    +0.011 A 
ENDBRANCH  21  23
ENDBRANCH  19  21
ENDBRANCH  18  19
ENDBRANCH   4  18
TORSDOF 9
ENDMDL
MODEL 7
REMARK VINA RESULT:      -8.3      3.843      9.205
REMARK  Name = *****
REMARK                            x       y       z     vdW  Elec       q    Type
REMARK                         _______ _______ _______ _____ _____    ______ ____
ROOT
ATOM      1  N   LIG    1       25.683 -24.647   5.518  0.00  0.00    -0.297 NA
ATOM      2  C   LIG    1       26.455 -25.455   6.459  0.00  0.00    +0.100 C 
ATOM      3  C   LIG    1       25.877 -26.851   6.815  0.00  0.00    +0.100 C 
ATOM      4  N   LIG    1       24.522 -27.161   6.347  0.00  0.00    -0.299 NA
ATOM      5  C   LIG    1       24.446 -26.848   4.915  0.00  0.00    +0.100 C 
ATOM      6  C   LIG    1       25.122 -25.517   4.481  0.00  0.00    +0.100 C 
ENDROOT
BRANCH   1   7
ATOM      7  C   LIG    1       24.726 -23.703   6.137  0.00  0.00    +0.120 C 
BRANCH   7   8
ATOM      8  C   LIG    1       25.077 -22.202   6.434  0.00  0.00    +0.162 C 
BRANCH   8   9
ATOM      9  C   LIG    1       24.313 -21.168   5.623  0.00  0.00    -0.018 A 
ATOM     10  C   LIG    1       23.166 -20.557   6.143  0.00  0.00    +0.006 A 
ATOM     11  C   LIG    1       22.474 -19.601   5.384  0.00  0.00    +0.000 A 
ATOM     12  C   LIG    1       23.014 -19.122   4.191  0.00  0.00    +0.000 A 
ATOM     13  C   LIG    1       24.185 -19.674   3.698  0.00  0.00    +0.000 A 
ATOM     14  C   LIG    1       24.743 -20.775   4.343  0.00  0.00    +0.006 A 
ENDBRANCH   8   9
BRANCH   8  15
ATOM     15  O   LIG    1       24.694 -21.808   7.759  0.00  0.00    -0.371 OA
BRANCH  15  17
ATOM     16  C   LIG    1       26.599 -20.483   8.106  0.00  0.00    +0.034 C 
ATOM     17  C   LIG    1       25.729 -21.578   8.696  0.00  0.00    +0.157 C 
ENDBRANCH  15  17
ENDBRANCH   8  15
ENDBRANCH   7   8
ENDBRANCH   1   7
BRANCH   4  18
ATOM     18  C   LIG    1       24.017 -28.535   6.613  0.00  0.00    +0.095 C 
BRANCH  18  19
ATOM     19  C   LIG    1       24.902 -29.576   7.330  0.00  0.00    +0.071 C 
ATOM     20  C   LIG    1       25.341 -30.776   6.484  0.00  0.00    +0.017 C 
BRANCH  19  21
ATOM     21  C   LIG    1       24.435 -29.991   8.719  0.00  0.00    +0.167 C 
ATOM     22  O   LIG    1       23.306 -30.610   8.870  0.00  0.00    -0.292 OA
BRANCH  21  23
ATOM     23  C   LIG    1       25.136 -29.542   9.928  0.00  0.00    +0.018 A 
ATOM     24  C   LIG    1       24.573 -29.656  11.198  0.00  0.00    +0.011 A 
ATOM     25  C   LIG    1       25.242 -29.110  12.294  0.00  0.00    +0.001 A 
ATOM     26  C   LIG    1       26.427 -28.386  12.124  0.00  0.00    +0.000 A 
ATOM     27  C   LIG    1       26.977 -28.244  10.862  0.00  0.00    +0.001 A 
ATOM     28  C   LIG    1       26.385 -28.904   9.802  0.00  0.00    +0.011 A 
ENDBRANCH  21  23
ENDBRANCH  19  21
ENDBRANCH  18  19
ENDBRANCH   4  18
TORSDOF 9
ENDMDL
MODEL 8
REMARK VINA RESULT:      -8.2      1.280      2.114
REMARK  Name = *****
REMARK                            x       y       z     vdW  Elec       q    Type
REMARK                         _______ _______ _______ _____ _____    ______ ____
ROOT
ATOM      1  N   LIG    1       25.162 -21.518   8.538  0.00  0.00    -0.297 NA
ATOM      2  C   LIG    1       26.052 -22.628   8.205  0.00  0.00    +0.100 C 
ATOM      3  C   LIG    1       27.397 -22.261   7.521  0.00  0.00    +0.100 C 
ATOM      4  N   LIG    1       27.578 -20.872   7.088  0.00  0.00    -0.299 NA
ATOM      5  C   LIG    1       27.235 -19.989   8.210  0.00  0.00    +0.100 C 
ATOM      6  C   LIG    1       25.962 -20.384   9.010  0.00  0.00    +0.100 C 
ENDROOT
BRANCH   1   7
ATOM      7  C   LIG    1       24.148 -21.194   7.511  0.00  0.00    +0.120 C 
BRANCH   7   8
ATOM      8  C   LIG    1       24.220 -21.732   6.039  0.00  0.00    +0.162 C 
BRANCH   8   9
ATOM      9  C   LIG    1       24.284 -23.243   5.885  0.00  0.00    -0.018 A 
ATOM     10  C   LIG    1       23.460 -24.075   6.651  0.00  0.00    +0.006 A 
ATOM     11  C   LIG    1       23.528 -25.467   6.494  0.00  0.00    +0.000 A 
ATOM     12  C   LIG    1       24.280 -26.026   5.461  0.00  0.00    +0.000 A 
ATOM     13  C   LIG    1       25.051 -25.205   4.654  0.00  0.00    +0.000 A 
ATOM     14  C   LIG    1       25.151 -23.849   4.959  0.00  0.00    +0.006 A 
ENDBRANCH   8   9
BRANCH   8  15
ATOM     15  O   LIG    1       23.018 -21.461   5.304  0.00  0.00    -0.371 OA
BRANCH  15  17
ATOM     16  C   LIG    1       24.190 -20.106   3.790  0.00  0.00    +0.034 C 
ATOM     17  C   LIG    1       22.931 -20.221   4.630  0.00  0.00    +0.157 C 
ENDBRANCH  15  17
ENDBRANCH   8  15
ENDBRANCH   7   8
ENDBRANCH   1   7
BRANCH   4  18
ATOM     18  C   LIG    1       28.906 -20.511   6.522  0.00  0.00    +0.095 C 
BRANCH  18  19
ATOM     19  C   LIG    1       29.472 -19.085   6.685  0.00  0.00    +0.071 C 
ATOM     20  C   LIG    1       29.386 -18.186   5.447  0.00  0.00    +0.017 C 
BRANCH  19  21
ATOM     21  C   LIG    1       30.828 -18.991   7.371  0.00  0.00    +0.167 C 
ATOM     22  O   LIG    1       31.813 -19.735   6.975  0.00  0.00    -0.292 OA
BRANCH  21  23
ATOM     23  C   LIG    1       31.010 -18.215   8.604  0.00  0.00    +0.018 A 
ATOM     24  C   LIG    1       30.014 -18.118   9.574  0.00  0.00    +0.011 A 
ATOM     25  C   LIG    1       30.206 -17.278  10.670  0.00  0.00    +0.001 A 
ATOM     26  C   LIG    1       31.349 -16.475  10.768  0.00  0.00    +0.000 A 
ATOM     27  C   LIG    1       32.329 -16.544   9.794  0.00  0.00    +0.001 A 
ATOM     28  C   LIG    1       32.197 -17.479   8.785  0.00  0.00    +0.011 A 
ENDBRANCH  21  23
ENDBRANCH  19  21
ENDBRANCH  18  19
ENDBRANCH   4  18
TORSDOF 9
ENDMDL
MODEL 9
REMARK VINA RESULT:      -8.0      3.184      5.986
REMARK  Name = *****
REMARK                            x       y       z     vdW  Elec       q    Type
REMARK                         _______ _______ _______ _____ _____    ______ ____
ROOT
ATOM      1  N   LIG    1       25.796 -26.901   5.945  0.00  0.00    -0.297 NA
ATOM      2  C   LIG    1       25.471 -26.313   4.648  0.00  0.00    +0.100 C 
ATOM      3  C   LIG    1       24.814 -24.906   4.666  0.00  0.00    +0.100 C 
ATOM      4  N   LIG    1       24.392 -24.374   5.966  0.00  0.00    -0.299 NA
ATOM      5  C   LIG    1       25.513 -24.505   6.905  0.00  0.00    +0.100 C 
ATOM      6  C   LIG    1       26.289 -25.852   6.842  0.00  0.00    +0.100 C 
ENDROOT
BRANCH   1   7
ATOM      7  C   LIG    1       24.753 -27.782   6.516  0.00  0.00    +0.120 C 
BRANCH   7   8
ATOM      8  C   LIG    1       25.062 -29.209   7.093  0.00  0.00    +0.162 C 
BRANCH   8   9
ATOM      9  C   LIG    1       25.298 -29.282   8.593  0.00  0.00    -0.018 A 
ATOM     10  C   LIG    1       26.374 -28.607   9.181  0.00  0.00    +0.006 A 
ATOM     11  C   LIG    1       26.576 -28.680  10.567  0.00  0.00    +0.000 A 
ATOM     12  C   LIG    1       25.618 -29.271  11.390  0.00  0.00    +0.000 A 
ATOM     13  C   LIG    1       24.514 -29.888  10.823  0.00  0.00    +0.000 A 
ATOM     14  C   LIG    1       24.436 -30.004   9.437  0.00  0.00    +0.006 A 
ENDBRANCH   8   9
BRANCH   8  15
ATOM     15  O   LIG    1       23.939 -30.095   6.978  0.00  0.00    -0.371 OA
BRANCH  15  17
ATOM     16  C   LIG    1       25.474 -31.136   5.543  0.00  0.00    +0.034 C 
ATOM     17  C   LIG    1       24.056 -31.183   6.083  0.00  0.00    +0.157 C 
ENDBRANCH  15  17
ENDBRANCH   8  15
ENDBRANCH   7   8
ENDBRANCH   1   7
BRANCH   4  18
ATOM     18  C   LIG    1       23.852 -22.988   5.981  0.00  0.00    +0.095 C 
BRANCH  18  19
ATOM     19  C   LIG    1       24.595 -21.860   6.727  0.00  0.00    +0.071 C 
ATOM     20  C   LIG    1       23.739 -21.001   7.664  0.00  0.00    +0.017 C 
BRANCH  19  21
ATOM     21  C   LIG    1       25.537 -21.019   5.876  0.00  0.00    +0.167 C 
ATOM     22  O   LIG    1       25.236 -20.744   4.646  0.00  0.00    -0.292 OA
BRANCH  21  23
ATOM     23  C   LIG    1       26.882 -20.664   6.346  0.00  0.00    +0.018 A 
ATOM     24  C   LIG    1       27.685 -19.744   5.674  0.00  0.00    +0.011 A 
ATOM     25  C   LIG    1       28.993 -19.533   6.109  0.00  0.00    +0.001 A 
ATOM     26  C   LIG    1       29.532 -20.285   7.159  0.00  0.00    +0.000 A 
ATOM     27  C   LIG    1       28.750 -21.221   7.813  0.00  0.00    +0.001 A 
ATOM     28  C   LIG    1       27.415 -21.327   7.469  0.00  0.00    +0.011 A 
ENDBRANCH  21  23
ENDBRANCH  19  21
ENDBRANCH  18  19
ENDBRANCH   4  18
TORSDOF 9
ENDMDL
