MODEL 1
REMARK VINA RESULT:      -0.1      0.000      0.000
REMARK  Name = *****
REMARK                            x       y       z     vdW  Elec       q    Type
REMARK                         _______ _______ _______ _____ _____    ______ ____
ROOT
ATOM      1  C   LIG    1       27.328 -14.029   5.959  0.00  0.00    +0.038 C 
ATOM      2  C   LIG    1       27.530 -14.238   4.451  0.00  0.00    -0.076 C 
ATOM      3  C   LIG    1       28.109 -15.355   3.904  0.00  0.00    -0.023 C 
ENDROOT
BRANCH   2   4
ATOM      4  C   LIG    1       27.315 -12.933   3.663  0.00  0.00    +0.030 C 
BRANCH   4   5
ATOM      5  C   LIG    1       26.731 -12.985   2.232  0.00  0.00    +0.005 C 
BRANCH   5   6
ATOM      6  C   LIG    1       25.232 -12.625   2.016  0.00  0.00    +0.003 C 
BRANCH   6   7
ATOM      7  C   LIG    1       24.276 -12.694   3.220  0.00  0.00    -0.014 C 
ATOM      8  C   LIG    1       23.426 -11.449   3.236  0.00  0.00    +0.007 C 
BRANCH   7   9
ATOM      9  C   LIG    1       24.814 -12.676   4.647  0.00  0.00    +0.003 C 
BRANCH   9  10
ATOM     10  C   LIG    1       24.486 -13.781   5.627  0.00  0.00    +0.000 C 
BRANCH  10  11
ATOM     11  C   LIG    1       23.139 -14.514   5.426  0.00  0.00    +0.003 C 
BRANCH  11  12
ATOM     12  C   LIG    1       23.312 -15.888   4.724  0.00  0.00    -0.014 C 
ATOM     13  C   LIG    1       24.427 -15.755   3.687  0.00  0.00    +0.007 C 
BRANCH  12  14
ATOM     14  C   LIG    1       22.053 -16.539   4.086  0.00  0.00    +0.003 C 
BRANCH  14  15
ATOM     15  C   LIG    1       21.707 -17.996   4.542  0.00  0.00    +0.000 C 
BRANCH  15  16
ATOM     16  C   LIG    1       22.784 -18.912   5.182  0.00  0.00    +0.003 C 
BRANCH  16  17
ATOM     17  C   LIG    1       22.345 -20.125   6.030  0.00  0.00    -0.017 C 
ATOM     18  C   LIG    1       23.389 -20.552   7.055  0.00  0.00    +0.007 C 
ATOM     19  C   LIG    1       22.006 -21.354   5.182  0.00  0.00    +0.007 C 
ENDBRANCH  16  17
ENDBRANCH  15  16
ENDBRANCH  14  15
ENDBRANCH  12  14
ENDBRANCH  11  12
ENDBRANCH  10  11
ENDBRANCH   9  10
ENDBRANCH   7   9
ENDBRANCH   6   7
ENDBRANCH   5   6
ENDBRANCH   4   5
ENDBRANCH   2   4
BRANCH   3  20
ATOM     20  C   LIG    1       28.778 -16.509   4.683  0.00  0.00    +0.066 C 
BRANCH  20  21
ATOM     21  C   LIG    1       28.082 -17.909   4.703  0.00  0.00    +0.010 C 
ATOM     22  C   LIG    1       26.946 -18.038   3.725  0.00  0.00    +0.191 C 
ATOM     23  O   LIG    1       26.744 -17.183   2.875  0.00  0.00    -0.287 OA
ATOM     24  C   LIG    1       26.081 -19.245   3.775  0.00  0.00    +0.033 A 
ATOM     25  C   LIG    1       26.293 -20.249   4.706  0.00  0.00    +0.033 A 
ATOM     26  C   LIG    1       25.501 -21.406   4.733  0.00  0.00    +0.012 A 
ATOM     27  C   LIG    1       24.488 -21.566   3.779  0.00  0.00    +0.001 A 
ATOM     28  C   LIG    1       24.273 -20.567   2.843  0.00  0.00    +0.001 A 
ATOM     29  C   LIG    1       27.370 -20.144   5.684  0.00  0.00    +0.190 C 
ATOM     30  O   LIG    1       27.504 -20.968   6.527  0.00  0.00    -0.287 OA
ATOM     31  C   LIG    1       25.053 -19.404   2.837  0.00  0.00    +0.012 A 
ATOM     32  C   LIG    1       28.273 -18.943   5.561  0.00  0.00    +0.004 C 
ATOM     33  C   LIG    1       29.380 -19.159   6.531  0.00  0.00    +0.048 C 
ENDBRANCH  20  21
ENDBRANCH   3  20
TORSDOF 14
ENDMDL
