MODEL 1
REMARK VINA RESULT:      -6.5      0.000      0.000
REMARK  Name = *****
REMARK                            x       y       z     vdW  Elec       q    Type
REMARK                         _______ _______ _______ _____ _____    ______ ____
ROOT
ATOM      1  C   LIG    1       24.745 -19.347   4.149  0.00  0.00    +0.130 A 
ATOM      2  C   LIG    1       25.851 -18.450   3.917  0.00  0.00    +0.040 A 
ATOM      3  C   LIG    1       27.071 -18.721   4.570  0.00  0.00    +0.138 A 
ATOM      4  C   LIG    1       27.142 -19.752   5.458  0.00  0.00    +0.107 A 
ATOM      5  C   LIG    1       28.282 -20.088   6.310  0.00  0.00    +0.344 C 
ATOM      6  O   LIG    1       27.892 -21.157   7.062  0.00  0.00    -0.456 OA
ATOM      7  C   LIG    1       26.533 -21.556   6.751  0.00  0.00    +0.269 C 
ATOM      8  O   LIG    1       29.333 -19.513   6.327  0.00  0.00    -0.245 OA
ATOM      9  C   LIG    1       26.104 -20.602   5.699  0.00  0.00    +0.014 A 
ATOM     10  C   LIG    1       24.883 -20.455   5.035  0.00  0.00    -0.001 A 
ATOM     11  C   LIG    1       23.808 -21.441   5.384  0.00  0.00    +0.048 C 
ENDROOT
BRANCH   1  13
ATOM     12  C   LIG    1       22.457 -18.484   4.374  0.00  0.00    +0.277 C 
ATOM     13  O   LIG    1       23.562 -18.919   3.600  0.00  0.00    -0.494 OA
ENDBRANCH   1  13
BRANCH   3  14
ATOM     14  O   LIG    1       28.183 -17.972   4.359  0.00  0.00    -0.505 OA
ATOM     15  H   LIG    1       28.875 -18.490   3.895  0.00  0.00    +0.292 HD
ENDBRANCH   3  14
BRANCH   2  16
ATOM     16  C   LIG    1       25.726 -17.230   3.001  0.00  0.00    +0.069 C 
BRANCH  16  17
ATOM     17  C   LIG    1       26.047 -15.909   3.660  0.00  0.00    -0.023 C 
ATOM     18  C   LIG    1       25.261 -14.902   4.100  0.00  0.00    -0.076 C 
ATOM     19  C   LIG    1       23.753 -14.959   4.056  0.00  0.00    +0.038 C 
BRANCH  18  20
ATOM     20  C   LIG    1       25.800 -13.599   4.686  0.00  0.00    +0.041 C 
BRANCH  20  21
ATOM     21  C   LIG    1       27.175 -13.584   5.369  0.00  0.00    +0.125 C 
BRANCH  21  22
ATOM     22  C   LIG    1       28.310 -12.945   4.601  0.00  0.00    +0.305 C 
ATOM     23  O   LIG    1       28.645 -13.268   3.470  0.00  0.00    -0.251 OA
BRANCH  22  24
ATOM     24  O   LIG    1       28.924 -11.930   5.244  0.00  0.00    -0.481 OA
ATOM     25  H   LIG    1       29.378 -11.295   4.664  0.00  0.00    +0.295 HD
ENDBRANCH  22  24
ENDBRANCH  21  22
ENDBRANCH  20  21
ENDBRANCH  18  20
ENDBRANCH  16  17
ENDBRANCH   2  16
TORSDOF 8
ENDMDL
MODEL 2
REMARK VINA RESULT:      -4.4      1.826      5.436
REMARK  Name = *****
REMARK                            x       y       z     vdW  Elec       q    Type
REMARK                         _______ _______ _______ _____ _____    ______ ____
ROOT
ATOM      1  C   LIG    1       23.511 -17.849   4.268  0.00  0.00    +0.130 A 
ATOM      2  C   LIG    1       24.827 -18.204   3.794  0.00  0.00    +0.040 A 
ATOM      3  C   LIG    1       25.734 -17.161   3.515  0.00  0.00    +0.138 A 
ATOM      4  C   LIG    1       25.319 -15.867   3.612  0.00  0.00    +0.107 A 
ATOM      5  C   LIG    1       26.084 -14.678   3.240  0.00  0.00    +0.344 C 
ATOM      6  O   LIG    1       25.263 -13.612   3.463  0.00  0.00    -0.456 OA
ATOM      7  C   LIG    1       23.973 -14.034   3.973  0.00  0.00    +0.269 C 
ATOM      8  O   LIG    1       27.204 -14.675   2.816  0.00  0.00    -0.245 OA
ATOM      9  C   LIG    1       24.076 -15.513   4.048  0.00  0.00    +0.014 A 
ATOM     10  C   LIG    1       23.140 -16.481   4.421  0.00  0.00    -0.001 A 
ATOM     11  C   LIG    1       21.802 -15.978   4.876  0.00  0.00    +0.048 C 
ENDROOT
BRANCH   1  13
ATOM     12  C   LIG    1       22.430 -19.633   5.564  0.00  0.00    +0.277 C 
ATOM     13  O   LIG    1       22.652 -18.914   4.362  0.00  0.00    -0.494 OA
ENDBRANCH   1  13
BRANCH   3  14
ATOM     14  O   LIG    1       27.013 -17.402   3.129  0.00  0.00    -0.505 OA
ATOM     15  H   LIG    1       27.180 -18.365   3.044  0.00  0.00    +0.292 HD
ENDBRANCH   3  14
BRANCH   2  16
ATOM     16  C   LIG    1       25.245 -19.661   3.582  0.00  0.00    +0.069 C 
BRANCH  16  17
ATOM     17  C   LIG    1       26.370 -20.132   4.473  0.00  0.00    -0.023 C 
ATOM     18  C   LIG    1       26.412 -20.456   5.783  0.00  0.00    -0.076 C 
ATOM     19  C   LIG    1       25.188 -20.458   6.667  0.00  0.00    +0.038 C 
BRANCH  18  20
ATOM     20  C   LIG    1       27.690 -20.852   6.519  0.00  0.00    +0.041 C 
BRANCH  20  21
ATOM     21  C   LIG    1       29.044 -20.315   6.036  0.00  0.00    +0.125 C 
BRANCH  21  22
ATOM     22  C   LIG    1       29.229 -18.814   6.055  0.00  0.00    +0.305 C 
ATOM     23  O   LIG    1       29.468 -18.162   7.062  0.00  0.00    -0.251 OA
BRANCH  22  24
ATOM     24  O   LIG    1       29.157 -18.222   4.845  0.00  0.00    -0.481 OA
ATOM     25  H   LIG    1       29.622 -18.694   4.133  0.00  0.00    +0.295 HD
ENDBRANCH  22  24
ENDBRANCH  21  22
ENDBRANCH  20  21
ENDBRANCH  18  20
ENDBRANCH  16  17
ENDBRANCH   2  16
TORSDOF 8
ENDMDL
