MODEL 1
REMARK VINA RESULT:      -9.5      0.000      0.000
REMARK  Name = *****
REMARK                            x       y       z     vdW  Elec       q    Type
REMARK                         _______ _______ _______ _____ _____    ______ ____
ROOT
ATOM      1  C   LIG    1       30.533 -20.339   7.926  0.00  0.00    +0.062 A 
ATOM      2  C   LIG    1       29.279 -20.924   8.167  0.00  0.00    +0.063 A 
ATOM      3  C   LIG    1       28.285 -20.618   7.248  0.00  0.00    +0.157 A 
ATOM      4  C   LIG    1       28.450 -19.797   6.145  0.00  0.00    +0.110 A 
ATOM      5  N   LIG    1       27.272 -19.707   5.452  0.00  0.00    -0.209 NA
ATOM      6  C   LIG    1       26.435 -20.455   6.149  0.00  0.00    +0.229 A 
ATOM      7  C   LIG    1       29.702 -19.211   5.917  0.00  0.00    +0.032 A 
ATOM      8  O   LIG    1       26.991 -21.047   7.257  0.00  0.00    -0.435 OA
ATOM      9  C   LIG    1       30.738 -19.481   6.828  0.00  0.00    +0.017 A 
ENDROOT
BRANCH   6  10
ATOM     10  C   LIG    1       25.022 -20.728   5.903  0.00  0.00    +0.040 A 
ATOM     11  C   LIG    1       24.458 -21.927   6.365  0.00  0.00    +0.033 A 
ATOM     12  C   LIG    1       23.109 -22.207   6.141  0.00  0.00    +0.043 A 
ATOM     13 CL   LIG    1       22.437 -23.683   6.718  0.00  0.00    -0.084 Cl
ATOM     14  C   LIG    1       22.300 -21.305   5.456  0.00  0.00    +0.040 A 
ATOM     15  C   LIG    1       22.855 -20.116   4.993  0.00  0.00    +0.043 A 
ATOM     16 CL   LIG    1       21.867 -18.991   4.144  0.00  0.00    -0.084 Cl
ATOM     17  C   LIG    1       24.202 -19.823   5.212  0.00  0.00    +0.033 A 
ENDBRANCH   6  10
BRANCH   1  19
ATOM     18  O   LIG    1       31.973 -21.751   9.181  0.00  0.00    -0.245 OA
ATOM     19  C   LIG    1       31.610 -20.618   8.907  0.00  0.00    +0.337 C 
BRANCH  19  20
ATOM     20  O   LIG    1       32.177 -19.514   9.434  0.00  0.00    -0.477 OA
ATOM     21  H   LIG    1       33.023 -19.242   9.034  0.00  0.00    +0.295 HD
ENDBRANCH  19  20
ENDBRANCH   1  19
TORSDOF 3
ENDMDL
MODEL 2
REMARK VINA RESULT:      -9.5      0.291      2.034
REMARK  Name = *****
REMARK                            x       y       z     vdW  Elec       q    Type
REMARK                         _______ _______ _______ _____ _____    ______ ____
ROOT
ATOM      1  C   LIG    1       30.581 -19.955   7.929  0.00  0.00    +0.062 A 
ATOM      2  C   LIG    1       29.339 -20.534   8.234  0.00  0.00    +0.063 A 
ATOM      3  C   LIG    1       28.346 -20.365   7.279  0.00  0.00    +0.157 A 
ATOM      4  C   LIG    1       28.502 -19.682   6.084  0.00  0.00    +0.110 A 
ATOM      5  N   LIG    1       27.327 -19.703   5.379  0.00  0.00    -0.209 NA
ATOM      6  C   LIG    1       26.501 -20.379   6.158  0.00  0.00    +0.229 A 
ATOM      7  C   LIG    1       29.743 -19.100   5.793  0.00  0.00    +0.032 A 
ATOM      8  O   LIG    1       27.061 -20.818   7.333  0.00  0.00    -0.435 OA
ATOM      9  C   LIG    1       30.777 -19.234   6.735  0.00  0.00    +0.017 A 
ENDROOT
BRANCH   6  10
ATOM     10  C   LIG    1       25.096 -20.712   5.940  0.00  0.00    +0.040 A 
ATOM     11  C   LIG    1       24.271 -19.813   5.247  0.00  0.00    +0.033 A 
ATOM     12  C   LIG    1       22.925 -20.113   5.028  0.00  0.00    +0.043 A 
ATOM     13 CL   LIG    1       21.932 -18.997   4.173  0.00  0.00    -0.084 Cl
ATOM     14  C   LIG    1       22.378 -21.305   5.494  0.00  0.00    +0.040 A 
ATOM     15  C   LIG    1       23.191 -22.198   6.184  0.00  0.00    +0.043 A 
ATOM     16 CL   LIG    1       22.528 -23.676   6.765  0.00  0.00    -0.084 Cl
ATOM     17  C   LIG    1       24.538 -21.911   6.409  0.00  0.00    +0.033 A 
ENDBRANCH   6  10
BRANCH   1  19
ATOM     18  O   LIG    1       32.179 -21.158   9.211  0.00  0.00    -0.245 OA
ATOM     19  C   LIG    1       31.657 -20.088   8.943  0.00  0.00    +0.337 C 
BRANCH  19  20
ATOM     20  O   LIG    1       32.032 -18.922   9.507  0.00  0.00    -0.477 OA
ATOM     21  H   LIG    1       32.988 -18.737   9.499  0.00  0.00    +0.295 HD
ENDBRANCH  19  20
ENDBRANCH   1  19
TORSDOF 3
ENDMDL
MODEL 3
REMARK VINA RESULT:      -9.3      2.356      3.472
REMARK  Name = *****
REMARK                            x       y       z     vdW  Elec       q    Type
REMARK                         _______ _______ _______ _____ _____    ______ ____
ROOT
ATOM      1  C   LIG    1       31.138 -17.730   8.859  0.00  0.00    +0.062 A 
ATOM      2  C   LIG    1       29.788 -18.050   9.070  0.00  0.00    +0.063 A 
ATOM      3  C   LIG    1       29.291 -19.098   8.307  0.00  0.00    +0.157 A 
ATOM      4  C   LIG    1       30.022 -19.822   7.381  0.00  0.00    +0.110 A 
ATOM      5  N   LIG    1       29.228 -20.780   6.807  0.00  0.00    -0.209 NA
ATOM      6  C   LIG    1       28.053 -20.605   7.384  0.00  0.00    +0.229 A 
ATOM      7  C   LIG    1       31.367 -19.490   7.170  0.00  0.00    +0.032 A 
ATOM      8  O   LIG    1       28.022 -19.597   8.316  0.00  0.00    -0.435 OA
ATOM      9  C   LIG    1       31.913 -18.427   7.911  0.00  0.00    +0.017 A 
ENDROOT
BRANCH   6  10
ATOM     10  C   LIG    1       26.803 -21.329   7.163  0.00  0.00    +0.040 A 
ATOM     11  C   LIG    1       25.618 -20.611   6.939  0.00  0.00    +0.033 A 
ATOM     12  C   LIG    1       24.414 -21.284   6.725  0.00  0.00    +0.043 A 
ATOM     13 CL   LIG    1       22.973 -20.384   6.450  0.00  0.00    -0.084 Cl
ATOM     14  C   LIG    1       24.366 -22.675   6.732  0.00  0.00    +0.040 A 
ATOM     15  C   LIG    1       25.537 -23.391   6.956  0.00  0.00    +0.043 A 
ATOM     16 CL   LIG    1       25.493 -25.111   6.967  0.00  0.00    -0.084 Cl
ATOM     17  C   LIG    1       26.748 -22.731   7.170  0.00  0.00    +0.033 A 
ENDBRANCH   6  10
BRANCH   1  19
ATOM     18  O   LIG    1       31.363 -16.358  10.784  0.00  0.00    -0.245 OA
ATOM     19  C   LIG    1       31.694 -16.594   9.634  0.00  0.00    +0.337 C 
BRANCH  19  20
ATOM     20  O   LIG    1       32.624 -15.876   8.971  0.00  0.00    -0.477 OA
ATOM     21  H   LIG    1       32.286 -15.125   8.451  0.00  0.00    +0.295 HD
ENDBRANCH  19  20
ENDBRANCH   1  19
TORSDOF 3
ENDMDL
MODEL 4
REMARK VINA RESULT:      -9.2      2.360      2.933
REMARK  Name = *****
REMARK                            x       y       z     vdW  Elec       q    Type
REMARK                         _______ _______ _______ _____ _____    ______ ____
ROOT
ATOM      1  C   LIG    1       31.166 -17.743   8.866  0.00  0.00    +0.062 A 
ATOM      2  C   LIG    1       29.815 -18.057   9.084  0.00  0.00    +0.063 A 
ATOM      3  C   LIG    1       29.305 -19.093   8.313  0.00  0.00    +0.157 A 
ATOM      4  C   LIG    1       30.025 -19.810   7.373  0.00  0.00    +0.110 A 
ATOM      5  N   LIG    1       29.221 -20.756   6.793  0.00  0.00    -0.209 NA
ATOM      6  C   LIG    1       28.051 -20.581   7.382  0.00  0.00    +0.229 A 
ATOM      7  C   LIG    1       31.370 -19.484   7.155  0.00  0.00    +0.032 A 
ATOM      8  O   LIG    1       28.034 -19.584   8.326  0.00  0.00    -0.435 OA
ATOM      9  C   LIG    1       31.929 -18.433   7.904  0.00  0.00    +0.017 A 
ENDROOT
BRANCH   6  10
ATOM     10  C   LIG    1       26.795 -21.294   7.163  0.00  0.00    +0.040 A 
ATOM     11  C   LIG    1       26.784 -22.697   7.177  0.00  0.00    +0.033 A 
ATOM     12  C   LIG    1       25.594 -23.398   6.970  0.00  0.00    +0.043 A 
ATOM     13 CL   LIG    1       25.602 -25.118   6.994  0.00  0.00    -0.084 Cl
ATOM     14  C   LIG    1       24.400 -22.718   6.745  0.00  0.00    +0.040 A 
ATOM     15  C   LIG    1       24.406 -21.327   6.726  0.00  0.00    +0.043 A 
ATOM     16 CL   LIG    1       22.938 -20.474   6.448  0.00  0.00    -0.084 Cl
ATOM     17  C   LIG    1       25.589 -20.615   6.933  0.00  0.00    +0.033 A 
ENDBRANCH   6  10
BRANCH   1  19
ATOM     18  O   LIG    1       31.436 -16.412  10.814  0.00  0.00    -0.245 OA
ATOM     19  C   LIG    1       31.735 -16.618   9.649  0.00  0.00    +0.337 C 
BRANCH  19  20
ATOM     20  O   LIG    1       32.637 -15.877   8.975  0.00  0.00    -0.477 OA
ATOM     21  H   LIG    1       32.346 -14.981   8.725  0.00  0.00    +0.295 HD
ENDBRANCH  19  20
ENDBRANCH   1  19
TORSDOF 3
ENDMDL
MODEL 5
REMARK VINA RESULT:      -8.5      1.810      2.482
REMARK  Name = *****
REMARK                            x       y       z     vdW  Elec       q    Type
REMARK                         _______ _______ _______ _____ _____    ______ ____
ROOT
ATOM      1  C   LIG    1       30.524 -19.767   7.909  0.00  0.00    +0.062 A 
ATOM      2  C   LIG    1       29.829 -20.950   8.207  0.00  0.00    +0.063 A 
ATOM      3  C   LIG    1       28.640 -21.140   7.517  0.00  0.00    +0.157 A 
ATOM      4  C   LIG    1       28.115 -20.262   6.583  0.00  0.00    +0.110 A 
ATOM      5  N   LIG    1       26.932 -20.752   6.097  0.00  0.00    -0.209 NA
ATOM      6  C   LIG    1       26.769 -21.891   6.747  0.00  0.00    +0.229 A 
ATOM      7  C   LIG    1       28.811 -19.080   6.299  0.00  0.00    +0.032 A 
ATOM      8  O   LIG    1       27.780 -22.192   7.627  0.00  0.00    -0.435 OA
ATOM      9  C   LIG    1       30.016 -18.837   6.981  0.00  0.00    +0.017 A 
ENDROOT
BRANCH   6  10
ATOM     10  C   LIG    1       25.674 -22.853   6.657  0.00  0.00    +0.040 A 
ATOM     11  C   LIG    1       25.955 -24.227   6.687  0.00  0.00    +0.033 A 
ATOM     12  C   LIG    1       24.922 -25.163   6.602  0.00  0.00    +0.043 A 
ATOM     13 CL   LIG    1       25.290 -26.844   6.643  0.00  0.00    -0.084 Cl
ATOM     14  C   LIG    1       23.598 -24.751   6.486  0.00  0.00    +0.040 A 
ATOM     15  C   LIG    1       23.314 -23.390   6.453  0.00  0.00    +0.043 A 
ATOM     16 CL   LIG    1       21.681 -22.865   6.309  0.00  0.00    -0.084 Cl
ATOM     17  C   LIG    1       24.337 -22.444   6.537  0.00  0.00    +0.033 A 
ENDBRANCH   6  10
BRANCH   1  19
ATOM     18  O   LIG    1       32.326 -18.424   8.675  0.00  0.00    -0.245 OA
ATOM     19  C   LIG    1       31.783 -19.516   8.652  0.00  0.00    +0.337 C 
BRANCH  19  20
ATOM     20  O   LIG    1       32.246 -20.586   9.331  0.00  0.00    -0.477 OA
ATOM     21  H   LIG    1       31.603 -21.302   9.481  0.00  0.00    +0.295 HD
ENDBRANCH  19  20
ENDBRANCH   1  19
TORSDOF 3
ENDMDL
MODEL 6
REMARK VINA RESULT:      -8.2      3.843      7.292
REMARK  Name = *****
REMARK                            x       y       z     vdW  Elec       q    Type
REMARK                         _______ _______ _______ _____ _____    ______ ____
ROOT
ATOM      1  C   LIG    1       23.731 -20.919   5.243  0.00  0.00    +0.062 A 
ATOM      2  C   LIG    1       24.527 -21.068   6.390  0.00  0.00    +0.063 A 
ATOM      3  C   LIG    1       25.825 -20.588   6.289  0.00  0.00    +0.157 A 
ATOM      4  C   LIG    1       26.364 -19.990   5.162  0.00  0.00    +0.110 A 
ATOM      5  N   LIG    1       27.666 -19.636   5.401  0.00  0.00    -0.209 NA
ATOM      6  C   LIG    1       27.880 -20.031   6.643  0.00  0.00    +0.229 A 
ATOM      7  C   LIG    1       25.565 -19.854   4.019  0.00  0.00    +0.032 A 
ATOM      8  O   LIG    1       26.794 -20.616   7.247  0.00  0.00    -0.435 OA
ATOM      9  C   LIG    1       24.246 -20.337   4.068  0.00  0.00    +0.017 A 
ENDROOT
BRANCH   6  10
ATOM     10  C   LIG    1       29.098 -19.933   7.444  0.00  0.00    +0.040 A 
ATOM     11  C   LIG    1       29.727 -21.103   7.893  0.00  0.00    +0.033 A 
ATOM     12  C   LIG    1       30.892 -21.031   8.659  0.00  0.00    +0.043 A 
ATOM     13 CL   LIG    1       31.649 -22.480   9.198  0.00  0.00    -0.084 Cl
ATOM     14  C   LIG    1       31.449 -19.799   8.990  0.00  0.00    +0.040 A 
ATOM     15  C   LIG    1       30.827 -18.636   8.550  0.00  0.00    +0.043 A 
ATOM     16 CL   LIG    1       31.504 -17.106   8.952  0.00  0.00    -0.084 Cl
ATOM     17  C   LIG    1       29.662 -18.694   7.783  0.00  0.00    +0.033 A 
ENDBRANCH   6  10
BRANCH   1  19
ATOM     18  O   LIG    1       21.411 -20.918   4.733  0.00  0.00    -0.245 OA
ATOM     19  C   LIG    1       22.348 -21.452   5.305  0.00  0.00    +0.337 C 
BRANCH  19  20
ATOM     20  O   LIG    1       22.228 -22.596   6.009  0.00  0.00    -0.477 OA
ATOM     21  H   LIG    1       21.539 -22.598   6.697  0.00  0.00    +0.295 HD
ENDBRANCH  19  20
ENDBRANCH   1  19
TORSDOF 3
ENDMDL
MODEL 7
REMARK VINA RESULT:      -8.1      3.841      7.539
REMARK  Name = *****
REMARK                            x       y       z     vdW  Elec       q    Type
REMARK                         _______ _______ _______ _____ _____    ______ ____
ROOT
ATOM      1  C   LIG    1       23.689 -20.860   5.181  0.00  0.00    +0.062 A 
ATOM      2  C   LIG    1       24.477 -21.049   6.327  0.00  0.00    +0.063 A 
ATOM      3  C   LIG    1       25.780 -20.576   6.247  0.00  0.00    +0.157 A 
ATOM      4  C   LIG    1       26.329 -19.949   5.141  0.00  0.00    +0.110 A 
ATOM      5  N   LIG    1       27.632 -19.612   5.397  0.00  0.00    -0.209 NA
ATOM      6  C   LIG    1       27.837 -20.046   6.628  0.00  0.00    +0.229 A 
ATOM      7  C   LIG    1       25.538 -19.774   3.998  0.00  0.00    +0.032 A 
ATOM      8  O   LIG    1       26.743 -20.640   7.209  0.00  0.00    -0.435 OA
ATOM      9  C   LIG    1       24.215 -20.247   4.027  0.00  0.00    +0.017 A 
ENDROOT
BRANCH   6  10
ATOM     10  C   LIG    1       29.051 -19.981   7.437  0.00  0.00    +0.040 A 
ATOM     11  C   LIG    1       29.588 -18.731   7.780  0.00  0.00    +0.033 A 
ATOM     12  C   LIG    1       30.748 -18.647   8.553  0.00  0.00    +0.043 A 
ATOM     13 CL   LIG    1       31.388 -17.103   8.964  0.00  0.00    -0.084 Cl
ATOM     14  C   LIG    1       31.391 -19.799   8.995  0.00  0.00    +0.040 A 
ATOM     15  C   LIG    1       30.864 -21.041   8.656  0.00  0.00    +0.043 A 
ATOM     16 CL   LIG    1       31.650 -22.473   9.196  0.00  0.00    -0.084 Cl
ATOM     17  C   LIG    1       29.705 -21.139   7.884  0.00  0.00    +0.033 A 
ENDBRANCH   6  10
BRANCH   1  19
ATOM     18  O   LIG    1       21.373 -20.829   4.655  0.00  0.00    -0.245 OA
ATOM     19  C   LIG    1       22.301 -21.384   5.220  0.00  0.00    +0.337 C 
BRANCH  19  20
ATOM     20  O   LIG    1       22.167 -22.544   5.895  0.00  0.00    -0.477 OA
ATOM     21  H   LIG    1       21.370 -22.621   6.449  0.00  0.00    +0.295 HD
ENDBRANCH  19  20
ENDBRANCH   1  19
TORSDOF 3
ENDMDL
MODEL 8
REMARK VINA RESULT:      -8.1      5.575      7.666
REMARK  Name = *****
REMARK                            x       y       z     vdW  Elec       q    Type
REMARK                         _______ _______ _______ _____ _____    ______ ____
ROOT
ATOM      1  C   LIG    1       24.691 -29.120   5.939  0.00  0.00    +0.062 A 
ATOM      2  C   LIG    1       24.057 -28.048   6.587  0.00  0.00    +0.063 A 
ATOM      3  C   LIG    1       24.476 -26.780   6.206  0.00  0.00    +0.157 A 
ATOM      4  C   LIG    1       25.449 -26.519   5.256  0.00  0.00    +0.110 A 
ATOM      5  N   LIG    1       25.619 -25.166   5.125  0.00  0.00    -0.209 NA
ATOM      6  C   LIG    1       24.765 -24.653   5.992  0.00  0.00    +0.229 A 
ATOM      7  C   LIG    1       26.083 -27.595   4.621  0.00  0.00    +0.032 A 
ATOM      8  O   LIG    1       24.029 -25.584   6.683  0.00  0.00    -0.435 OA
ATOM      9  C   LIG    1       25.701 -28.899   4.982  0.00  0.00    +0.017 A 
ENDROOT
BRANCH   6  10
ATOM     10  C   LIG    1       24.507 -23.251   6.310  0.00  0.00    +0.040 A 
ATOM     11  C   LIG    1       25.219 -22.633   7.349  0.00  0.00    +0.033 A 
ATOM     12  C   LIG    1       24.988 -21.294   7.668  0.00  0.00    +0.043 A 
ATOM     13 CL   LIG    1       25.875 -20.556   8.945  0.00  0.00    -0.084 Cl
ATOM     14  C   LIG    1       24.047 -20.549   6.963  0.00  0.00    +0.040 A 
ATOM     15  C   LIG    1       23.335 -21.157   5.934  0.00  0.00    +0.043 A 
ATOM     16 CL   LIG    1       22.169 -20.247   5.054  0.00  0.00    -0.084 Cl
ATOM     17  C   LIG    1       23.558 -22.495   5.604  0.00  0.00    +0.033 A 
ENDBRANCH   6  10
BRANCH   1  19
ATOM     18  O   LIG    1       24.787 -31.061   7.303  0.00  0.00    -0.245 OA
ATOM     19  C   LIG    1       24.291 -30.489   6.346  0.00  0.00    +0.337 C 
BRANCH  19  20
ATOM     20  O   LIG    1       23.308 -31.024   5.594  0.00  0.00    -0.477 OA
ATOM     21  H   LIG    1       22.706 -30.385   5.170  0.00  0.00    +0.295 HD
ENDBRANCH  19  20
ENDBRANCH   1  19
TORSDOF 3
ENDMDL
MODEL 9
REMARK VINA RESULT:      -8.0      5.595      7.765
REMARK  Name = *****
REMARK                            x       y       z     vdW  Elec       q    Type
REMARK                         _______ _______ _______ _____ _____    ______ ____
ROOT
ATOM      1  C   LIG    1       24.804 -29.133   5.873  0.00  0.00    +0.062 A 
ATOM      2  C   LIG    1       24.134 -28.075   6.510  0.00  0.00    +0.063 A 
ATOM      3  C   LIG    1       24.586 -26.801   6.195  0.00  0.00    +0.157 A 
ATOM      4  C   LIG    1       25.622 -26.520   5.320  0.00  0.00    +0.110 A 
ATOM      5  N   LIG    1       25.809 -25.165   5.241  0.00  0.00    -0.209 NA
ATOM      6  C   LIG    1       24.902 -24.670   6.065  0.00  0.00    +0.229 A 
ATOM      7  C   LIG    1       26.290 -27.582   4.697  0.00  0.00    +0.032 A 
ATOM      8  O   LIG    1       24.116 -25.616   6.677  0.00  0.00    -0.435 OA
ATOM      9  C   LIG    1       25.877 -28.892   4.993  0.00  0.00    +0.017 A 
ENDROOT
BRANCH   6  10
ATOM     10  C   LIG    1       24.632 -23.276   6.406  0.00  0.00    +0.040 A 
ATOM     11  C   LIG    1       23.656 -22.565   5.692  0.00  0.00    +0.033 A 
ATOM     12  C   LIG    1       23.382 -21.232   6.003  0.00  0.00    +0.043 A 
ATOM     13 CL   LIG    1       22.179 -20.379   5.115  0.00  0.00    -0.084 Cl
ATOM     14  C   LIG    1       24.072 -20.585   7.024  0.00  0.00    +0.040 A 
ATOM     15  C   LIG    1       25.042 -21.284   7.733  0.00  0.00    +0.043 A 
ATOM     16 CL   LIG    1       25.903 -20.497   8.998  0.00  0.00    -0.084 Cl
ATOM     17  C   LIG    1       25.325 -22.618   7.433  0.00  0.00    +0.033 A 
ENDBRANCH   6  10
BRANCH   1  19
ATOM     18  O   LIG    1       24.998 -31.230   6.970  0.00  0.00    -0.245 OA
ATOM     19  C   LIG    1       24.369 -30.511   6.212  0.00  0.00    +0.337 C 
BRANCH  19  20
ATOM     20  O   LIG    1       23.202 -30.876   5.644  0.00  0.00    -0.477 OA
ATOM     21  H   LIG    1       23.206 -30.938   4.672  0.00  0.00    +0.295 HD
ENDBRANCH  19  20
ENDBRANCH   1  19
TORSDOF 3
ENDMDL
