MODEL 1
REMARK VINA RESULT:      -3.8      0.000      0.000
REMARK  Name = *****
REMARK                            x       y       z     vdW  Elec       q    Type
REMARK                         _______ _______ _______ _____ _____    ______ ____
ROOT
ATOM      1  N   LIG    1       27.197 -13.434   4.255  0.00  0.00    -0.186 N 
ATOM      2  H   LIG    1       26.663 -13.032   5.016  0.00  0.00    +0.271 HD
ENDROOT
BRANCH   1   5
ATOM      3  N   LIG    1       29.291 -13.246   3.318  0.00  0.00    -0.129 NA
ATOM      4  H   LIG    1       30.197 -12.813   3.510  0.00  0.00    +0.306 HD
ATOM      5  C   LIG    1       28.461 -12.941   4.251  0.00  0.00    +0.386 C 
BRANCH   5   6
ATOM      6  N   LIG    1       28.782 -12.101   5.263  0.00  0.00    -0.289 N 
ATOM      7  H   LIG    1       28.837 -12.562   6.168  0.00  0.00    +0.255 HD
ATOM      8  H   LIG    1       28.230 -11.255   5.318  0.00  0.00    +0.255 HD
ENDBRANCH   5   6
ENDBRANCH   1   5
BRANCH   1   9
ATOM      9  C   LIG    1       26.423 -14.077   3.351  0.00  0.00    +0.386 C 
ATOM     10  N   LIG    1       26.669 -14.228   2.095  0.00  0.00    -0.129 NA
ATOM     11  H   LIG    1       27.532 -13.706   1.894  0.00  0.00    +0.306 HD
BRANCH   9  12
ATOM     12  N   LIG    1       25.287 -14.601   3.862  0.00  0.00    -0.289 N 
ATOM     13  H   LIG    1       24.497 -14.316   3.289  0.00  0.00    +0.255 HD
ATOM     14  H   LIG    1       25.309 -15.609   3.961  0.00  0.00    +0.255 HD
ENDBRANCH   9  12
ENDBRANCH   1   9
TORSDOF 4
ENDMDL
MODEL 2
REMARK VINA RESULT:      -3.8      0.220      3.201
REMARK  Name = *****
REMARK                            x       y       z     vdW  Elec       q    Type
REMARK                         _______ _______ _______ _____ _____    ______ ____
ROOT
ATOM      1  N   LIG    1       27.423 -13.632   4.240  0.00  0.00    -0.186 N 
ATOM      2  H   LIG    1       27.298 -14.144   5.105  0.00  0.00    +0.271 HD
ENDROOT
BRANCH   1   5
ATOM      3  N   LIG    1       26.875 -14.131   2.061  0.00  0.00    -0.129 NA
ATOM      4  H   LIG    1       26.073 -14.439   1.508  0.00  0.00    +0.306 HD
ATOM      5  C   LIG    1       26.544 -14.065   3.301  0.00  0.00    +0.386 C 
BRANCH   5   6
ATOM      6  N   LIG    1       25.323 -14.441   3.749  0.00  0.00    -0.289 N 
ATOM      7  H   LIG    1       24.704 -13.657   3.939  0.00  0.00    +0.255 HD
ATOM      8  H   LIG    1       25.325 -15.099   4.518  0.00  0.00    +0.255 HD
ENDBRANCH   5   6
ENDBRANCH   1   5
BRANCH   1   9
ATOM      9  C   LIG    1       28.573 -12.921   4.211  0.00  0.00    +0.386 C 
ATOM     10  N   LIG    1       29.473 -12.949   3.288  0.00  0.00    -0.129 NA
ATOM     11  H   LIG    1       29.186 -13.669   2.611  0.00  0.00    +0.306 HD
BRANCH   9  12
ATOM     12  N   LIG    1       28.755 -12.110   5.276  0.00  0.00    -0.289 N 
ATOM     13  H   LIG    1       28.543 -11.151   5.010  0.00  0.00    +0.255 HD
ATOM     14  H   LIG    1       28.219 -12.379   6.092  0.00  0.00    +0.255 HD
ENDBRANCH   9  12
ENDBRANCH   1   9
TORSDOF 4
ENDMDL
MODEL 3
REMARK VINA RESULT:      -3.7      1.550      2.532
REMARK  Name = *****
REMARK                            x       y       z     vdW  Elec       q    Type
REMARK                         _______ _______ _______ _____ _____    ______ ____
ROOT
ATOM      1  N   LIG    1       25.810 -13.368   3.725  0.00  0.00    -0.186 N 
ATOM      2  H   LIG    1       26.014 -12.653   4.413  0.00  0.00    +0.271 HD
ENDROOT
BRANCH   1   5
ATOM      3  N   LIG    1       26.801 -14.246   1.842  0.00  0.00    -0.129 NA
ATOM      4  H   LIG    1       27.729 -14.368   1.433  0.00  0.00    +0.306 HD
ATOM      5  C   LIG    1       26.901 -13.614   2.958  0.00  0.00    +0.386 C 
BRANCH   5   6
ATOM      6  N   LIG    1       28.081 -13.139   3.421  0.00  0.00    -0.289 N 
ATOM      7  H   LIG    1       28.045 -12.157   3.683  0.00  0.00    +0.255 HD
ATOM      8  H   LIG    1       28.886 -13.332   2.839  0.00  0.00    +0.255 HD
ENDBRANCH   5   6
ENDBRANCH   1   5
BRANCH   1   9
ATOM      9  C   LIG    1       24.486 -13.620   3.608  0.00  0.00    +0.386 C 
ATOM     10  N   LIG    1       23.782 -14.404   4.351  0.00  0.00    -0.129 NA
ATOM     11  H   LIG    1       24.430 -14.858   5.007  0.00  0.00    +0.306 HD
BRANCH   9  12
ATOM     12  N   LIG    1       23.880 -12.960   2.597  0.00  0.00    -0.289 N 
ATOM     13  H   LIG    1       24.567 -12.398   2.101  0.00  0.00    +0.255 HD
ATOM     14  H   LIG    1       23.383 -13.563   1.953  0.00  0.00    +0.255 HD
ENDBRANCH   9  12
ENDBRANCH   1   9
TORSDOF 4
ENDMDL
MODEL 4
REMARK VINA RESULT:      -3.6      6.231      6.630
REMARK  Name = *****
REMARK                            x       y       z     vdW  Elec       q    Type
REMARK                         _______ _______ _______ _____ _____    ______ ____
ROOT
ATOM      1  N   LIG    1       27.932 -19.832   5.158  0.00  0.00    -0.186 N 
ATOM      2  H   LIG    1       28.329 -20.316   4.362  0.00  0.00    +0.271 HD
ENDROOT
BRANCH   1   5
ATOM      3  N   LIG    1       29.454 -18.110   5.291  0.00  0.00    -0.129 NA
ATOM      4  H   LIG    1       30.175 -17.752   5.920  0.00  0.00    +0.306 HD
ATOM      5  C   LIG    1       28.894 -19.140   5.819  0.00  0.00    +0.386 C 
BRANCH   5   6
ATOM      6  N   LIG    1       29.205 -19.580   7.062  0.00  0.00    -0.289 N 
ATOM      7  H   LIG    1       30.205 -19.672   7.217  0.00  0.00    +0.255 HD
ATOM      8  H   LIG    1       28.709 -20.407   7.366  0.00  0.00    +0.255 HD
ENDBRANCH   5   6
ENDBRANCH   1   5
BRANCH   1   9
ATOM      9  C   LIG    1       26.684 -20.256   5.462  0.00  0.00    +0.386 C 
ATOM     10  N   LIG    1       26.217 -20.494   6.640  0.00  0.00    -0.129 NA
ATOM     11  H   LIG    1       26.995 -20.370   7.302  0.00  0.00    +0.306 HD
BRANCH   9  12
ATOM     12  N   LIG    1       25.878 -20.430   4.393  0.00  0.00    -0.289 N 
ATOM     13  H   LIG    1       26.446 -20.544   3.557  0.00  0.00    +0.255 HD
ATOM     14  H   LIG    1       25.230 -21.203   4.489  0.00  0.00    +0.255 HD
ENDBRANCH   9  12
ENDBRANCH   1   9
TORSDOF 4
ENDMDL
MODEL 5
REMARK VINA RESULT:      -3.6      1.907      3.694
REMARK  Name = *****
REMARK                            x       y       z     vdW  Elec       q    Type
REMARK                         _______ _______ _______ _____ _____    ______ ____
ROOT
ATOM      1  N   LIG    1       25.726 -13.163   2.407  0.00  0.00    -0.186 N 
ATOM      2  H   LIG    1       26.024 -12.421   1.784  0.00  0.00    +0.271 HD
ENDROOT
BRANCH   1   5
ATOM      3  N   LIG    1       23.850 -11.838   2.561  0.00  0.00    -0.129 NA
ATOM      4  H   LIG    1       22.960 -11.800   3.062  0.00  0.00    +0.306 HD
ATOM      5  C   LIG    1       24.489 -12.902   2.898  0.00  0.00    +0.386 C 
BRANCH   5   6
ATOM      6  N   LIG    1       23.966 -13.830   3.735  0.00  0.00    -0.289 N 
ATOM      7  H   LIG    1       23.590 -13.433   4.592  0.00  0.00    +0.255 HD
ATOM      8  H   LIG    1       24.561 -14.624   3.930  0.00  0.00    +0.255 HD
ENDBRANCH   5   6
ENDBRANCH   1   5
BRANCH   1   9
ATOM      9  C   LIG    1       26.737 -13.988   2.762  0.00  0.00    +0.386 C 
ATOM     10  N   LIG    1       26.666 -15.263   2.937  0.00  0.00    -0.129 NA
ATOM     11  H   LIG    1       25.678 -15.527   2.826  0.00  0.00    +0.306 HD
BRANCH   9  12
ATOM     12  N   LIG    1       27.926 -13.370   2.937  0.00  0.00    -0.289 N 
ATOM     13  H   LIG    1       28.386 -13.262   2.037  0.00  0.00    +0.255 HD
ATOM     14  H   LIG    1       27.858 -12.478   3.411  0.00  0.00    +0.255 HD
ENDBRANCH   9  12
ENDBRANCH   1   9
TORSDOF 4
ENDMDL
MODEL 6
REMARK VINA RESULT:      -3.6      1.936      3.720
REMARK  Name = *****
REMARK                            x       y       z     vdW  Elec       q    Type
REMARK                         _______ _______ _______ _____ _____    ______ ____
ROOT
ATOM      1  N   LIG    1       25.749 -13.102   2.477  0.00  0.00    -0.186 N 
ATOM      2  H   LIG    1       26.092 -12.255   2.040  0.00  0.00    +0.271 HD
ENDROOT
BRANCH   1   5
ATOM      3  N   LIG    1       23.878 -13.820   3.609  0.00  0.00    -0.129 NA
ATOM      4  H   LIG    1       22.906 -13.546   3.766  0.00  0.00    +0.306 HD
ATOM      5  C   LIG    1       24.460 -12.943   2.871  0.00  0.00    +0.386 C 
BRANCH   5   6
ATOM      6  N   LIG    1       23.842 -11.809   2.465  0.00  0.00    -0.289 N 
ATOM      7  H   LIG    1       24.287 -10.962   2.812  0.00  0.00    +0.255 HD
ATOM      8  H   LIG    1       22.842 -11.782   2.611  0.00  0.00    +0.255 HD
ENDBRANCH   5   6
ENDBRANCH   1   5
BRANCH   1   9
ATOM      9  C   LIG    1       26.737 -13.974   2.780  0.00  0.00    +0.386 C 
ATOM     10  N   LIG    1       26.622 -15.251   2.917  0.00  0.00    -0.129 NA
ATOM     11  H   LIG    1       25.622 -15.474   2.823  0.00  0.00    +0.306 HD
BRANCH   9  12
ATOM     12  N   LIG    1       27.952 -13.407   2.944  0.00  0.00    -0.289 N 
ATOM     13  H   LIG    1       28.578 -14.072   3.389  0.00  0.00    +0.255 HD
ATOM     14  H   LIG    1       28.359 -13.056   2.085  0.00  0.00    +0.255 HD
ENDBRANCH   9  12
ENDBRANCH   1   9
TORSDOF 4
ENDMDL
MODEL 7
REMARK VINA RESULT:      -3.6      6.890      8.167
REMARK  Name = *****
REMARK                            x       y       z     vdW  Elec       q    Type
REMARK                         _______ _______ _______ _____ _____    ______ ____
ROOT
ATOM      1  N   LIG    1       24.440 -20.466   5.368  0.00  0.00    -0.186 N 
ATOM      2  H   LIG    1       24.656 -21.122   6.110  0.00  0.00    +0.271 HD
ENDROOT
BRANCH   1   5
ATOM      3  N   LIG    1       22.532 -19.222   5.036  0.00  0.00    -0.129 NA
ATOM      4  H   LIG    1       21.520 -19.346   4.969  0.00  0.00    +0.306 HD
ATOM      5  C   LIG    1       23.097 -20.365   5.201  0.00  0.00    +0.386 C 
BRANCH   5   6
ATOM      6  N   LIG    1       22.402 -21.527   5.194  0.00  0.00    -0.289 N 
ATOM      7  H   LIG    1       22.997 -22.351   5.151  0.00  0.00    +0.255 HD
ATOM      8  H   LIG    1       21.652 -21.582   4.518  0.00  0.00    +0.255 HD
ENDBRANCH   5   6
ENDBRANCH   1   5
BRANCH   1   9
ATOM      9  C   LIG    1       25.519 -20.147   4.618  0.00  0.00    +0.386 C 
ATOM     10  N   LIG    1       26.755 -20.211   4.981  0.00  0.00    -0.129 NA
ATOM     11  H   LIG    1       26.763 -20.482   5.973  0.00  0.00    +0.306 HD
BRANCH   9  12
ATOM     12  N   LIG    1       25.226 -19.726   3.369  0.00  0.00    -0.289 N 
ATOM     13  H   LIG    1       25.296 -20.509   2.724  0.00  0.00    +0.255 HD
ATOM     14  H   LIG    1       24.320 -19.280   3.288  0.00  0.00    +0.255 HD
ENDBRANCH   9  12
ENDBRANCH   1   9
TORSDOF 4
ENDMDL
MODEL 8
REMARK VINA RESULT:      -3.5      1.493      2.240
REMARK  Name = *****
REMARK                            x       y       z     vdW  Elec       q    Type
REMARK                         _______ _______ _______ _____ _____    ______ ____
ROOT
ATOM      1  N   LIG    1       26.608 -13.414   2.540  0.00  0.00    -0.186 N 
ATOM      2  H   LIG    1       26.852 -13.331   1.560  0.00  0.00    +0.271 HD
ENDROOT
BRANCH   1   5
ATOM      3  N   LIG    1       28.689 -13.002   3.433  0.00  0.00    -0.129 NA
ATOM      4  H   LIG    1       29.416 -13.478   3.971  0.00  0.00    +0.306 HD
ATOM      5  C   LIG    1       27.689 -13.793   3.267  0.00  0.00    +0.386 C 
BRANCH   5   6
ATOM      6  N   LIG    1       27.639 -15.028   3.820  0.00  0.00    -0.289 N 
ATOM      7  H   LIG    1       27.448 -15.764   3.144  0.00  0.00    +0.255 HD
ATOM      8  H   LIG    1       27.045 -15.116   4.634  0.00  0.00    +0.255 HD
ENDBRANCH   5   6
ENDBRANCH   1   5
BRANCH   1   9
ATOM      9  C   LIG    1       25.272 -13.411   2.751  0.00  0.00    +0.386 C 
ATOM     10  N   LIG    1       24.646 -13.961   3.734  0.00  0.00    -0.129 NA
ATOM     11  H   LIG    1       25.348 -14.466   4.292  0.00  0.00    +0.306 HD
BRANCH   9  12
ATOM     12  N   LIG    1       24.560 -12.748   1.812  0.00  0.00    -0.289 N 
ATOM     13  H   LIG    1       23.611 -13.113   1.789  0.00  0.00    +0.255 HD
ATOM     14  H   LIG    1       24.552 -11.743   1.938  0.00  0.00    +0.255 HD
ENDBRANCH   9  12
ENDBRANCH   1   9
TORSDOF 4
ENDMDL
MODEL 9
REMARK VINA RESULT:      -3.5      6.782      7.705
REMARK  Name = *****
REMARK                            x       y       z     vdW  Elec       q    Type
REMARK                         _______ _______ _______ _____ _____    ______ ____
ROOT
ATOM      1  N   LIG    1       24.496 -20.644   5.223  0.00  0.00    -0.186 N 
ATOM      2  H   LIG    1       24.837 -20.966   6.121  0.00  0.00    +0.271 HD
ENDROOT
BRANCH   1   5
ATOM      3  N   LIG    1       25.284 -19.524   3.372  0.00  0.00    -0.129 NA
ATOM      4  H   LIG    1       26.169 -19.229   2.956  0.00  0.00    +0.306 HD
ATOM      5  C   LIG    1       25.509 -20.113   4.493  0.00  0.00    +0.386 C 
BRANCH   5   6
ATOM      6  N   LIG    1       26.751 -20.217   5.023  0.00  0.00    -0.289 N 
ATOM      7  H   LIG    1       27.486 -20.250   4.321  0.00  0.00    +0.255 HD
ATOM      8  H   LIG    1       26.870 -20.949   5.710  0.00  0.00    +0.255 HD
ENDBRANCH   5   6
ENDBRANCH   1   5
BRANCH   1   9
ATOM      9  C   LIG    1       23.146 -20.580   5.166  0.00  0.00    +0.386 C 
ATOM     10  N   LIG    1       22.324 -21.572   5.222  0.00  0.00    -0.129 NA
ATOM     11  H   LIG    1       22.891 -22.430   5.245  0.00  0.00    +0.306 HD
BRANCH   9  12
ATOM     12  N   LIG    1       22.652 -19.328   5.043  0.00  0.00    -0.289 N 
ATOM     13  H   LIG    1       22.759 -18.835   5.925  0.00  0.00    +0.255 HD
ATOM     14  H   LIG    1       23.065 -18.797   4.286  0.00  0.00    +0.255 HD
ENDBRANCH   9  12
ENDBRANCH   1   9
TORSDOF 4
ENDMDL
