MODEL 1
REMARK VINA RESULT:       0.3      0.000      0.000
REMARK  Name = *****
REMARK                            x       y       z     vdW  Elec       q    Type
REMARK                         _______ _______ _______ _____ _____    ______ ____
ROOT
ATOM      1  N   LIG    1       25.222 -15.583   3.075  0.00  0.00    -0.297 N 
ATOM      2  C   LIG    1       24.342 -16.538   3.648  0.00  0.00    +0.050 A 
ATOM      3  C   LIG    1       23.256 -16.156   4.460  0.00  0.00    +0.034 A 
ATOM      4  C   LIG    1       22.477 -17.131   5.105  0.00  0.00    +0.019 A 
ATOM      5  C   LIG    1       22.750 -18.489   4.944  0.00  0.00    +0.030 A 
ATOM      6  C   LIG    1       23.755 -18.875   4.059  0.00  0.00    +0.107 A 
ATOM      7  S   LIG    1       22.845 -14.459   4.796  0.00  0.00    -0.086 S 
ATOM      8  C   LIG    1       23.872 -13.588   3.631  0.00  0.00    +0.034 A 
ATOM      9  C   LIG    1       23.604 -12.217   3.466  0.00  0.00    +0.017 A 
ATOM     10  C   LIG    1       24.355 -11.447   2.583  0.00  0.00    +0.001 A 
ATOM     11  C   LIG    1       25.373 -12.042   1.853  0.00  0.00    +0.002 A 
ATOM     12  C   LIG    1       25.654 -13.401   2.024  0.00  0.00    +0.024 A 
ATOM     13  C   LIG    1       24.524 -17.914   3.405  0.00  0.00    +0.053 A 
ATOM     14  C   LIG    1       24.928 -14.202   2.929  0.00  0.00    +0.048 A 
ENDROOT
BRANCH   6  15
ATOM     15  S   LIG    1       24.154 -20.602   3.879  0.00  0.00    +0.060 S 
ATOM     16  O   LIG    1       24.887 -20.732   2.642  0.00  0.00    -0.153 OA
ATOM     17  O   LIG    1       22.938 -21.370   4.109  0.00  0.00    -0.153 OA
BRANCH  15  18
ATOM     18  N   LIG    1       25.221 -20.879   5.176  0.00  0.00    -0.183 NA
ATOM     19  C   LIG    1       24.582 -20.928   6.509  0.00  0.00    +0.131 C 
ATOM     20  C   LIG    1       26.461 -20.076   5.181  0.00  0.00    +0.131 C 
ENDBRANCH  15  18
ENDBRANCH   6  15
BRANCH   1  21
ATOM     21  C   LIG    1       26.669 -15.944   3.132  0.00  0.00    +0.129 C 
BRANCH  21  23
ATOM     22  C   LIG    1       28.433 -16.825   4.806  0.00  0.00    +0.026 C 
ATOM     23  C   LIG    1       27.346 -15.771   4.532  0.00  0.00    +0.071 C 
BRANCH  23  24
ATOM     24  N   LIG    1       27.917 -14.415   4.782  0.00  0.00    -0.304 NA
ATOM     25  C   LIG    1       27.002 -13.557   5.532  0.00  0.00    +0.105 C 
ATOM     26  C   LIG    1       28.401 -13.727   3.584  0.00  0.00    +0.105 C 
ENDBRANCH  23  24
ENDBRANCH  21  23
ENDBRANCH   1  21
TORSDOF 5
ENDMDL
MODEL 2
REMARK VINA RESULT:       2.4      1.489      2.488
REMARK  Name = *****
REMARK                            x       y       z     vdW  Elec       q    Type
REMARK                         _______ _______ _______ _____ _____    ______ ____
ROOT
ATOM      1  N   LIG    1       25.595 -16.597   3.615  0.00  0.00    -0.297 N 
ATOM      2  C   LIG    1       24.363 -17.214   3.962  0.00  0.00    +0.050 A 
ATOM      3  C   LIG    1       23.244 -16.463   4.369  0.00  0.00    +0.034 A 
ATOM      4  C   LIG    1       22.081 -17.112   4.817  0.00  0.00    +0.019 A 
ATOM      5  C   LIG    1       22.005 -18.504   4.851  0.00  0.00    +0.030 A 
ATOM      6  C   LIG    1       23.069 -19.250   4.349  0.00  0.00    +0.107 A 
ATOM      7  S   LIG    1       23.237 -14.685   4.433  0.00  0.00    -0.086 S 
ATOM      8  C   LIG    1       24.744 -14.276   3.576  0.00  0.00    +0.034 A 
ATOM      9  C   LIG    1       24.918 -12.923   3.233  0.00  0.00    +0.017 A 
ATOM     10  C   LIG    1       26.065 -12.501   2.567  0.00  0.00    +0.001 A 
ATOM     11  C   LIG    1       27.042 -13.427   2.232  0.00  0.00    +0.002 A 
ATOM     12  C   LIG    1       26.880 -14.771   2.584  0.00  0.00    +0.024 A 
ATOM     13  C   LIG    1       24.222 -18.614   3.892  0.00  0.00    +0.053 A 
ATOM     14  C   LIG    1       25.742 -15.225   3.281  0.00  0.00    +0.048 A 
ENDROOT
BRANCH   6  15
ATOM     15  S   LIG    1       23.014 -21.029   4.433  0.00  0.00    +0.060 S 
ATOM     16  O   LIG    1       23.871 -21.521   3.380  0.00  0.00    -0.153 OA
ATOM     17  O   LIG    1       21.616 -21.432   4.506  0.00  0.00    -0.153 OA
BRANCH  15  18
ATOM     18  N   LIG    1       23.749 -21.359   5.933  0.00  0.00    -0.183 NA
ATOM     19  C   LIG    1       23.334 -20.471   7.039  0.00  0.00    +0.131 C 
ATOM     20  C   LIG    1       25.211 -21.572   5.907  0.00  0.00    +0.131 C 
ENDBRANCH  15  18
ENDBRANCH   6  15
BRANCH   1  21
ATOM     21  C   LIG    1       26.813 -17.280   4.142  0.00  0.00    +0.129 C 
BRANCH  21  23
ATOM     22  C   LIG    1       26.379 -19.604   3.094  0.00  0.00    +0.026 C 
ATOM     23  C   LIG    1       26.663 -18.818   4.386  0.00  0.00    +0.071 C 
BRANCH  23  24
ATOM     24  N   LIG    1       27.817 -19.451   5.089  0.00  0.00    -0.304 NA
ATOM     25  C   LIG    1       27.422 -20.081   6.347  0.00  0.00    +0.105 C 
ATOM     26  C   LIG    1       28.964 -18.566   5.297  0.00  0.00    +0.105 C 
ENDBRANCH  23  24
ENDBRANCH  21  23
ENDBRANCH   1  21
TORSDOF 5
ENDMDL
MODEL 3
REMARK VINA RESULT:       2.9      2.897      6.226
REMARK  Name = *****
REMARK                            x       y       z     vdW  Elec       q    Type
REMARK                         _______ _______ _______ _____ _____    ______ ____
ROOT
ATOM      1  N   LIG    1       25.065 -18.360   4.336  0.00  0.00    -0.297 N 
ATOM      2  C   LIG    1       24.572 -17.050   4.092  0.00  0.00    +0.050 A 
ATOM      3  C   LIG    1       23.193 -16.769   4.062  0.00  0.00    +0.034 A 
ATOM      4  C   LIG    1       22.738 -15.489   3.702  0.00  0.00    +0.019 A 
ATOM      5  C   LIG    1       23.638 -14.472   3.385  0.00  0.00    +0.030 A 
ATOM      6  C   LIG    1       25.004 -14.715   3.516  0.00  0.00    +0.107 A 
ATOM      7  S   LIG    1       21.944 -17.995   4.383  0.00  0.00    -0.086 S 
ATOM      8  C   LIG    1       22.906 -19.350   5.023  0.00  0.00    +0.034 A 
ATOM      9  C   LIG    1       22.186 -20.404   5.611  0.00  0.00    +0.017 A 
ATOM     10  C   LIG    1       22.845 -21.511   6.135  0.00  0.00    +0.001 A 
ATOM     11  C   LIG    1       24.230 -21.569   6.083  0.00  0.00    +0.002 A 
ATOM     12  C   LIG    1       24.951 -20.531   5.487  0.00  0.00    +0.024 A 
ATOM     13  C   LIG    1       25.463 -15.979   3.885  0.00  0.00    +0.053 A 
ATOM     14  C   LIG    1       24.311 -19.408   4.924  0.00  0.00    +0.048 A 
ENDROOT
BRANCH   6  15
ATOM     15  S   LIG    1       26.171 -13.447   3.065  0.00  0.00    +0.060 S 
ATOM     16  O   LIG    1       25.479 -12.185   3.179  0.00  0.00    -0.153 OA
ATOM     17  O   LIG    1       26.801 -13.841   1.813  0.00  0.00    -0.153 OA
BRANCH  15  18
ATOM     18  N   LIG    1       27.332 -13.544   4.307  0.00  0.00    -0.183 NA
ATOM     19  C   LIG    1       26.815 -13.283   5.667  0.00  0.00    +0.131 C 
ATOM     20  C   LIG    1       28.613 -12.853   4.055  0.00  0.00    +0.131 C 
ENDBRANCH  15  18
ENDBRANCH   6  15
BRANCH   1  21
ATOM     21  C   LIG    1       26.204 -18.777   3.466  0.00  0.00    +0.129 C 
BRANCH  21  23
ATOM     22  C   LIG    1       27.952 -16.962   4.048  0.00  0.00    +0.026 C 
ATOM     23  C   LIG    1       27.628 -18.466   4.035  0.00  0.00    +0.071 C 
BRANCH  23  24
ATOM     24  N   LIG    1       27.891 -19.026   5.393  0.00  0.00    -0.304 NA
ATOM     25  C   LIG    1       29.145 -18.537   5.961  0.00  0.00    +0.105 C 
ATOM     26  C   LIG    1       27.825 -20.486   5.474  0.00  0.00    +0.105 C 
ENDBRANCH  23  24
ENDBRANCH  21  23
ENDBRANCH   1  21
TORSDOF 5
ENDMDL
