MODEL 1
REMARK VINA RESULT:      -2.6      0.000      0.000
REMARK  Name = *****
REMARK                            x       y       z     vdW  Elec       q    Type
REMARK                         _______ _______ _______ _____ _____    ______ ____
ROOT
ATOM      1  C   LIG    1       24.677 -20.894   6.833  0.00  0.00    +0.138 C 
ATOM      2  N   LIG    1       24.775 -20.182   5.565  0.00  0.00    -0.270 N 
ATOM      3  C   LIG    1       26.044 -20.114   4.977  0.00  0.00    +0.271 C 
ATOM      4  O   LIG    1       27.057 -20.521   5.557  0.00  0.00    -0.270 OA
ATOM      5  C   LIG    1       26.144 -19.550   3.532  0.00  0.00    +0.320 C 
ATOM      6  N   LIG    1       25.903 -18.111   3.578  0.00  0.00    -0.243 NA
ATOM      7  C   LIG    1       24.719 -17.699   3.885  0.00  0.00    +0.079 C 
ATOM      8  C   LIG    1       23.536 -18.583   4.101  0.00  0.00    +0.023 A 
ATOM      9  C   LIG    1       22.332 -18.193   3.484  0.00  0.00    +0.032 A 
ATOM     10  C   LIG    1       21.161 -18.905   3.722  0.00  0.00    +0.042 A 
ATOM     11 CL   LIG    1       19.694 -18.416   2.972  0.00  0.00    -0.084 Cl
ATOM     12  C   LIG    1       21.173 -20.001   4.572  0.00  0.00    +0.022 A 
ATOM     13  C   LIG    1       22.370 -20.400   5.175  0.00  0.00    +0.025 A 
ATOM     14  C   LIG    1       23.579 -19.717   4.936  0.00  0.00    +0.045 A 
ENDROOT
BRANCH   7  15
ATOM     15  C   LIG    1       24.526 -16.219   3.966  0.00  0.00    +0.019 A 
ATOM     16  C   LIG    1       25.552 -15.295   3.731  0.00  0.00    +0.050 A 
ATOM     17 CL   LIG    1       27.144 -15.756   3.243  0.00  0.00    -0.083 Cl
ATOM     18  C   LIG    1       25.291 -13.925   3.848  0.00  0.00    +0.021 A 
ATOM     19  C   LIG    1       24.013 -13.476   4.185  0.00  0.00    +0.002 A 
ATOM     20  C   LIG    1       22.984 -14.393   4.395  0.00  0.00    +0.001 A 
ATOM     21  C   LIG    1       23.237 -15.760   4.281  0.00  0.00    +0.011 A 
ENDBRANCH   7  15
BRANCH   5  22
ATOM     22  O   LIG    1       25.401 -20.240   2.547  0.00  0.00    -0.364 OA
ATOM     23  H   LIG    1       25.701 -21.160   2.639  0.00  0.00    +0.212 HD
ENDBRANCH   5  22
TORSDOF 2
ENDMDL
MODEL 2
REMARK VINA RESULT:      -1.2      2.536      5.326
REMARK  Name = *****
REMARK                            x       y       z     vdW  Elec       q    Type
REMARK                         _______ _______ _______ _____ _____    ______ ____
ROOT
ATOM      1  C   LIG    1       21.975 -17.667   5.097  0.00  0.00    +0.138 C 
ATOM      2  N   LIG    1       23.127 -18.268   4.438  0.00  0.00    -0.270 N 
ATOM      3  C   LIG    1       23.017 -19.619   4.086  0.00  0.00    +0.271 C 
ATOM      4  O   LIG    1       22.048 -20.307   4.425  0.00  0.00    -0.270 OA
ATOM      5  C   LIG    1       24.138 -20.230   3.199  0.00  0.00    +0.320 C 
ATOM      6  N   LIG    1       25.346 -20.366   4.006  0.00  0.00    -0.243 NA
ATOM      7  C   LIG    1       25.946 -19.291   4.395  0.00  0.00    +0.079 C 
ATOM      8  C   LIG    1       25.558 -17.906   3.998  0.00  0.00    +0.023 A 
ATOM      9  C   LIG    1       26.600 -17.044   3.603  0.00  0.00    +0.032 A 
ATOM     10  C   LIG    1       26.334 -15.709   3.320  0.00  0.00    +0.042 A 
ATOM     11 CL   LIG    1       27.613 -14.663   2.848  0.00  0.00    -0.084 Cl
ATOM     12  C   LIG    1       25.041 -15.217   3.428  0.00  0.00    +0.022 A 
ATOM     13  C   LIG    1       24.002 -16.073   3.805  0.00  0.00    +0.025 A 
ATOM     14  C   LIG    1       24.231 -17.437   4.076  0.00  0.00    +0.045 A 
ENDROOT
BRANCH   7  15
ATOM     15  C   LIG    1       27.152 -19.473   5.258  0.00  0.00    +0.019 A 
ATOM     16  C   LIG    1       27.226 -20.421   6.287  0.00  0.00    +0.050 A 
ATOM     17 CL   LIG    1       25.960 -21.545   6.628  0.00  0.00    -0.083 Cl
ATOM     18  C   LIG    1       28.388 -20.513   7.062  0.00  0.00    +0.021 A 
ATOM     19  C   LIG    1       29.475 -19.674   6.807  0.00  0.00    +0.002 A 
ATOM     20  C   LIG    1       29.412 -18.747   5.769  0.00  0.00    +0.001 A 
ATOM     21  C   LIG    1       28.257 -18.649   4.992  0.00  0.00    +0.011 A 
ENDBRANCH   7  15
BRANCH   5  22
ATOM     22  O   LIG    1       24.335 -19.614   1.942  0.00  0.00    -0.364 OA
ATOM     23  H   LIG    1       25.299 -19.505   1.891  0.00  0.00    +0.212 HD
ENDBRANCH   5  22
TORSDOF 2
ENDMDL
