MODEL 1
REMARK VINA RESULT:      -1.0      0.000      0.000
REMARK  Name = *****
REMARK                            x       y       z     vdW  Elec       q    Type
REMARK                         _______ _______ _______ _____ _____    ______ ____
ROOT
ATOM      1  C   LIG    1       21.568 -18.571   4.616  0.00  0.00    +0.157 C 
ATOM      2  N   LIG    1       22.646 -17.628   4.388  0.00  0.00    -0.264 N 
ATOM      3  C   LIG    1       23.743 -18.071   3.666  0.00  0.00    +0.333 C 
ATOM      4  O   LIG    1       23.766 -19.194   3.155  0.00  0.00    -0.246 OA
ATOM      5  N   LIG    1       24.825 -17.196   3.574  0.00  0.00    -0.277 N 
ATOM      6  C   LIG    1       24.767 -15.872   4.010  0.00  0.00    +0.111 C 
ATOM      7  C   LIG    1       23.662 -15.455   4.648  0.00  0.00    +0.112 C 
ATOM      8  C   LIG    1       22.535 -16.360   4.908  0.00  0.00    +0.258 C 
ATOM      9  O   LIG    1       21.579 -15.944   5.558  0.00  0.00    -0.268 OA
ENDROOT
BRANCH   6  10
ATOM     10  N   LIG    1       25.841 -14.990   3.797  0.00  0.00    -0.315 N 
ATOM     11  C   LIG    1       26.213 -14.000   4.840  0.00  0.00    +0.124 C 
ATOM     12  C   LIG    1       27.709 -13.632   4.700  0.00  0.00    +0.068 C 
ATOM     13  C   LIG    1       27.975 -13.068   3.299  0.00  0.00    +0.021 C 
ATOM     14  C   LIG    1       27.493 -14.041   2.223  0.00  0.00    +0.020 C 
ATOM     15  C   LIG    1       26.036 -14.454   2.431  0.00  0.00    +0.106 C 
BRANCH  12  16
ATOM     16  N   LIG    1       28.139 -12.667   5.719  0.00  0.00    -0.326 NA
ATOM     17  H   LIG    1       27.727 -11.756   5.515  0.00  0.00    +0.118 HD
ATOM     18  H   LIG    1       27.776 -12.938   6.632  0.00  0.00    +0.118 HD
ENDBRANCH  12  16
ENDBRANCH   6  10
BRANCH   5  19
ATOM     19  C   LIG    1       26.099 -17.787   3.091  0.00  0.00    +0.164 C 
BRANCH  19  20
ATOM     20  C   LIG    1       27.001 -18.316   4.213  0.00  0.00    -0.010 A 
ATOM     21  C   LIG    1       26.796 -19.535   4.900  0.00  0.00    +0.057 A 
ATOM     22  C   LIG    1       27.699 -19.945   5.902  0.00  0.00    +0.019 A 
ATOM     23  C   LIG    1       28.817 -19.180   6.224  0.00  0.00    +0.001 A 
ATOM     24  C   LIG    1       29.045 -17.995   5.546  0.00  0.00    +0.000 A 
ATOM     25  C   LIG    1       28.151 -17.577   4.561  0.00  0.00    +0.007 A 
BRANCH  21  26
ATOM     26  C   LIG    1       25.708 -20.448   4.640  0.00  0.00    +0.100 C 
ATOM     27  N   LIG    1       24.883 -21.248   4.519  0.00  0.00    -0.191 NA
ENDBRANCH  21  26
ENDBRANCH  19  20
ENDBRANCH   5  19
TORSDOF 5
ENDMDL
MODEL 2
REMARK VINA RESULT:      -0.6      1.836      4.757
REMARK  Name = *****
REMARK                            x       y       z     vdW  Elec       q    Type
REMARK                         _______ _______ _______ _____ _____    ______ ____
ROOT
ATOM      1  C   LIG    1       26.468 -13.260   3.408  0.00  0.00    +0.157 C 
ATOM      2  N   LIG    1       25.755 -14.507   3.618  0.00  0.00    -0.264 N 
ATOM      3  C   LIG    1       26.504 -15.672   3.667  0.00  0.00    +0.333 C 
ATOM      4  O   LIG    1       27.737 -15.647   3.627  0.00  0.00    -0.246 OA
ATOM      5  N   LIG    1       25.792 -16.869   3.734  0.00  0.00    -0.277 N 
ATOM      6  C   LIG    1       24.412 -16.919   3.932  0.00  0.00    +0.111 C 
ATOM      7  C   LIG    1       23.724 -15.766   3.946  0.00  0.00    +0.112 C 
ATOM      8  C   LIG    1       24.386 -14.472   3.741  0.00  0.00    +0.258 C 
ATOM      9  O   LIG    1       23.699 -13.455   3.693  0.00  0.00    -0.268 OA
ENDROOT
BRANCH   6  10
ATOM     10  N   LIG    1       23.747 -18.146   4.107  0.00  0.00    -0.315 N 
ATOM     11  C   LIG    1       23.680 -19.125   2.992  0.00  0.00    +0.124 C 
ATOM     12  C   LIG    1       23.517 -20.553   3.562  0.00  0.00    +0.068 C 
ATOM     13  C   LIG    1       22.250 -20.627   4.423  0.00  0.00    +0.021 C 
ATOM     14  C   LIG    1       22.268 -19.547   5.505  0.00  0.00    +0.020 C 
ATOM     15  C   LIG    1       22.514 -18.154   4.926  0.00  0.00    +0.106 C 
BRANCH  12  16
ATOM     16  N   LIG    1       23.463 -21.569   2.503  0.00  0.00    -0.326 NA
ATOM     17  H   LIG    1       24.069 -21.283   1.732  0.00  0.00    +0.118 HD
ATOM     18  H   LIG    1       23.845 -22.450   2.844  0.00  0.00    +0.118 HD
ENDBRANCH  12  16
ENDBRANCH   6  10
BRANCH   5  19
ATOM     19  C   LIG    1       26.570 -18.104   3.459  0.00  0.00    +0.164 C 
BRANCH  19  20
ATOM     20  C   LIG    1       27.447 -18.558   4.633  0.00  0.00    -0.010 A 
ATOM     21  C   LIG    1       27.212 -19.718   5.407  0.00  0.00    +0.057 A 
ATOM     22  C   LIG    1       28.094 -20.063   6.453  0.00  0.00    +0.019 A 
ATOM     23  C   LIG    1       29.219 -19.292   6.732  0.00  0.00    +0.001 A 
ATOM     24  C   LIG    1       29.475 -18.166   5.970  0.00  0.00    +0.000 A 
ATOM     25  C   LIG    1       28.603 -17.812   4.941  0.00  0.00    +0.007 A 
BRANCH  21  26
ATOM     26  C   LIG    1       26.114 -20.633   5.201  0.00  0.00    +0.100 C 
ATOM     27  N   LIG    1       25.311 -21.453   5.068  0.00  0.00    -0.191 NA
ENDBRANCH  21  26
ENDBRANCH  19  20
ENDBRANCH   5  19
TORSDOF 5
ENDMDL
MODEL 3
REMARK VINA RESULT:      -0.3      1.725      2.462
REMARK  Name = *****
REMARK                            x       y       z     vdW  Elec       q    Type
REMARK                         _______ _______ _______ _____ _____    ______ ____
ROOT
ATOM      1  C   LIG    1       21.429 -20.263   4.054  0.00  0.00    +0.157 C 
ATOM      2  N   LIG    1       22.343 -19.137   4.010  0.00  0.00    -0.264 N 
ATOM      3  C   LIG    1       23.677 -19.406   3.745  0.00  0.00    +0.333 C 
ATOM      4  O   LIG    1       24.061 -20.544   3.465  0.00  0.00    -0.246 OA
ATOM      5  N   LIG    1       24.561 -18.331   3.841  0.00  0.00    -0.277 N 
ATOM      6  C   LIG    1       24.135 -17.013   4.006  0.00  0.00    +0.111 C 
ATOM      7  C   LIG    1       22.826 -16.781   4.194  0.00  0.00    +0.112 C 
ATOM      8  C   LIG    1       21.850 -17.876   4.247  0.00  0.00    +0.258 C 
ATOM      9  O   LIG    1       20.675 -17.612   4.492  0.00  0.00    -0.268 OA
ENDROOT
BRANCH   6  10
ATOM     10  N   LIG    1       25.050 -15.946   3.984  0.00  0.00    -0.315 N 
ATOM     11  C   LIG    1       24.589 -14.560   4.254  0.00  0.00    +0.124 C 
ATOM     12  C   LIG    1       25.762 -13.718   4.808  0.00  0.00    +0.068 C 
ATOM     13  C   LIG    1       26.920 -13.717   3.803  0.00  0.00    +0.021 C 
ATOM     14  C   LIG    1       27.325 -15.146   3.442  0.00  0.00    +0.020 C 
ATOM     15  C   LIG    1       26.133 -15.983   2.976  0.00  0.00    +0.106 C 
BRANCH  12  16
ATOM     16  N   LIG    1       25.359 -12.339   5.110  0.00  0.00    -0.326 NA
ATOM     17  H   LIG    1       25.948 -11.693   4.581  0.00  0.00    +0.118 HD
ATOM     18  H   LIG    1       24.407 -12.174   4.787  0.00  0.00    +0.118 HD
ENDBRANCH  12  16
ENDBRANCH   6  10
BRANCH   5  19
ATOM     19  C   LIG    1       26.004 -18.679   3.879  0.00  0.00    +0.164 C 
BRANCH  19  20
ATOM     20  C   LIG    1       26.372 -19.677   4.985  0.00  0.00    -0.010 A 
ATOM     21  C   LIG    1       27.605 -19.689   5.676  0.00  0.00    +0.057 A 
ATOM     22  C   LIG    1       27.837 -20.635   6.696  0.00  0.00    +0.019 A 
ATOM     23  C   LIG    1       26.859 -21.557   7.062  0.00  0.00    +0.001 A 
ATOM     24  C   LIG    1       25.638 -21.543   6.411  0.00  0.00    +0.000 A 
ATOM     25  C   LIG    1       25.405 -20.618   5.394  0.00  0.00    +0.007 A 
BRANCH  21  26
ATOM     26  C   LIG    1       28.689 -18.766   5.435  0.00  0.00    +0.100 C 
ATOM     27  N   LIG    1       29.475 -17.939   5.252  0.00  0.00    -0.191 NA
ENDBRANCH  21  26
ENDBRANCH  19  20
ENDBRANCH   5  19
TORSDOF 5
ENDMDL
MODEL 4
REMARK VINA RESULT:       0.8      2.070      5.221
REMARK  Name = *****
REMARK                            x       y       z     vdW  Elec       q    Type
REMARK                         _______ _______ _______ _____ _____    ______ ____
ROOT
ATOM      1  C   LIG    1       26.640 -13.650   3.603  0.00  0.00    +0.157 C 
ATOM      2  N   LIG    1       25.856 -14.856   3.787  0.00  0.00    -0.264 N 
ATOM      3  C   LIG    1       26.524 -16.069   3.736  0.00  0.00    +0.333 C 
ATOM      4  O   LIG    1       27.752 -16.124   3.632  0.00  0.00    -0.246 OA
ATOM      5  N   LIG    1       25.735 -17.219   3.779  0.00  0.00    -0.277 N 
ATOM      6  C   LIG    1       24.366 -17.188   4.047  0.00  0.00    +0.111 C 
ATOM      7  C   LIG    1       23.761 -15.995   4.156  0.00  0.00    +0.112 C 
ATOM      8  C   LIG    1       24.500 -14.738   3.984  0.00  0.00    +0.258 C 
ATOM      9  O   LIG    1       23.882 -13.677   4.024  0.00  0.00    -0.268 OA
ENDROOT
BRANCH   6  10
ATOM     10  N   LIG    1       23.628 -18.376   4.193  0.00  0.00    -0.315 N 
ATOM     11  C   LIG    1       23.325 -19.218   3.009  0.00  0.00    +0.124 C 
ATOM     12  C   LIG    1       23.119 -20.686   3.451  0.00  0.00    +0.068 C 
ATOM     13  C   LIG    1       21.980 -20.763   4.475  0.00  0.00    +0.021 C 
ATOM     14  C   LIG    1       22.240 -19.815   5.645  0.00  0.00    +0.020 C 
ATOM     15  C   LIG    1       22.523 -18.387   5.178  0.00  0.00    +0.106 C 
BRANCH  12  16
ATOM     16  N   LIG    1       22.832 -21.571   2.315  0.00  0.00    -0.326 NA
ATOM     17  H   LIG    1       23.051 -22.534   2.576  0.00  0.00    +0.118 HD
ATOM     18  H   LIG    1       21.835 -21.560   2.105  0.00  0.00    +0.118 HD
ENDBRANCH  12  16
ENDBRANCH   6  10
BRANCH   5  19
ATOM     19  C   LIG    1       26.412 -18.485   3.400  0.00  0.00    +0.164 C 
BRANCH  19  20
ATOM     20  C   LIG    1       26.604 -19.460   4.570  0.00  0.00    -0.010 A 
ATOM     21  C   LIG    1       27.666 -19.395   5.501  0.00  0.00    +0.057 A 
ATOM     22  C   LIG    1       27.740 -20.326   6.558  0.00  0.00    +0.019 A 
ATOM     23  C   LIG    1       26.767 -21.308   6.724  0.00  0.00    +0.001 A 
ATOM     24  C   LIG    1       25.709 -21.371   5.835  0.00  0.00    +0.000 A 
ATOM     25  C   LIG    1       25.634 -20.461   4.781  0.00  0.00    +0.007 A 
BRANCH  21  26
ATOM     26  C   LIG    1       28.717 -18.405   5.478  0.00  0.00    +0.100 C 
ATOM     27  N   LIG    1       29.475 -17.534   5.496  0.00  0.00    -0.191 NA
ENDBRANCH  21  26
ENDBRANCH  19  20
ENDBRANCH   5  19
TORSDOF 5
ENDMDL
MODEL 5
REMARK VINA RESULT:       1.0      1.918      5.043
REMARK  Name = *****
REMARK                            x       y       z     vdW  Elec       q    Type
REMARK                         _______ _______ _______ _____ _____    ______ ____
ROOT
ATOM      1  C   LIG    1       26.548 -13.702   3.578  0.00  0.00    +0.157 C 
ATOM      2  N   LIG    1       25.567 -14.754   3.772  0.00  0.00    -0.264 N 
ATOM      3  C   LIG    1       25.979 -16.061   3.564  0.00  0.00    +0.333 C 
ATOM      4  O   LIG    1       27.156 -16.332   3.315  0.00  0.00    -0.246 OA
ATOM      5  N   LIG    1       24.991 -17.043   3.623  0.00  0.00    -0.277 N 
ATOM      6  C   LIG    1       23.688 -16.783   4.049  0.00  0.00    +0.111 C 
ATOM      7  C   LIG    1       23.340 -15.512   4.306  0.00  0.00    +0.112 C 
ATOM      8  C   LIG    1       24.287 -14.404   4.131  0.00  0.00    +0.258 C 
ATOM      9  O   LIG    1       23.894 -13.254   4.313  0.00  0.00    -0.268 OA
ENDROOT
BRANCH   6  10
ATOM     10  N   LIG    1       22.753 -17.821   4.202  0.00  0.00    -0.315 N 
ATOM     11  C   LIG    1       21.355 -17.642   3.734  0.00  0.00    +0.124 C 
ATOM     12  C   LIG    1       20.735 -19.020   3.403  0.00  0.00    +0.068 C 
ATOM     13  C   LIG    1       20.779 -19.919   4.644  0.00  0.00    +0.021 C 
ATOM     14  C   LIG    1       22.203 -20.018   5.191  0.00  0.00    +0.020 C 
ATOM     15  C   LIG    1       22.825 -18.642   5.431  0.00  0.00    +0.106 C 
BRANCH  12  16
ATOM     16  N   LIG    1       19.354 -18.903   2.917  0.00  0.00    -0.326 NA
ATOM     17  H   LIG    1       18.794 -18.406   3.612  0.00  0.00    +0.118 HD
ATOM     18  H   LIG    1       19.327 -18.328   2.076  0.00  0.00    +0.118 HD
ENDBRANCH  12  16
ENDBRANCH   6  10
BRANCH   5  19
ATOM     19  C   LIG    1       25.367 -18.376   3.086  0.00  0.00    +0.164 C 
BRANCH  19  20
ATOM     20  C   LIG    1       25.731 -19.400   4.168  0.00  0.00    -0.010 A 
ATOM     21  C   LIG    1       25.170 -20.694   4.269  0.00  0.00    +0.057 A 
ATOM     22  C   LIG    1       25.590 -21.572   5.290  0.00  0.00    +0.019 A 
ATOM     23  C   LIG    1       26.576 -21.201   6.200  0.00  0.00    +0.001 A 
ATOM     24  C   LIG    1       27.152 -19.947   6.101  0.00  0.00    +0.000 A 
ATOM     25  C   LIG    1       26.734 -19.068   5.102  0.00  0.00    +0.007 A 
BRANCH  21  26
ATOM     26  C   LIG    1       24.175 -21.227   3.369  0.00  0.00    +0.100 C 
ATOM     27  N   LIG    1       23.416 -21.572   2.569  0.00  0.00    -0.191 NA
ENDBRANCH  21  26
ENDBRANCH  19  20
ENDBRANCH   5  19
TORSDOF 5
ENDMDL
MODEL 6
REMARK VINA RESULT:       1.5      2.417      6.262
REMARK  Name = *****
REMARK                            x       y       z     vdW  Elec       q    Type
REMARK                         _______ _______ _______ _____ _____    ______ ____
ROOT
ATOM      1  C   LIG    1       29.463 -18.338   5.098  0.00  0.00    +0.157 C 
ATOM      2  N   LIG    1       28.077 -18.746   4.966  0.00  0.00    -0.264 N 
ATOM      3  C   LIG    1       27.286 -18.047   4.068  0.00  0.00    +0.333 C 
ATOM      4  O   LIG    1       27.760 -17.174   3.338  0.00  0.00    -0.246 OA
ATOM      5  N   LIG    1       25.928 -18.365   4.054  0.00  0.00    -0.277 N 
ATOM      6  C   LIG    1       25.396 -19.446   4.757  0.00  0.00    +0.111 C 
ATOM      7  C   LIG    1       26.206 -20.144   5.569  0.00  0.00    +0.112 C 
ATOM      8  C   LIG    1       27.618 -19.783   5.743  0.00  0.00    +0.258 C 
ATOM      9  O   LIG    1       28.295 -20.413   6.553  0.00  0.00    -0.268 OA
ENDROOT
BRANCH   6  10
ATOM     10  N   LIG    1       24.041 -19.800   4.628  0.00  0.00    -0.315 N 
ATOM     11  C   LIG    1       23.001 -18.747   4.514  0.00  0.00    +0.124 C 
ATOM     12  C   LIG    1       21.772 -19.306   3.760  0.00  0.00    +0.068 C 
ATOM     13  C   LIG    1       21.222 -20.530   4.502  0.00  0.00    +0.021 C 
ATOM     14  C   LIG    1       22.320 -21.572   4.716  0.00  0.00    +0.020 C 
ATOM     15  C   LIG    1       23.558 -20.976   5.387  0.00  0.00    +0.106 C 
BRANCH  12  16
ATOM     16  N   LIG    1       20.715 -18.300   3.601  0.00  0.00    -0.326 NA
ATOM     17  H   LIG    1       20.978 -17.453   4.107  0.00  0.00    +0.118 HD
ATOM     18  H   LIG    1       20.637 -18.026   2.623  0.00  0.00    +0.118 HD
ENDBRANCH  12  16
ENDBRANCH   6  10
BRANCH   5  19
ATOM     19  C   LIG    1       25.044 -17.407   3.342  0.00  0.00    +0.164 C 
BRANCH  19  20
ATOM     20  C   LIG    1       25.324 -15.937   3.680  0.00  0.00    -0.010 A 
ATOM     21  C   LIG    1       24.417 -15.080   4.345  0.00  0.00    +0.057 A 
ATOM     22  C   LIG    1       24.780 -13.748   4.632  0.00  0.00    +0.019 A 
ATOM     23  C   LIG    1       26.036 -13.252   4.291  0.00  0.00    +0.001 A 
ATOM     24  C   LIG    1       26.943 -14.084   3.659  0.00  0.00    +0.000 A 
ATOM     25  C   LIG    1       26.589 -15.399   3.363  0.00  0.00    +0.007 A 
BRANCH  21  26
ATOM     26  C   LIG    1       23.102 -15.471   4.797  0.00  0.00    +0.100 C 
ATOM     27  N   LIG    1       22.032 -15.668   5.185  0.00  0.00    -0.191 NA
ENDBRANCH  21  26
ENDBRANCH  19  20
ENDBRANCH   5  19
TORSDOF 5
ENDMDL
MODEL 7
REMARK VINA RESULT:       1.7      2.036      4.700
REMARK  Name = *****
REMARK                            x       y       z     vdW  Elec       q    Type
REMARK                         _______ _______ _______ _____ _____    ______ ____
ROOT
ATOM      1  C   LIG    1       27.500 -21.362   6.217  0.00  0.00    +0.157 C 
ATOM      2  N   LIG    1       27.398 -20.037   5.635  0.00  0.00    -0.264 N 
ATOM      3  C   LIG    1       26.248 -19.738   4.920  0.00  0.00    +0.333 C 
ATOM      4  O   LIG    1       25.305 -20.531   4.858  0.00  0.00    -0.246 OA
ATOM      5  N   LIG    1       26.227 -18.512   4.256  0.00  0.00    -0.277 N 
ATOM      6  C   LIG    1       27.211 -17.539   4.432  0.00  0.00    +0.111 C 
ATOM      7  C   LIG    1       28.281 -17.838   5.185  0.00  0.00    +0.112 C 
ATOM      8  C   LIG    1       28.442 -19.159   5.804  0.00  0.00    +0.258 C 
ATOM      9  O   LIG    1       29.475 -19.402   6.424  0.00  0.00    -0.268 OA
ENDROOT
BRANCH   6  10
ATOM     10  N   LIG    1       27.095 -16.273   3.831  0.00  0.00    -0.315 N 
ATOM     11  C   LIG    1       27.849 -15.115   4.376  0.00  0.00    +0.124 C 
ATOM     12  C   LIG    1       28.091 -14.076   3.257  0.00  0.00    +0.068 C 
ATOM     13  C   LIG    1       26.748 -13.620   2.674  0.00  0.00    +0.021 C 
ATOM     14  C   LIG    1       25.924 -14.821   2.210  0.00  0.00    +0.020 C 
ATOM     15  C   LIG    1       25.769 -15.873   3.308  0.00  0.00    +0.106 C 
BRANCH  12  16
ATOM     16  N   LIG    1       28.850 -12.914   3.736  0.00  0.00    -0.326 NA
ATOM     17  H   LIG    1       29.030 -13.018   4.735  0.00  0.00    +0.118 HD
ATOM     18  H   LIG    1       29.767 -12.887   3.290  0.00  0.00    +0.118 HD
ENDBRANCH  12  16
ENDBRANCH   6  10
BRANCH   5  19
ATOM     19  C   LIG    1       25.153 -18.340   3.244  0.00  0.00    +0.164 C 
BRANCH  19  20
ATOM     20  C   LIG    1       23.801 -18.925   3.671  0.00  0.00    -0.010 A 
ATOM     21  C   LIG    1       22.731 -18.168   4.201  0.00  0.00    +0.057 A 
ATOM     22  C   LIG    1       21.516 -18.799   4.541  0.00  0.00    +0.019 A 
ATOM     23  C   LIG    1       21.332 -20.165   4.343  0.00  0.00    +0.001 A 
ATOM     24  C   LIG    1       22.361 -20.916   3.803  0.00  0.00    +0.000 A 
ATOM     25  C   LIG    1       23.569 -20.302   3.475  0.00  0.00    +0.007 A 
BRANCH  21  26
ATOM     26  C   LIG    1       22.765 -16.741   4.417  0.00  0.00    +0.100 C 
ATOM     27  N   LIG    1       22.728 -15.619   4.689  0.00  0.00    -0.191 NA
ENDBRANCH  21  26
ENDBRANCH  19  20
ENDBRANCH   5  19
TORSDOF 5
ENDMDL
