MODEL 1
REMARK VINA RESULT:      -6.1      0.000      0.000
REMARK  Name = *****
REMARK                            x       y       z     vdW  Elec       q    Type
REMARK                         _______ _______ _______ _____ _____    ______ ____
ROOT
ATOM      1  C   LIG    1       24.563 -32.426   6.955  0.00  0.00    +0.132 A 
ATOM      2  C   LIG    1       24.894 -31.758   8.154  0.00  0.00    +0.075 A 
ATOM      3  C   LIG    1       23.872 -31.117   9.041  0.00  0.00    +0.202 C 
ATOM      4  C   LIG    1       24.299 -30.349  10.244  0.00  0.00    +0.078 A 
ATOM      5  C   LIG    1       25.654 -30.189  10.507  0.00  0.00    +0.078 A 
ATOM      6  C   LIG    1       26.657 -30.906   9.701  0.00  0.00    +0.198 C 
ATOM      7  O   LIG    1       27.841 -30.825  10.001  0.00  0.00    -0.286 OA
ATOM      8  C   LIG    1       26.069 -29.319  11.524  0.00  0.00    +0.132 A 
ATOM      9  C   LIG    1       25.139 -28.630  12.319  0.00  0.00    +0.007 A 
ATOM     10  C   LIG    1       25.663 -27.529  13.227  0.00  0.00    +0.082 C 
ATOM     11  C   LIG    1       24.616 -26.743  14.020  0.00  0.00    +0.130 C 
ATOM     12  C   LIG    1       23.243 -26.797  13.316  0.00  0.00    +0.079 C 
ATOM     13  C   LIG    1       22.752 -28.232  13.103  0.00  0.00    +0.158 C 
ATOM     14  C   LIG    1       23.760 -28.900  12.168  0.00  0.00    +0.030 A 
ATOM     15  C   LIG    1       23.356 -29.731  11.099  0.00  0.00    +0.135 A 
ATOM     16  O   LIG    1       22.672 -31.188   8.816  0.00  0.00    -0.286 OA
ATOM     17  C   LIG    1       26.237 -31.694   8.533  0.00  0.00    +0.037 A 
ATOM     18  C   LIG    1       27.234 -32.347   7.791  0.00  0.00    +0.012 A 
ATOM     19  C   LIG    1       26.896 -33.055   6.647  0.00  0.00    +0.004 A 
ATOM     20  C   LIG    1       25.569 -33.087   6.228  0.00  0.00    +0.046 A 
ENDROOT
BRANCH  11  21
ATOM     21  C   LIG    1       25.029 -25.265  14.170  0.00  0.00    +0.162 C 
ATOM     22  O   LIG    1       25.547 -24.627  13.250  0.00  0.00    -0.295 OA
ATOM     23  C   LIG    1       24.772 -24.598  15.498  0.00  0.00    +0.089 C 
ENDBRANCH  11  21
BRANCH   1  25
ATOM     24  C   LIG    1       22.731 -33.702   6.141  0.00  0.00    +0.277 C 
ATOM     25  O   LIG    1       23.257 -32.437   6.541  0.00  0.00    -0.494 OA
ENDBRANCH   1  25
BRANCH   8  26
ATOM     26  O   LIG    1       27.397 -29.057  11.761  0.00  0.00    -0.506 OA
ATOM     27  H   LIG    1       27.587 -28.131  11.491  0.00  0.00    +0.292 HD
ENDBRANCH   8  26
BRANCH  11  28
ATOM     28  O   LIG    1       24.615 -27.269  15.351  0.00  0.00    -0.381 OA
ATOM     29  H   LIG    1       25.510 -27.116  15.715  0.00  0.00    +0.211 HD
ENDBRANCH  11  28
BRANCH  15  30
ATOM     30  O   LIG    1       22.005 -29.871  10.889  0.00  0.00    -0.506 OA
ATOM     31  H   LIG    1       21.566 -29.019  11.121  0.00  0.00    +0.292 HD
ENDBRANCH  15  30
BRANCH  13  32
ATOM     32  O   LIG    1       22.645 -29.000  14.318  0.00  0.00    -0.343 OA
BRANCH  32  33
ATOM     33  C   LIG    1       21.377 -29.646  14.520  0.00  0.00    +0.253 C 
ATOM     34  O   LIG    1       21.299 -30.796  13.676  0.00  0.00    -0.346 OA
ATOM     35  C   LIG    1       20.113 -31.574  13.741  0.00  0.00    +0.148 C 
ATOM     36  C   LIG    1       20.058 -32.386  15.031  0.00  0.00    +0.040 C 
ATOM     37  C   LIG    1       18.900 -30.708  13.382  0.00  0.00    +0.160 C 
ATOM     38  C   LIG    1       18.875 -29.352  14.127  0.00  0.00    +0.087 C 
ATOM     39  C   LIG    1       20.261 -28.688  14.100  0.00  0.00    +0.082 C 
BRANCH  38  40
ATOM     40  N   LIG    1       18.355 -29.443  15.500  0.00  0.00    -0.325 NA
ATOM     41  H   LIG    1       18.952 -28.906  16.128  0.00  0.00    +0.119 HD
ATOM     42  H   LIG    1       17.410 -29.083  15.586  0.00  0.00    +0.119 HD
ENDBRANCH  38  40
BRANCH  37  43
ATOM     43  O   LIG    1       17.674 -31.419  13.535  0.00  0.00    -0.388 OA
ATOM     44  H   LIG    1       17.661 -32.126  12.871  0.00  0.00    +0.210 HD
ENDBRANCH  37  43
ENDBRANCH  32  33
ENDBRANCH  13  32
TORSDOF 9
ENDMDL
MODEL 2
REMARK VINA RESULT:      -6.0      2.971      8.408
REMARK  Name = *****
REMARK                            x       y       z     vdW  Elec       q    Type
REMARK                         _______ _______ _______ _____ _____    ______ ____
ROOT
ATOM      1  C   LIG    1       18.159 -28.698  14.474  0.00  0.00    +0.132 A 
ATOM      2  C   LIG    1       18.901 -29.556  13.634  0.00  0.00    +0.075 A 
ATOM      3  C   LIG    1       20.283 -29.235  13.155  0.00  0.00    +0.202 C 
ATOM      4  C   LIG    1       20.973 -30.142  12.196  0.00  0.00    +0.078 A 
ATOM      5  C   LIG    1       20.305 -31.259  11.710  0.00  0.00    +0.078 A 
ATOM      6  C   LIG    1       18.991 -31.636  12.258  0.00  0.00    +0.198 C 
ATOM      7  O   LIG    1       18.455 -32.671  11.884  0.00  0.00    -0.286 OA
ATOM      8  C   LIG    1       20.869 -32.014  10.672  0.00  0.00    +0.132 A 
ATOM      9  C   LIG    1       22.126 -31.689  10.135  0.00  0.00    +0.007 A 
ATOM     10  C   LIG    1       22.555 -32.398   8.861  0.00  0.00    +0.082 C 
ATOM     11  C   LIG    1       23.892 -31.965   8.256  0.00  0.00    +0.130 C 
ATOM     12  C   LIG    1       24.246 -30.526   8.687  0.00  0.00    +0.079 C 
ATOM     13  C   LIG    1       24.298 -30.368  10.210  0.00  0.00    +0.158 C 
ATOM     14  C   LIG    1       22.887 -30.653  10.723  0.00  0.00    +0.030 A 
ATOM     15  C   LIG    1       22.278 -29.865  11.725  0.00  0.00    +0.135 A 
ATOM     16  O   LIG    1       20.886 -28.235  13.516  0.00  0.00    -0.286 OA
ATOM     17  C   LIG    1       18.321 -30.762  13.232  0.00  0.00    +0.037 A 
ATOM     18  C   LIG    1       17.064 -31.160  13.713  0.00  0.00    +0.012 A 
ATOM     19  C   LIG    1       16.365 -30.342  14.589  0.00  0.00    +0.004 A 
ATOM     20  C   LIG    1       16.906 -29.114  14.960  0.00  0.00    +0.046 A 
ENDROOT
BRANCH  11  21
ATOM     21  C   LIG    1       23.847 -32.015   6.716  0.00  0.00    +0.162 C 
ATOM     22  O   LIG    1       23.304 -31.136   6.041  0.00  0.00    -0.295 OA
ATOM     23  C   LIG    1       24.505 -33.189   6.034  0.00  0.00    +0.089 C 
ENDBRANCH  11  21
BRANCH   1  25
ATOM     24  C   LIG    1       18.053 -26.333  14.274  0.00  0.00    +0.277 C 
ATOM     25  O   LIG    1       18.692 -27.485  14.821  0.00  0.00    -0.494 OA
ENDBRANCH   1  25
BRANCH   8  26
ATOM     26  O   LIG    1       20.206 -33.070  10.096  0.00  0.00    -0.506 OA
ATOM     27  H   LIG    1       20.869 -33.675   9.694  0.00  0.00    +0.292 HD
ENDBRANCH   8  26
BRANCH  11  28
ATOM     28  O   LIG    1       24.862 -32.948   8.635  0.00  0.00    -0.381 OA
ATOM     29  H   LIG    1       24.760 -33.697   8.015  0.00  0.00    +0.211 HD
ENDBRANCH  11  28
BRANCH  15  30
ATOM     30  O   LIG    1       22.986 -28.781  12.186  0.00  0.00    -0.506 OA
ATOM     31  H   LIG    1       22.415 -27.980  12.103  0.00  0.00    +0.292 HD
ENDBRANCH  15  30
BRANCH  13  32
ATOM     32  O   LIG    1       25.231 -31.255  10.859  0.00  0.00    -0.343 OA
BRANCH  32  33
ATOM     33  C   LIG    1       26.249 -30.604  11.637  0.00  0.00    +0.253 C 
ATOM     34  O   LIG    1       25.658 -30.060  12.819  0.00  0.00    -0.346 OA
ATOM     35  C   LIG    1       26.515 -29.381  13.723  0.00  0.00    +0.148 C 
ATOM     36  C   LIG    1       27.397 -30.362  14.489  0.00  0.00    +0.040 C 
ATOM     37  C   LIG    1       27.194 -28.203  13.014  0.00  0.00    +0.160 C 
ATOM     38  C   LIG    1       27.803 -28.583  11.643  0.00  0.00    +0.087 C 
ATOM     39  C   LIG    1       26.821 -29.438  10.828  0.00  0.00    +0.082 C 
BRANCH  38  40
ATOM     40  N   LIG    1       29.119 -29.231  11.743  0.00  0.00    -0.325 NA
ATOM     41  H   LIG    1       29.348 -29.678  10.856  0.00  0.00    +0.119 HD
ATOM     42  H   LIG    1       29.863 -28.578  11.963  0.00  0.00    +0.119 HD
ENDBRANCH  38  40
BRANCH  37  43
ATOM     43  O   LIG    1       28.144 -27.552  13.854  0.00  0.00    -0.388 OA
ATOM     44  H   LIG    1       28.697 -26.989  13.290  0.00  0.00    +0.210 HD
ENDBRANCH  37  43
ENDBRANCH  32  33
ENDBRANCH  13  32
TORSDOF 9
ENDMDL
MODEL 3
REMARK VINA RESULT:      -5.9      1.451      1.858
REMARK  Name = *****
REMARK                            x       y       z     vdW  Elec       q    Type
REMARK                         _______ _______ _______ _____ _____    ______ ____
ROOT
ATOM      1  C   LIG    1       25.169 -32.651   6.343  0.00  0.00    +0.132 A 
ATOM      2  C   LIG    1       25.145 -32.129   7.655  0.00  0.00    +0.075 A 
ATOM      3  C   LIG    1       23.882 -31.732   8.353  0.00  0.00    +0.202 C 
ATOM      4  C   LIG    1       23.938 -31.102   9.702  0.00  0.00    +0.078 A 
ATOM      5  C   LIG    1       25.173 -30.839  10.283  0.00  0.00    +0.078 A 
ATOM      6  C   LIG    1       26.410 -31.324   9.649  0.00  0.00    +0.198 C 
ATOM      7  O   LIG    1       27.483 -31.162  10.217  0.00  0.00    -0.286 OA
ATOM      8  C   LIG    1       25.243 -30.083  11.461  0.00  0.00    +0.132 A 
ATOM      9  C   LIG    1       24.081 -29.616  12.098  0.00  0.00    +0.007 A 
ATOM     10  C   LIG    1       24.249 -28.606  13.222  0.00  0.00    +0.082 C 
ATOM     11  C   LIG    1       22.962 -28.056  13.841  0.00  0.00    +0.130 C 
ATOM     12  C   LIG    1       21.789 -28.154  12.842  0.00  0.00    +0.079 C 
ATOM     13  C   LIG    1       21.551 -29.588  12.359  0.00  0.00    +0.158 C 
ATOM     14  C   LIG    1       22.815 -30.006  11.607  0.00  0.00    +0.030 A 
ATOM     15  C   LIG    1       22.762 -30.715  10.386  0.00  0.00    +0.135 A 
ATOM     16  O   LIG    1       22.778 -31.897   7.855  0.00  0.00    -0.286 OA
ATOM     17  C   LIG    1       26.357 -31.978   8.333  0.00  0.00    +0.037 A 
ATOM     18  C   LIG    1       27.566 -32.410   7.767  0.00  0.00    +0.012 A 
ATOM     19  C   LIG    1       27.577 -32.980   6.503  0.00  0.00    +0.004 A 
ATOM     20  C   LIG    1       26.385 -33.092   5.792  0.00  0.00    +0.046 A 
ENDROOT
BRANCH  11  21
ATOM     21  C   LIG    1       23.131 -26.579  14.251  0.00  0.00    +0.162 C 
ATOM     22  O   LIG    1       22.361 -26.018  15.035  0.00  0.00    -0.295 OA
ATOM     23  C   LIG    1       24.294 -25.819  13.664  0.00  0.00    +0.089 C 
ENDBRANCH  11  21
BRANCH   1  25
ATOM     24  C   LIG    1       23.887 -33.825   4.723  0.00  0.00    +0.277 C 
ATOM     25  O   LIG    1       23.993 -32.741   5.645  0.00  0.00    -0.494 OA
ENDBRANCH   1  25
BRANCH   8  26
ATOM     26  O   LIG    1       26.443 -29.719  12.022  0.00  0.00    -0.506 OA
ATOM     27  H   LIG    1       26.317 -28.876  12.513  0.00  0.00    +0.292 HD
ENDBRANCH   8  26
BRANCH  11  28
ATOM     28  O   LIG    1       22.751 -28.763  15.068  0.00  0.00    -0.381 OA
ATOM     29  H   LIG    1       22.764 -29.716  14.850  0.00  0.00    +0.211 HD
ENDBRANCH  11  28
BRANCH  15  30
ATOM     30  O   LIG    1       21.517 -30.966   9.860  0.00  0.00    -0.506 OA
ATOM     31  H   LIG    1       21.191 -31.821  10.229  0.00  0.00    +0.292 HD
ENDBRANCH  15  30
BRANCH  13  32
ATOM     32  O   LIG    1       21.294 -30.528  13.421  0.00  0.00    -0.343 OA
BRANCH  32  33
ATOM     33  C   LIG    1       19.999 -31.150  13.383  0.00  0.00    +0.253 C 
ATOM     34  O   LIG    1       19.561 -31.234  12.025  0.00  0.00    -0.346 OA
ATOM     35  C   LIG    1       18.297 -31.832  11.784  0.00  0.00    +0.148 C 
ATOM     36  C   LIG    1       18.358 -33.344  11.968  0.00  0.00    +0.040 C 
ATOM     37  C   LIG    1       17.203 -31.058  12.530  0.00  0.00    +0.160 C 
ATOM     38  C   LIG    1       17.557 -30.771  14.009  0.00  0.00    +0.087 C 
ATOM     39  C   LIG    1       19.003 -30.267  14.137  0.00  0.00    +0.082 C 
BRANCH  38  40
ATOM     40  N   LIG    1       17.309 -31.911  14.906  0.00  0.00    -0.325 NA
ATOM     41  H   LIG    1       17.459 -32.783  14.400  0.00  0.00    +0.119 HD
ATOM     42  H   LIG    1       17.919 -31.912  15.716  0.00  0.00    +0.119 HD
ENDBRANCH  38  40
BRANCH  37  43
ATOM     43  O   LIG    1       15.928 -31.682  12.402  0.00  0.00    -0.388 OA
ATOM     44  H   LIG    1       15.263 -30.979  12.336  0.00  0.00    +0.210 HD
ENDBRANCH  37  43
ENDBRANCH  32  33
ENDBRANCH  13  32
TORSDOF 9
ENDMDL
MODEL 4
REMARK VINA RESULT:      -4.8      7.967     10.611
REMARK  Name = *****
REMARK                            x       y       z     vdW  Elec       q    Type
REMARK                         _______ _______ _______ _____ _____    ______ ____
ROOT
ATOM      1  C   LIG    1       25.702 -29.026   8.036  0.00  0.00    +0.132 A 
ATOM      2  C   LIG    1       25.662 -27.858   7.244  0.00  0.00    +0.075 A 
ATOM      3  C   LIG    1       25.951 -26.493   7.787  0.00  0.00    +0.202 C 
ATOM      4  C   LIG    1       25.800 -25.294   6.917  0.00  0.00    +0.078 A 
ATOM      5  C   LIG    1       25.340 -25.448   5.614  0.00  0.00    +0.078 A 
ATOM      6  C   LIG    1       25.160 -26.793   5.044  0.00  0.00    +0.198 C 
ATOM      7  O   LIG    1       24.840 -26.913   3.868  0.00  0.00    -0.286 OA
ATOM      8  C   LIG    1       25.019 -24.317   4.850  0.00  0.00    +0.132 A 
ATOM      9  C   LIG    1       25.191 -23.020   5.359  0.00  0.00    +0.007 A 
ATOM     10  C   LIG    1       24.595 -21.866   4.569  0.00  0.00    +0.082 C 
ATOM     11  C   LIG    1       24.730 -20.473   5.190  0.00  0.00    +0.130 C 
ATOM     12  C   LIG    1       24.889 -20.571   6.722  0.00  0.00    +0.079 C 
ATOM     13  C   LIG    1       26.089 -21.431   7.130  0.00  0.00    +0.158 C 
ATOM     14  C   LIG    1       25.803 -22.843   6.620  0.00  0.00    +0.030 A 
ATOM     15  C   LIG    1       26.064 -23.991   7.402  0.00  0.00    +0.135 A 
ATOM     16  O   LIG    1       26.306 -26.309   8.942  0.00  0.00    -0.286 OA
ATOM     17  C   LIG    1       25.341 -27.983   5.890  0.00  0.00    +0.037 A 
ATOM     18  C   LIG    1       25.144 -29.240   5.301  0.00  0.00    +0.012 A 
ATOM     19  C   LIG    1       25.246 -30.391   6.070  0.00  0.00    +0.004 A 
ATOM     20  C   LIG    1       25.516 -30.283   7.432  0.00  0.00    +0.046 A 
ENDROOT
BRANCH  11  21
ATOM     21  C   LIG    1       23.491 -19.608   4.883  0.00  0.00    +0.162 C 
ATOM     22  O   LIG    1       22.510 -19.569   5.630  0.00  0.00    -0.295 OA
ATOM     23  C   LIG    1       23.510 -18.782   3.620  0.00  0.00    +0.089 C 
ENDBRANCH  11  21
BRANCH   1  25
ATOM     24  C   LIG    1       27.005 -29.718   9.899  0.00  0.00    +0.277 C 
ATOM     25  O   LIG    1       25.952 -28.909   9.378  0.00  0.00    -0.494 OA
ENDBRANCH   1  25
BRANCH   8  26
ATOM     26  O   LIG    1       24.475 -24.420   3.592  0.00  0.00    -0.506 OA
ATOM     27  H   LIG    1       23.623 -24.907   3.657  0.00  0.00    +0.292 HD
ENDBRANCH   8  26
BRANCH  11  28
ATOM     28  O   LIG    1       25.817 -19.821   4.525  0.00  0.00    -0.381 OA
ATOM     29  H   LIG    1       25.774 -20.088   3.586  0.00  0.00    +0.211 HD
ENDBRANCH  11  28
BRANCH  15  30
ATOM     30  O   LIG    1       26.533 -23.788   8.677  0.00  0.00    -0.506 OA
ATOM     31  H   LIG    1       27.201 -23.063   8.650  0.00  0.00    +0.292 HD
ENDBRANCH  15  30
BRANCH  13  32
ATOM     32  O   LIG    1       27.346 -20.974   6.593  0.00  0.00    -0.343 OA
BRANCH  32  33
ATOM     33  C   LIG    1       28.360 -20.692   7.572  0.00  0.00    +0.253 C 
ATOM     34  O   LIG    1       28.984 -19.447   7.254  0.00  0.00    -0.346 OA
ATOM     35  C   LIG    1       30.014 -18.993   8.118  0.00  0.00    +0.148 C 
ATOM     36  C   LIG    1       29.442 -18.489   9.440  0.00  0.00    +0.040 C 
ATOM     37  C   LIG    1       31.145 -20.028   8.171  0.00  0.00    +0.160 C 
ATOM     38  C   LIG    1       30.642 -21.473   8.399  0.00  0.00    +0.087 C 
ATOM     39  C   LIG    1       29.434 -21.780   7.500  0.00  0.00    +0.082 C 
BRANCH  38  40
ATOM     40  N   LIG    1       30.349 -21.780   9.807  0.00  0.00    -0.325 NA
ATOM     41  H   LIG    1       31.214 -22.017  10.293  0.00  0.00    +0.119 HD
ATOM     42  H   LIG    1       29.921 -21.001  10.298  0.00  0.00    +0.119 HD
ENDBRANCH  38  40
BRANCH  37  43
ATOM     43  O   LIG    1       32.156 -19.664   9.108  0.00  0.00    -0.388 OA
ATOM     44  H   LIG    1       32.144 -20.322   9.821  0.00  0.00    +0.210 HD
ENDBRANCH  37  43
ENDBRANCH  32  33
ENDBRANCH  13  32
TORSDOF 9
ENDMDL
MODEL 5
REMARK VINA RESULT:      -4.3      2.761      6.876
REMARK  Name = *****
REMARK                            x       y       z     vdW  Elec       q    Type
REMARK                         _______ _______ _______ _____ _____    ______ ____
ROOT
ATOM      1  C   LIG    1       26.923 -29.423  14.688  0.00  0.00    +0.132 A 
ATOM      2  C   LIG    1       26.466 -29.477  13.353  0.00  0.00    +0.075 A 
ATOM      3  C   LIG    1       25.752 -30.662  12.782  0.00  0.00    +0.202 C 
ATOM      4  C   LIG    1       25.380 -30.688  11.339  0.00  0.00    +0.078 A 
ATOM      5  C   LIG    1       25.746 -29.628  10.520  0.00  0.00    +0.078 A 
ATOM      6  C   LIG    1       26.351 -28.416  11.098  0.00  0.00    +0.198 C 
ATOM      7  O   LIG    1       26.586 -27.456  10.376  0.00  0.00    -0.286 OA
ATOM      8  C   LIG    1       25.566 -29.724   9.133  0.00  0.00    +0.132 A 
ATOM      9  C   LIG    1       24.981 -30.860   8.550  0.00  0.00    +0.007 A 
ATOM     10  C   LIG    1       25.045 -30.992   7.037  0.00  0.00    +0.082 C 
ATOM     11  C   LIG    1       24.471 -32.278   6.439  0.00  0.00    +0.130 C 
ATOM     12  C   LIG    1       24.495 -33.421   7.477  0.00  0.00    +0.079 C 
ATOM     13  C   LIG    1       23.730 -33.066   8.755  0.00  0.00    +0.158 C 
ATOM     14  C   LIG    1       24.462 -31.879   9.381  0.00  0.00    +0.030 A 
ATOM     15  C   LIG    1       24.706 -31.795  10.770  0.00  0.00    +0.135 A 
ATOM     16  O   LIG    1       25.459 -31.639  13.456  0.00  0.00    -0.286 OA
ATOM     17  C   LIG    1       26.688 -28.371  12.528  0.00  0.00    +0.037 A 
ATOM     18  C   LIG    1       27.275 -27.199  13.026  0.00  0.00    +0.012 A 
ATOM     19  C   LIG    1       27.666 -27.127  14.355  0.00  0.00    +0.004 A 
ATOM     20  C   LIG    1       27.498 -28.237  15.179  0.00  0.00    +0.046 A 
ENDROOT
BRANCH  11  21
ATOM     21  C   LIG    1       25.279 -32.724   5.204  0.00  0.00    +0.162 C 
ATOM     22  O   LIG    1       26.471 -32.439   5.055  0.00  0.00    -0.295 OA
ATOM     23  C   LIG    1       24.565 -33.545   4.159  0.00  0.00    +0.089 C 
ENDBRANCH  11  21
BRANCH   1  25
ATOM     24  C   LIG    1       27.851 -31.455  15.500  0.00  0.00    +0.277 C 
ATOM     25  O   LIG    1       26.768 -30.526  15.487  0.00  0.00    -0.494 OA
ENDBRANCH   1  25
BRANCH   8  26
ATOM     26  O   LIG    1       25.996 -28.742   8.273  0.00  0.00    -0.506 OA
ATOM     27  H   LIG    1       26.642 -29.136   7.644  0.00  0.00    +0.292 HD
ENDBRANCH   8  26
BRANCH  11  28
ATOM     28  O   LIG    1       23.167 -31.963   5.940  0.00  0.00    -0.381 OA
ATOM     29  H   LIG    1       22.998 -32.570   5.192  0.00  0.00    +0.211 HD
ENDBRANCH  11  28
BRANCH  15  30
ATOM     30  O   LIG    1       24.311 -32.861  11.542  0.00  0.00    -0.506 OA
ATOM     31  H   LIG    1       23.586 -33.335  11.068  0.00  0.00    +0.292 HD
ENDBRANCH  15  30
BRANCH  13  32
ATOM     32  O   LIG    1       22.350 -32.712   8.532  0.00  0.00    -0.343 OA
BRANCH  32  33
ATOM     33  C   LIG    1       21.585 -32.466   9.724  0.00  0.00    +0.253 C 
ATOM     34  O   LIG    1       20.245 -32.918   9.521  0.00  0.00    -0.346 OA
ATOM     35  C   LIG    1       19.334 -32.765  10.599  0.00  0.00    +0.148 C 
ATOM     36  C   LIG    1       19.618 -33.773  11.707  0.00  0.00    +0.040 C 
ATOM     37  C   LIG    1       19.224 -31.284  10.982  0.00  0.00    +0.160 C 
ATOM     38  C   LIG    1       20.598 -30.588  11.138  0.00  0.00    +0.087 C 
ATOM     39  C   LIG    1       21.532 -30.958   9.975  0.00  0.00    +0.082 C 
BRANCH  38  40
ATOM     40  N   LIG    1       21.240 -30.837  12.437  0.00  0.00    -0.325 NA
ATOM     41  H   LIG    1       20.535 -31.114  13.120  0.00  0.00    +0.119 HD
ATOM     42  H   LIG    1       21.938 -31.572  12.396  0.00  0.00    +0.119 HD
ENDBRANCH  38  40
BRANCH  37  43
ATOM     43  O   LIG    1       18.400 -31.091  12.129  0.00  0.00    -0.388 OA
ATOM     44  H   LIG    1       17.476 -31.125  11.835  0.00  0.00    +0.210 HD
ENDBRANCH  37  43
ENDBRANCH  32  33
ENDBRANCH  13  32
TORSDOF 9
ENDMDL
