MODEL 1
REMARK VINA RESULT:      -8.6      0.000      0.000
REMARK  Name = *****
REMARK                            x       y       z     vdW  Elec       q    Type
REMARK                         _______ _______ _______ _____ _____    ______ ____
ROOT
ATOM      1  N   LIG    1       26.702 -20.552   6.174  0.00  0.00    -0.324 N 
ENDROOT
BRANCH   1   2
ATOM      2  C   LIG    1       28.105 -20.319   6.301  0.00  0.00    +0.030 A 
ATOM      3  C   LIG    1       28.791 -19.198   5.759  0.00  0.00    +0.023 A 
ATOM      4  C   LIG    1       30.021 -18.675   6.293  0.00  0.00    +0.002 A 
ATOM      5  C   LIG    1       30.639 -19.289   7.371  0.00  0.00    +0.000 A 
ATOM      6  C   LIG    1       30.091 -20.481   7.818  0.00  0.00    +0.002 A 
ATOM      7  C   LIG    1       28.878 -20.992   7.274  0.00  0.00    +0.023 A 
ENDBRANCH   1   2
BRANCH   1   8
ATOM      8  C   LIG    1       25.946 -20.540   4.870  0.00  0.00    +0.126 C 
BRANCH   8   9
ATOM      9  C   LIG    1       25.231 -19.187   4.365  0.00  0.00    +0.100 C 
BRANCH   9  10
ATOM     10  N   LIG    1       23.778 -19.361   4.229  0.00  0.00    -0.296 NA
ATOM     11  C   LIG    1       22.916 -18.251   3.873  0.00  0.00    +0.085 C 
ATOM     12  C   LIG    1       21.501 -18.815   4.003  0.00  0.00    +0.017 C 
ATOM     13  C   LIG    1       21.688 -20.190   4.606  0.00  0.00    +0.017 C 
ATOM     14  C   LIG    1       23.071 -20.139   5.219  0.00  0.00    +0.085 C 
ENDBRANCH   9  10
BRANCH   9  15
ATOM     15  C   LIG    1       25.918 -18.319   3.229  0.00  0.00    +0.180 C 
BRANCH  15  16
ATOM     16  O   LIG    1       25.924 -16.891   3.201  0.00  0.00    -0.378 OA
BRANCH  16  17
ATOM     17  C   LIG    1       27.053 -16.052   3.522  0.00  0.00    +0.162 C 
BRANCH  17  19
ATOM     18  C   LIG    1       27.920 -13.575   3.901  0.00  0.00    +0.009 C 
ATOM     19  C   LIG    1       26.790 -14.489   3.483  0.00  0.00    +0.009 C 
ATOM     20  C   LIG    1       26.107 -13.659   2.407  0.00  0.00    +0.009 C 
ENDBRANCH  17  19
ENDBRANCH  16  17
ENDBRANCH  15  16
ENDBRANCH   9  15
ENDBRANCH   8   9
ENDBRANCH   1   8
BRANCH   1  21
ATOM     21  C   LIG    1       25.884 -21.100   7.338  0.00  0.00    +0.140 C 
BRANCH  21  22
ATOM     22  C   LIG    1       25.197 -22.451   7.170  0.00  0.00    -0.030 A 
ATOM     23  C   LIG    1       25.905 -23.640   6.907  0.00  0.00    +0.005 A 
ATOM     24  C   LIG    1       25.180 -24.797   6.494  0.00  0.00    +0.000 A 
ATOM     25  C   LIG    1       23.831 -24.883   6.399  0.00  0.00    +0.000 A 
ATOM     26  C   LIG    1       23.098 -23.774   6.845  0.00  0.00    +0.000 A 
ATOM     27  C   LIG    1       23.898 -22.652   7.128  0.00  0.00    +0.005 A 
ENDBRANCH  21  22
ENDBRANCH   1  21
TORSDOF 10
ENDMDL
MODEL 2
REMARK VINA RESULT:      -8.2      1.676      5.388
REMARK  Name = *****
REMARK                            x       y       z     vdW  Elec       q    Type
REMARK                         _______ _______ _______ _____ _____    ______ ____
ROOT
ATOM      1  N   LIG    1       26.036 -21.199   7.280  0.00  0.00    -0.324 N 
ENDROOT
BRANCH   1   2
ATOM      2  C   LIG    1       25.060 -20.726   6.351  0.00  0.00    +0.030 A 
ATOM      3  C   LIG    1       25.145 -20.881   4.940  0.00  0.00    +0.023 A 
ATOM      4  C   LIG    1       24.002 -20.907   4.066  0.00  0.00    +0.002 A 
ATOM      5  C   LIG    1       22.723 -20.731   4.571  0.00  0.00    +0.000 A 
ATOM      6  C   LIG    1       22.614 -20.409   5.915  0.00  0.00    +0.002 A 
ATOM      7  C   LIG    1       23.755 -20.378   6.768  0.00  0.00    +0.023 A 
ENDBRANCH   1   2
BRANCH   1   8
ATOM      8  C   LIG    1       27.110 -20.346   7.903  0.00  0.00    +0.126 C 
BRANCH   8   9
ATOM      9  C   LIG    1       28.567 -20.258   7.220  0.00  0.00    +0.100 C 
BRANCH   9  10
ATOM     10  N   LIG    1       29.563 -19.692   8.140  0.00  0.00    -0.296 NA
ATOM     11  C   LIG    1       29.749 -18.259   8.264  0.00  0.00    +0.085 C 
ATOM     12  C   LIG    1       30.966 -18.113   9.177  0.00  0.00    +0.017 C 
ATOM     13  C   LIG    1       31.483 -19.524   9.358  0.00  0.00    +0.017 C 
ATOM     14  C   LIG    1       30.876 -20.291   8.203  0.00  0.00    +0.085 C 
ENDBRANCH   9  10
BRANCH   9  15
ATOM     15  C   LIG    1       28.694 -19.784   5.711  0.00  0.00    +0.180 C 
BRANCH  15  16
ATOM     16  O   LIG    1       27.792 -18.879   5.073  0.00  0.00    -0.378 OA
BRANCH  16  17
ATOM     17  C   LIG    1       28.127 -17.562   4.591  0.00  0.00    +0.162 C 
BRANCH  17  19
ATOM     18  C   LIG    1       25.782 -17.628   3.355  0.00  0.00    +0.009 C 
ATOM     19  C   LIG    1       27.090 -16.904   3.588  0.00  0.00    +0.009 C 
ATOM     20  C   LIG    1       26.662 -15.450   3.469  0.00  0.00    +0.009 C 
ENDBRANCH  17  19
ENDBRANCH  16  17
ENDBRANCH  15  16
ENDBRANCH   9  15
ENDBRANCH   8   9
ENDBRANCH   1   8
BRANCH   1  21
ATOM     21  C   LIG    1       25.906 -22.573   7.929  0.00  0.00    +0.140 C 
BRANCH  21  22
ATOM     22  C   LIG    1       25.406 -23.735   7.078  0.00  0.00    -0.030 A 
ATOM     23  C   LIG    1       24.040 -23.949   6.805  0.00  0.00    +0.005 A 
ATOM     24  C   LIG    1       23.637 -25.195   6.241  0.00  0.00    +0.000 A 
ATOM     25  C   LIG    1       24.475 -26.191   5.863  0.00  0.00    +0.000 A 
ATOM     26  C   LIG    1       25.849 -25.920   5.943  0.00  0.00    +0.000 A 
ATOM     27  C   LIG    1       26.144 -24.717   6.608  0.00  0.00    +0.005 A 
ENDBRANCH  21  22
ENDBRANCH   1  21
TORSDOF 10
ENDMDL
MODEL 3
REMARK VINA RESULT:      -8.1      0.738      4.480
REMARK  Name = *****
REMARK                            x       y       z     vdW  Elec       q    Type
REMARK                         _______ _______ _______ _____ _____    ______ ____
ROOT
ATOM      1  N   LIG    1       25.765 -21.503   5.990  0.00  0.00    -0.324 N 
ENDROOT
BRANCH   1   2
ATOM      2  C   LIG    1       25.239 -22.727   6.502  0.00  0.00    +0.030 A 
ATOM      3  C   LIG    1       23.853 -23.029   6.612  0.00  0.00    +0.023 A 
ATOM      4  C   LIG    1       23.322 -24.366   6.608  0.00  0.00    +0.002 A 
ATOM      5  C   LIG    1       24.168 -25.462   6.540  0.00  0.00    +0.000 A 
ATOM      6  C   LIG    1       25.530 -25.212   6.603  0.00  0.00    +0.002 A 
ATOM      7  C   LIG    1       26.043 -23.883   6.615  0.00  0.00    +0.023 A 
ENDBRANCH   1   2
BRANCH   1   8
ATOM      8  C   LIG    1       25.534 -20.989   4.592  0.00  0.00    +0.126 C 
BRANCH   8   9
ATOM      9  C   LIG    1       25.117 -19.451   4.357  0.00  0.00    +0.100 C 
BRANCH   9  10
ATOM     10  N   LIG    1       23.665 -19.303   4.183  0.00  0.00    -0.296 NA
ATOM     11  C   LIG    1       23.036 -17.997   4.168  0.00  0.00    +0.085 C 
ATOM     12  C   LIG    1       21.538 -18.299   4.135  0.00  0.00    +0.017 C 
ATOM     13  C   LIG    1       21.444 -19.799   4.314  0.00  0.00    +0.017 C 
ATOM     14  C   LIG    1       22.781 -20.184   4.910  0.00  0.00    +0.085 C 
ENDBRANCH   9  10
BRANCH   9  15
ATOM     15  C   LIG    1       26.007 -18.535   3.415  0.00  0.00    +0.180 C 
BRANCH  15  16
ATOM     16  O   LIG    1       25.731 -17.163   3.133  0.00  0.00    -0.378 OA
BRANCH  16  17
ATOM     17  C   LIG    1       26.584 -16.050   3.471  0.00  0.00    +0.162 C 
BRANCH  17  19
ATOM     18  C   LIG    1       26.049 -13.669   2.435  0.00  0.00    +0.009 C 
ATOM     19  C   LIG    1       25.872 -14.638   3.583  0.00  0.00    +0.009 C 
ATOM     20  C   LIG    1       24.461 -14.310   4.046  0.00  0.00    +0.009 C 
ENDBRANCH  17  19
ENDBRANCH  16  17
ENDBRANCH  15  16
ENDBRANCH   9  15
ENDBRANCH   8   9
ENDBRANCH   1   8
BRANCH   1  21
ATOM     21  C   LIG    1       26.397 -20.467   6.914  0.00  0.00    +0.140 C 
BRANCH  21  22
ATOM     22  C   LIG    1       27.910 -20.283   6.870  0.00  0.00    -0.030 A 
ATOM     23  C   LIG    1       28.790 -20.991   7.714  0.00  0.00    +0.005 A 
ATOM     24  C   LIG    1       30.149 -20.567   7.804  0.00  0.00    +0.000 A 
ATOM     25  C   LIG    1       30.707 -19.567   7.078  0.00  0.00    +0.000 A 
ATOM     26  C   LIG    1       29.900 -18.982   6.092  0.00  0.00    +0.000 A 
ATOM     27  C   LIG    1       28.556 -19.388   6.155  0.00  0.00    +0.005 A 
ENDBRANCH  21  22
ENDBRANCH   1  21
TORSDOF 10
ENDMDL
MODEL 4
REMARK VINA RESULT:      -7.8      2.858      6.445
REMARK  Name = *****
REMARK                            x       y       z     vdW  Elec       q    Type
REMARK                         _______ _______ _______ _____ _____    ______ ____
ROOT
ATOM      1  N   LIG    1       26.288 -22.308   7.191  0.00  0.00    -0.324 N 
ENDROOT
BRANCH   1   2
ATOM      2  C   LIG    1       25.549 -23.527   7.127  0.00  0.00    +0.030 A 
ATOM      3  C   LIG    1       24.134 -23.610   7.014  0.00  0.00    +0.023 A 
ATOM      4  C   LIG    1       23.440 -24.729   6.433  0.00  0.00    +0.002 A 
ATOM      5  C   LIG    1       24.140 -25.836   5.981  0.00  0.00    +0.000 A 
ATOM      6  C   LIG    1       25.503 -25.865   6.228  0.00  0.00    +0.002 A 
ATOM      7  C   LIG    1       26.177 -24.754   6.812  0.00  0.00    +0.023 A 
ENDBRANCH   1   2
BRANCH   1   8
ATOM      8  C   LIG    1       27.765 -22.185   6.917  0.00  0.00    +0.126 C 
BRANCH   8   9
ATOM      9  C   LIG    1       28.639 -21.076   7.692  0.00  0.00    +0.100 C 
BRANCH   9  10
ATOM     10  N   LIG    1       28.868 -19.887   6.859  0.00  0.00    -0.296 NA
ATOM     11  C   LIG    1       28.065 -19.625   5.681  0.00  0.00    +0.085 C 
ATOM     12  C   LIG    1       28.728 -18.410   5.033  0.00  0.00    +0.017 C 
ATOM     13  C   LIG    1       29.992 -18.188   5.836  0.00  0.00    +0.017 C 
ATOM     14  C   LIG    1       30.224 -19.511   6.533  0.00  0.00    +0.085 C 
ENDBRANCH   9  10
BRANCH   9  15
ATOM     15  C   LIG    1       29.878 -21.534   8.572  0.00  0.00    +0.180 C 
BRANCH  15  16
ATOM     16  O   LIG    1       30.548 -20.695   9.514  0.00  0.00    -0.378 OA
BRANCH  16  17
ATOM     17  C   LIG    1       31.570 -19.727   9.195  0.00  0.00    +0.162 C 
BRANCH  17  19
ATOM     18  C   LIG    1       32.202 -17.152   9.176  0.00  0.00    +0.009 C 
ATOM     19  C   LIG    1       31.315 -18.252   9.716  0.00  0.00    +0.009 C 
ATOM     20  C   LIG    1       29.997 -17.517   9.906  0.00  0.00    +0.009 C 
ENDBRANCH  17  19
ENDBRANCH  16  17
ENDBRANCH  15  16
ENDBRANCH   9  15
ENDBRANCH   8   9
ENDBRANCH   1   8
BRANCH   1  21
ATOM     21  C   LIG    1       25.581 -20.961   7.288  0.00  0.00    +0.140 C 
BRANCH  21  22
ATOM     22  C   LIG    1       24.665 -20.537   6.145  0.00  0.00    -0.030 A 
ATOM     23  C   LIG    1       25.123 -20.369   4.823  0.00  0.00    +0.005 A 
ATOM     24  C   LIG    1       24.278 -19.713   3.879  0.00  0.00    +0.000 A 
ATOM     25  C   LIG    1       23.013 -19.291   4.121  0.00  0.00    +0.000 A 
ATOM     26  C   LIG    1       22.468 -19.626   5.369  0.00  0.00    +0.000 A 
ATOM     27  C   LIG    1       23.408 -20.171   6.262  0.00  0.00    +0.005 A 
ENDBRANCH  21  22
ENDBRANCH   1  21
TORSDOF 10
ENDMDL
MODEL 5
REMARK VINA RESULT:      -7.4      1.679      8.025
REMARK  Name = *****
REMARK                            x       y       z     vdW  Elec       q    Type
REMARK                         _______ _______ _______ _____ _____    ______ ____
ROOT
ATOM      1  N   LIG    1       25.895 -18.988   3.968  0.00  0.00    -0.324 N 
ENDROOT
BRANCH   1   2
ATOM      2  C   LIG    1       24.579 -19.538   3.994  0.00  0.00    +0.030 A 
ATOM      3  C   LIG    1       24.281 -20.913   4.205  0.00  0.00    +0.023 A 
ATOM      4  C   LIG    1       23.037 -21.389   4.749  0.00  0.00    +0.002 A 
ATOM      5  C   LIG    1       22.018 -20.503   5.063  0.00  0.00    +0.000 A 
ATOM      6  C   LIG    1       22.208 -19.175   4.713  0.00  0.00    +0.002 A 
ATOM      7  C   LIG    1       23.441 -18.718   4.167  0.00  0.00    +0.023 A 
ENDBRANCH   1   2
BRANCH   1   8
ATOM      8  C   LIG    1       27.097 -19.608   4.634  0.00  0.00    +0.126 C 
BRANCH   8   9
ATOM      9  C   LIG    1       27.139 -19.762   6.237  0.00  0.00    +0.100 C 
BRANCH   9  10
ATOM     10  N   LIG    1       28.508 -19.636   6.758  0.00  0.00    -0.296 NA
ATOM     11  C   LIG    1       29.515 -18.867   6.055  0.00  0.00    +0.085 C 
ATOM     12  C   LIG    1       30.804 -19.131   6.832  0.00  0.00    +0.017 C 
ATOM     13  C   LIG    1       30.434 -20.199   7.839  0.00  0.00    +0.017 C 
ATOM     14  C   LIG    1       29.167 -20.810   7.280  0.00  0.00    +0.085 C 
ENDBRANCH   9  10
BRANCH   9  15
ATOM     15  C   LIG    1       26.248 -20.872   6.938  0.00  0.00    +0.180 C 
BRANCH  15  16
ATOM     16  O   LIG    1       26.284 -22.260   6.606  0.00  0.00    -0.378 OA
BRANCH  16  17
ATOM     17  C   LIG    1       25.681 -23.322   7.375  0.00  0.00    +0.162 C 
BRANCH  17  19
ATOM     18  C   LIG    1       23.402 -24.460   6.638  0.00  0.00    +0.009 C 
ATOM     19  C   LIG    1       24.912 -24.431   6.543  0.00  0.00    +0.009 C 
ATOM     20  C   LIG    1       25.137 -24.881   5.108  0.00  0.00    +0.009 C 
ENDBRANCH  17  19
ENDBRANCH  16  17
ENDBRANCH  15  16
ENDBRANCH   9  15
ENDBRANCH   8   9
ENDBRANCH   1   8
BRANCH   1  21
ATOM     21  C   LIG    1       26.254 -17.844   3.025  0.00  0.00    +0.140 C 
BRANCH  21  22
ATOM     22  C   LIG    1       26.241 -16.421   3.572  0.00  0.00    -0.030 A 
ATOM     23  C   LIG    1       25.059 -15.663   3.700  0.00  0.00    +0.005 A 
ATOM     24  C   LIG    1       25.162 -14.264   3.956  0.00  0.00    +0.000 A 
ATOM     25  C   LIG    1       26.318 -13.590   4.168  0.00  0.00    +0.000 A 
ATOM     26  C   LIG    1       27.489 -14.358   4.241  0.00  0.00    +0.000 A 
ATOM     27  C   LIG    1       27.300 -15.701   3.870  0.00  0.00    +0.005 A 
ENDBRANCH  21  22
ENDBRANCH   1  21
TORSDOF 10
ENDMDL
MODEL 6
REMARK VINA RESULT:      -7.2      1.696      5.827
REMARK  Name = *****
REMARK                            x       y       z     vdW  Elec       q    Type
REMARK                         _______ _______ _______ _____ _____    ______ ____
ROOT
ATOM      1  N   LIG    1       25.547 -22.167   7.351  0.00  0.00    -0.324 N 
ENDROOT
BRANCH   1   2
ATOM      2  C   LIG    1       25.328 -23.419   6.702  0.00  0.00    +0.030 A 
ATOM      3  C   LIG    1       26.320 -24.423   6.524  0.00  0.00    +0.023 A 
ATOM      4  C   LIG    1       26.027 -25.824   6.377  0.00  0.00    +0.002 A 
ATOM      5  C   LIG    1       24.715 -26.271   6.356  0.00  0.00    +0.000 A 
ATOM      6  C   LIG    1       23.719 -25.307   6.355  0.00  0.00    +0.002 A 
ATOM      7  C   LIG    1       24.024 -23.922   6.493  0.00  0.00    +0.023 A 
ENDBRANCH   1   2
BRANCH   1   8
ATOM      8  C   LIG    1       26.886 -21.676   7.837  0.00  0.00    +0.126 C 
BRANCH   8   9
ATOM      9  C   LIG    1       27.887 -20.927   6.820  0.00  0.00    +0.100 C 
BRANCH   9  10
ATOM     10  N   LIG    1       29.217 -20.730   7.416  0.00  0.00    -0.296 NA
ATOM     11  C   LIG    1       29.783 -21.698   8.335  0.00  0.00    +0.085 C 
ATOM     12  C   LIG    1       31.069 -21.039   8.833  0.00  0.00    +0.017 C 
ATOM     13  C   LIG    1       31.029 -19.637   8.263  0.00  0.00    +0.017 C 
ATOM     14  C   LIG    1       29.572 -19.422   7.915  0.00  0.00    +0.085 C 
ENDBRANCH   9  10
BRANCH   9  15
ATOM     15  C   LIG    1       27.351 -19.716   5.947  0.00  0.00    +0.180 C 
BRANCH  15  16
ATOM     16  O   LIG    1       28.096 -19.084   4.905  0.00  0.00    -0.378 OA
BRANCH  16  17
ATOM     17  C   LIG    1       28.407 -17.677   4.833  0.00  0.00    +0.162 C 
BRANCH  17  19
ATOM     18  C   LIG    1       26.201 -17.392   3.390  0.00  0.00    +0.009 C 
ATOM     19  C   LIG    1       27.536 -16.825   3.820  0.00  0.00    +0.009 C 
ATOM     20  C   LIG    1       27.247 -15.331   3.825  0.00  0.00    +0.009 C 
ENDBRANCH  17  19
ENDBRANCH  16  17
ENDBRANCH  15  16
ENDBRANCH   9  15
ENDBRANCH   8   9
ENDBRANCH   1   8
BRANCH   1  21
ATOM     21  C   LIG    1       24.468 -21.089   7.371  0.00  0.00    +0.140 C 
BRANCH  21  22
ATOM     22  C   LIG    1       23.910 -20.596   6.041  0.00  0.00    -0.030 A 
ATOM     23  C   LIG    1       24.569 -20.802   4.813  0.00  0.00    +0.005 A 
ATOM     24  C   LIG    1       24.128 -20.081   3.664  0.00  0.00    +0.000 A 
ATOM     25  C   LIG    1       23.060 -19.248   3.625  0.00  0.00    +0.000 A 
ATOM     26  C   LIG    1       22.273 -19.181   4.784  0.00  0.00    +0.000 A 
ATOM     27  C   LIG    1       22.846 -19.838   5.888  0.00  0.00    +0.005 A 
ENDBRANCH  21  22
ENDBRANCH   1  21
TORSDOF 10
ENDMDL
MODEL 7
REMARK VINA RESULT:      -7.2      2.112      5.775
REMARK  Name = *****
REMARK                            x       y       z     vdW  Elec       q    Type
REMARK                         _______ _______ _______ _____ _____    ______ ____
ROOT
ATOM      1  N   LIG    1       25.976 -22.718   7.742  0.00  0.00    -0.324 N 
ENDROOT
BRANCH   1   2
ATOM      2  C   LIG    1       25.863 -23.841   6.867  0.00  0.00    +0.030 A 
ATOM      3  C   LIG    1       25.790 -25.195   7.295  0.00  0.00    +0.023 A 
ATOM      4  C   LIG    1       25.165 -26.244   6.533  0.00  0.00    +0.002 A 
ATOM      5  C   LIG    1       24.626 -25.983   5.283  0.00  0.00    +0.000 A 
ATOM      6  C   LIG    1       24.829 -24.715   4.761  0.00  0.00    +0.002 A 
ATOM      7  C   LIG    1       25.457 -23.688   5.522  0.00  0.00    +0.023 A 
ENDBRANCH   1   2
BRANCH   1   8
ATOM      8  C   LIG    1       27.262 -21.990   8.040  0.00  0.00    +0.126 C 
BRANCH   8   9
ATOM      9  C   LIG    1       27.895 -20.992   6.945  0.00  0.00    +0.100 C 
BRANCH   9  10
ATOM     10  N   LIG    1       29.141 -20.379   7.427  0.00  0.00    -0.296 NA
ATOM     11  C   LIG    1       29.941 -19.524   6.572  0.00  0.00    +0.085 C 
ATOM     12  C   LIG    1       31.202 -19.244   7.390  0.00  0.00    +0.017 C 
ATOM     13  C   LIG    1       31.076 -20.135   8.607  0.00  0.00    +0.017 C 
ATOM     14  C   LIG    1       30.063 -21.181   8.196  0.00  0.00    +0.085 C 
ENDBRANCH   9  10
BRANCH   9  15
ATOM     15  C   LIG    1       26.940 -20.027   6.124  0.00  0.00    +0.180 C 
BRANCH  15  16
ATOM     16  O   LIG    1       26.858 -19.999   4.698  0.00  0.00    -0.378 OA
BRANCH  16  17
ATOM     17  C   LIG    1       25.638 -20.003   3.928  0.00  0.00    +0.162 C 
BRANCH  17  19
ATOM     18  C   LIG    1       23.775 -18.125   3.757  0.00  0.00    +0.009 C 
ATOM     19  C   LIG    1       25.161 -18.596   3.376  0.00  0.00    +0.009 C 
ATOM     20  C   LIG    1       25.924 -17.282   3.311  0.00  0.00    +0.009 C 
ENDBRANCH  17  19
ENDBRANCH  16  17
ENDBRANCH  15  16
ENDBRANCH   9  15
ENDBRANCH   8   9
ENDBRANCH   1   8
BRANCH   1  21
ATOM     21  C   LIG    1       24.739 -21.988   8.252  0.00  0.00    +0.140 C 
BRANCH  21  22
ATOM     22  C   LIG    1       23.595 -21.729   7.278  0.00  0.00    -0.030 A 
ATOM     23  C   LIG    1       22.676 -22.727   6.897  0.00  0.00    +0.005 A 
ATOM     24  C   LIG    1       21.815 -22.483   5.787  0.00  0.00    +0.000 A 
ATOM     25  C   LIG    1       21.744 -21.323   5.091  0.00  0.00    +0.000 A 
ATOM     26  C   LIG    1       22.508 -20.251   5.577  0.00  0.00    +0.000 A 
ATOM     27  C   LIG    1       23.399 -20.619   6.600  0.00  0.00    +0.005 A 
ENDBRANCH  21  22
ENDBRANCH   1  21
TORSDOF 10
ENDMDL
MODEL 8
REMARK VINA RESULT:      -7.1      2.891      5.931
REMARK  Name = *****
REMARK                            x       y       z     vdW  Elec       q    Type
REMARK                         _______ _______ _______ _____ _____    ______ ____
ROOT
ATOM      1  N   LIG    1       26.408 -22.342   6.807  0.00  0.00    -0.324 N 
ENDROOT
BRANCH   1   2
ATOM      2  C   LIG    1       25.437 -21.340   6.510  0.00  0.00    +0.030 A 
ATOM      3  C   LIG    1       25.133 -20.869   5.203  0.00  0.00    +0.023 A 
ATOM      4  C   LIG    1       23.866 -20.298   4.830  0.00  0.00    +0.002 A 
ATOM      5  C   LIG    1       22.863 -20.133   5.772  0.00  0.00    +0.000 A 
ATOM      6  C   LIG    1       23.180 -20.421   7.090  0.00  0.00    +0.002 A 
ATOM      7  C   LIG    1       24.442 -20.978   7.446  0.00  0.00    +0.023 A 
ENDBRANCH   1   2
BRANCH   1   8
ATOM      8  C   LIG    1       27.900 -22.147   6.709  0.00  0.00    +0.126 C 
BRANCH   8   9
ATOM      9  C   LIG    1       28.612 -20.954   7.524  0.00  0.00    +0.100 C 
BRANCH   9  10
ATOM     10  N   LIG    1       28.778 -19.753   6.693  0.00  0.00    -0.296 NA
ATOM     11  C   LIG    1       27.867 -19.457   5.604  0.00  0.00    +0.085 C 
ATOM     12  C   LIG    1       28.485 -18.241   4.914  0.00  0.00    +0.017 C 
ATOM     13  C   LIG    1       29.825 -18.054   5.592  0.00  0.00    +0.017 C 
ATOM     14  C   LIG    1       30.101 -19.393   6.241  0.00  0.00    +0.085 C 
ENDBRANCH   9  10
BRANCH   9  15
ATOM     15  C   LIG    1       29.829 -21.284   8.487  0.00  0.00    +0.180 C 
BRANCH  15  16
ATOM     16  O   LIG    1       30.397 -20.356   9.412  0.00  0.00    -0.378 OA
BRANCH  16  17
ATOM     17  C   LIG    1       31.487 -19.454   9.132  0.00  0.00    +0.162 C 
BRANCH  17  19
ATOM     18  C   LIG    1       30.381 -17.548  10.608  0.00  0.00    +0.009 C 
ATOM     19  C   LIG    1       31.198 -17.916   9.389  0.00  0.00    +0.009 C 
ATOM     20  C   LIG    1       32.148 -16.733   9.288  0.00  0.00    +0.009 C 
ENDBRANCH  17  19
ENDBRANCH  16  17
ENDBRANCH  15  16
ENDBRANCH   9  15
ENDBRANCH   8   9
ENDBRANCH   1   8
BRANCH   1  21
ATOM     21  C   LIG    1       26.017 -23.636   7.513  0.00  0.00    +0.140 C 
BRANCH  21  22
ATOM     22  C   LIG    1       25.600 -24.830   6.661  0.00  0.00    -0.030 A 
ATOM     23  C   LIG    1       24.261 -25.080   6.300  0.00  0.00    +0.005 A 
ATOM     24  C   LIG    1       23.921 -26.349   5.744  0.00  0.00    +0.000 A 
ATOM     25  C   LIG    1       24.802 -27.337   5.454  0.00  0.00    +0.000 A 
ATOM     26  C   LIG    1       26.162 -27.035   5.621  0.00  0.00    +0.000 A 
ATOM     27  C   LIG    1       26.387 -25.809   6.272  0.00  0.00    +0.005 A 
ENDBRANCH  21  22
ENDBRANCH   1  21
TORSDOF 10
ENDMDL
MODEL 9
REMARK VINA RESULT:      -7.0      1.186      5.653
REMARK  Name = *****
REMARK                            x       y       z     vdW  Elec       q    Type
REMARK                         _______ _______ _______ _____ _____    ______ ____
ROOT
ATOM      1  N   LIG    1       25.805 -21.200   6.069  0.00  0.00    -0.324 N 
ENDROOT
BRANCH   1   2
ATOM      2  C   LIG    1       25.326 -22.444   6.580  0.00  0.00    +0.030 A 
ATOM      3  C   LIG    1       23.952 -22.802   6.681  0.00  0.00    +0.023 A 
ATOM      4  C   LIG    1       23.475 -24.159   6.675  0.00  0.00    +0.002 A 
ATOM      5  C   LIG    1       24.366 -25.220   6.615  0.00  0.00    +0.000 A 
ATOM      6  C   LIG    1       25.716 -24.915   6.687  0.00  0.00    +0.002 A 
ATOM      7  C   LIG    1       26.175 -23.567   6.701  0.00  0.00    +0.023 A 
ENDBRANCH   1   2
BRANCH   1   8
ATOM      8  C   LIG    1       26.829 -20.331   6.751  0.00  0.00    +0.126 C 
BRANCH   8   9
ATOM      9  C   LIG    1       28.210 -19.973   6.002  0.00  0.00    +0.100 C 
BRANCH   9  10
ATOM     10  N   LIG    1       29.295 -19.716   6.959  0.00  0.00    -0.296 NA
ATOM     11  C   LIG    1       30.473 -18.960   6.580  0.00  0.00    +0.085 C 
ATOM     12  C   LIG    1       31.400 -19.071   7.790  0.00  0.00    +0.017 C 
ATOM     13  C   LIG    1       30.713 -20.055   8.712  0.00  0.00    +0.017 C 
ATOM     14  C   LIG    1       29.746 -20.792   7.810  0.00  0.00    +0.085 C 
ENDBRANCH   9  10
BRANCH   9  15
ATOM     15  C   LIG    1       28.186 -19.018   4.735  0.00  0.00    +0.180 C 
BRANCH  15  16
ATOM     16  O   LIG    1       27.834 -17.634   4.777  0.00  0.00    -0.378 OA
BRANCH  16  17
ATOM     17  C   LIG    1       27.332 -16.863   3.666  0.00  0.00    +0.162 C 
BRANCH  17  19
ATOM     18  C   LIG    1       27.821 -14.258   3.715  0.00  0.00    +0.009 C 
ATOM     19  C   LIG    1       26.858 -15.388   4.003  0.00  0.00    +0.009 C 
ATOM     20  C   LIG    1       25.517 -14.726   3.728  0.00  0.00    +0.009 C 
ENDBRANCH  17  19
ENDBRANCH  16  17
ENDBRANCH  15  16
ENDBRANCH   9  15
ENDBRANCH   8   9
ENDBRANCH   1   8
BRANCH   1  21
ATOM     21  C   LIG    1       25.508 -20.768   4.637  0.00  0.00    +0.140 C 
BRANCH  21  22
ATOM     22  C   LIG    1       24.253 -19.944   4.372  0.00  0.00    -0.030 A 
ATOM     23  C   LIG    1       24.289 -18.670   3.770  0.00  0.00    +0.005 A 
ATOM     24  C   LIG    1       23.119 -17.856   3.808  0.00  0.00    +0.000 A 
ATOM     25  C   LIG    1       21.920 -18.231   4.317  0.00  0.00    +0.000 A 
ATOM     26  C   LIG    1       21.808 -19.563   4.742  0.00  0.00    +0.000 A 
ATOM     27  C   LIG    1       23.036 -20.248   4.766  0.00  0.00    +0.005 A 
ENDBRANCH  21  22
ENDBRANCH   1  21
TORSDOF 10
ENDMDL
