MODEL 1
REMARK VINA RESULT:      -5.3      0.000      0.000
REMARK  Name = *****
REMARK                            x       y       z     vdW  Elec       q    Type
REMARK                         _______ _______ _______ _____ _____    ______ ____
ROOT
ATOM      1  C   LIG    1       26.441 -16.023   3.515  0.00  0.00    +0.005 C 
ATOM      2  C   LIG    1       26.122 -17.309   3.297  0.00  0.00    +0.006 C 
ENDROOT
BRANCH   2   3
ATOM      3  C   LIG    1       26.538 -18.433   4.153  0.00  0.00    -0.022 A 
ATOM      4  C   LIG    1       27.800 -18.474   4.765  0.00  0.00    +0.057 A 
ATOM      5  C   LIG    1       28.084 -19.529   5.610  0.00  0.00    +0.167 A 
ATOM      6  O   LIG    1       29.251 -19.712   6.286  0.00  0.00    -0.453 OA
ATOM      7  C   LIG    1       28.963 -20.931   6.999  0.00  0.00    +0.466 C 
ATOM      8  O   LIG    1       27.643 -21.453   6.735  0.00  0.00    -0.453 OA
ATOM      9  C   LIG    1       27.170 -20.520   5.867  0.00  0.00    +0.166 A 
ATOM     10  C   LIG    1       25.919 -20.515   5.292  0.00  0.00    +0.050 A 
ATOM     11  C   LIG    1       25.603 -19.457   4.430  0.00  0.00    +0.012 A 
ENDBRANCH   2   3
BRANCH   1  12
ATOM     12  C   LIG    1       25.959 -14.879   2.657  0.00  0.00    +0.143 C 
BRANCH  12  14
ATOM     13  C   LIG    1       23.822 -14.375   3.998  0.00  0.00    +0.013 C 
ATOM     14  C   LIG    1       25.126 -13.795   3.415  0.00  0.00    -0.008 C 
ATOM     15  C   LIG    1       25.959 -13.237   4.589  0.00  0.00    +0.013 C 
ATOM     16  C   LIG    1       24.774 -12.622   2.479  0.00  0.00    +0.013 C 
ENDBRANCH  12  14
BRANCH  12  17
ATOM     17  O   LIG    1       27.105 -14.287   2.048  0.00  0.00    -0.387 OA
ATOM     18  H   LIG    1       27.366 -13.519   2.580  0.00  0.00    +0.210 HD
ENDBRANCH  12  17
ENDBRANCH   1  12
TORSDOF 4
ENDMDL
MODEL 2
REMARK VINA RESULT:      -5.3      2.600      7.098
REMARK  Name = *****
REMARK                            x       y       z     vdW  Elec       q    Type
REMARK                         _______ _______ _______ _____ _____    ______ ____
ROOT
ATOM      1  C   LIG    1       25.050 -18.053   3.645  0.00  0.00    +0.005 C 
ATOM      2  C   LIG    1       26.006 -17.111   3.621  0.00  0.00    +0.006 C 
ENDROOT
BRANCH   2   3
ATOM      3  C   LIG    1       25.779 -15.694   3.291  0.00  0.00    -0.022 A 
ATOM      4  C   LIG    1       24.601 -15.024   3.656  0.00  0.00    +0.057 A 
ATOM      5  C   LIG    1       24.499 -13.677   3.371  0.00  0.00    +0.167 A 
ATOM      6  O   LIG    1       23.433 -12.882   3.665  0.00  0.00    -0.453 OA
ATOM      7  C   LIG    1       23.896 -11.612   3.164  0.00  0.00    +0.466 C 
ATOM      8  O   LIG    1       25.214 -11.671   2.580  0.00  0.00    -0.453 OA
ATOM      9  C   LIG    1       25.512 -12.986   2.754  0.00  0.00    +0.166 A 
ATOM     10  C   LIG    1       26.685 -13.603   2.384  0.00  0.00    +0.050 A 
ATOM     11  C   LIG    1       26.817 -14.970   2.661  0.00  0.00    +0.012 A 
ENDBRANCH   2   3
BRANCH   1  12
ATOM     12  C   LIG    1       25.293 -19.489   4.041  0.00  0.00    +0.143 C 
BRANCH  12  14
ATOM     13  C   LIG    1       22.795 -19.337   4.639  0.00  0.00    +0.013 C 
ATOM     14  C   LIG    1       24.068 -20.207   4.693  0.00  0.00    -0.008 C 
ATOM     15  C   LIG    1       23.774 -21.516   3.929  0.00  0.00    +0.013 C 
ATOM     16  C   LIG    1       24.362 -20.568   6.162  0.00  0.00    +0.013 C 
ENDBRANCH  12  14
BRANCH  12  17
ATOM     17  O   LIG    1       25.713 -20.191   2.872  0.00  0.00    -0.387 OA
ATOM     18  H   LIG    1       26.626 -19.927   2.674  0.00  0.00    +0.210 HD
ENDBRANCH  12  17
ENDBRANCH   1  12
TORSDOF 4
ENDMDL
MODEL 3
REMARK VINA RESULT:      -5.1      2.715      3.726
REMARK  Name = *****
REMARK                            x       y       z     vdW  Elec       q    Type
REMARK                         _______ _______ _______ _____ _____    ______ ____
ROOT
ATOM      1  C   LIG    1       25.858 -16.061   3.603  0.00  0.00    +0.005 C 
ATOM      2  C   LIG    1       26.026 -17.360   3.307  0.00  0.00    +0.006 C 
ENDROOT
BRANCH   2   3
ATOM      3  C   LIG    1       25.153 -18.448   3.781  0.00  0.00    -0.022 A 
ATOM      4  C   LIG    1       23.757 -18.312   3.834  0.00  0.00    +0.057 A 
ATOM      5  C   LIG    1       23.008 -19.404   4.222  0.00  0.00    +0.167 A 
ATOM      6  O   LIG    1       21.650 -19.442   4.317  0.00  0.00    -0.453 OA
ATOM      7  C   LIG    1       21.446 -20.807   4.734  0.00  0.00    +0.466 C 
ATOM      8  O   LIG    1       22.673 -21.552   4.885  0.00  0.00    -0.453 OA
ATOM      9  C   LIG    1       23.588 -20.606   4.545  0.00  0.00    +0.166 A 
ATOM     10  C   LIG    1       24.952 -20.783   4.500  0.00  0.00    +0.050 A 
ATOM     11  C   LIG    1       25.738 -19.692   4.110  0.00  0.00    +0.012 A 
ENDBRANCH   2   3
BRANCH   1  12
ATOM     12  C   LIG    1       26.731 -14.955   3.063  0.00  0.00    +0.143 C 
BRANCH  12  14
ATOM     13  C   LIG    1       25.215 -13.133   2.061  0.00  0.00    +0.013 C 
ATOM     14  C   LIG    1       26.146 -13.515   3.230  0.00  0.00    -0.008 C 
ATOM     15  C   LIG    1       25.320 -13.446   4.532  0.00  0.00    +0.013 C 
ATOM     16  C   LIG    1       27.277 -12.473   3.326  0.00  0.00    +0.013 C 
ENDBRANCH  12  14
BRANCH  12  17
ATOM     17  O   LIG    1       27.998 -15.053   3.710  0.00  0.00    -0.387 OA
ATOM     18  H   LIG    1       27.842 -15.226   4.653  0.00  0.00    +0.210 HD
ENDBRANCH  12  17
ENDBRANCH   1  12
TORSDOF 4
ENDMDL
MODEL 4
REMARK VINA RESULT:      -4.2      3.377      6.615
REMARK  Name = *****
REMARK                            x       y       z     vdW  Elec       q    Type
REMARK                         _______ _______ _______ _____ _____    ______ ____
ROOT
ATOM      1  C   LIG    1       23.586 -18.166   4.014  0.00  0.00    +0.005 C 
ATOM      2  C   LIG    1       23.251 -16.866   4.006  0.00  0.00    +0.006 C 
ENDROOT
BRANCH   2   3
ATOM      3  C   LIG    1       24.215 -15.752   4.029  0.00  0.00    -0.022 A 
ATOM      4  C   LIG    1       25.561 -15.925   3.672  0.00  0.00    +0.057 A 
ATOM      5  C   LIG    1       26.381 -14.815   3.652  0.00  0.00    +0.167 A 
ATOM      6  O   LIG    1       27.701 -14.810   3.321  0.00  0.00    -0.453 OA
ATOM      7  C   LIG    1       28.009 -13.407   3.455  0.00  0.00    +0.466 C 
ATOM      8  O   LIG    1       26.879 -12.608   3.865  0.00  0.00    -0.453 OA
ATOM      9  C   LIG    1       25.915 -13.561   3.961  0.00  0.00    +0.166 A 
ATOM     10  C   LIG    1       24.600 -13.346   4.310  0.00  0.00    +0.050 A 
ATOM     11  C   LIG    1       23.745 -14.455   4.340  0.00  0.00    +0.012 A 
ENDBRANCH   2   3
BRANCH   1  12
ATOM     12  C   LIG    1       22.585 -19.293   3.935  0.00  0.00    +0.143 C 
BRANCH  12  14
ATOM     13  C   LIG    1       21.718 -21.514   4.902  0.00  0.00    +0.013 C 
ATOM     14  C   LIG    1       22.887 -20.507   4.871  0.00  0.00    -0.008 C 
ATOM     15  C   LIG    1       24.136 -21.253   4.355  0.00  0.00    +0.013 C 
ATOM     16  C   LIG    1       23.174 -20.033   6.308  0.00  0.00    +0.013 C 
ENDBRANCH  12  14
BRANCH  12  17
ATOM     17  O   LIG    1       21.300 -18.747   4.231  0.00  0.00    -0.387 OA
ATOM     18  H   LIG    1       20.629 -19.328   3.839  0.00  0.00    +0.210 HD
ENDBRANCH  12  17
ENDBRANCH   1  12
TORSDOF 4
ENDMDL
MODEL 5
REMARK VINA RESULT:      -4.2      2.783      3.421
REMARK  Name = *****
REMARK                            x       y       z     vdW  Elec       q    Type
REMARK                         _______ _______ _______ _____ _____    ______ ____
ROOT
ATOM      1  C   LIG    1       23.998 -15.184   3.978  0.00  0.00    +0.005 C 
ATOM      2  C   LIG    1       22.981 -16.058   4.034  0.00  0.00    +0.006 C 
ENDROOT
BRANCH   2   3
ATOM      3  C   LIG    1       23.135 -17.512   4.213  0.00  0.00    -0.022 A 
ATOM      4  C   LIG    1       24.360 -18.163   4.000  0.00  0.00    +0.057 A 
ATOM      5  C   LIG    1       24.437 -19.516   4.259  0.00  0.00    +0.167 A 
ATOM      6  O   LIG    1       25.547 -20.291   4.114  0.00  0.00    -0.453 OA
ATOM      7  C   LIG    1       25.042 -21.572   4.542  0.00  0.00    +0.466 C 
ATOM      8  O   LIG    1       23.651 -21.541   4.926  0.00  0.00    -0.453 OA
ATOM      9  C   LIG    1       23.358 -20.230   4.721  0.00  0.00    +0.166 A 
ATOM     10  C   LIG    1       22.141 -19.630   4.949  0.00  0.00    +0.050 A 
ATOM     11  C   LIG    1       22.034 -18.257   4.694  0.00  0.00    +0.012 A 
ENDBRANCH   2   3
BRANCH   1  12
ATOM     12  C   LIG    1       23.817 -13.691   3.849  0.00  0.00    +0.143 C 
BRANCH  12  14
ATOM     13  C   LIG    1       24.757 -11.658   5.116  0.00  0.00    +0.013 C 
ATOM     14  C   LIG    1       25.087 -12.844   4.186  0.00  0.00    -0.008 C 
ATOM     15  C   LIG    1       26.120 -13.734   4.910  0.00  0.00    +0.013 C 
ATOM     16  C   LIG    1       25.741 -12.302   2.901  0.00  0.00    +0.013 C 
ENDBRANCH  12  14
BRANCH  12  17
ATOM     17  O   LIG    1       23.383 -13.424   2.517  0.00  0.00    -0.387 OA
ATOM     18  H   LIG    1       24.160 -13.452   1.936  0.00  0.00    +0.210 HD
ENDBRANCH  12  17
ENDBRANCH   1  12
TORSDOF 4
ENDMDL
MODEL 6
REMARK VINA RESULT:      -4.1      2.854      6.289
REMARK  Name = *****
REMARK                            x       y       z     vdW  Elec       q    Type
REMARK                         _______ _______ _______ _____ _____    ______ ____
ROOT
ATOM      1  C   LIG    1       25.120 -19.426   4.355  0.00  0.00    +0.005 C 
ATOM      2  C   LIG    1       24.899 -18.334   3.606  0.00  0.00    +0.006 C 
ENDROOT
BRANCH   2   3
ATOM      3  C   LIG    1       25.781 -17.155   3.563  0.00  0.00    -0.022 A 
ATOM      4  C   LIG    1       25.317 -15.893   3.157  0.00  0.00    +0.057 A 
ATOM      5  C   LIG    1       26.190 -14.826   3.214  0.00  0.00    +0.167 A 
ATOM      6  O   LIG    1       25.898 -13.542   2.868  0.00  0.00    -0.453 OA
ATOM      7  C   LIG    1       27.154 -12.892   3.150  0.00  0.00    +0.466 C 
ATOM      8  O   LIG    1       28.166 -13.791   3.650  0.00  0.00    -0.453 OA
ATOM      9  C   LIG    1       27.482 -14.966   3.659  0.00  0.00    +0.166 A 
ATOM     10  C   LIG    1       27.974 -16.183   4.072  0.00  0.00    +0.050 A 
ATOM     11  C   LIG    1       27.111 -17.285   4.025  0.00  0.00    +0.012 A 
ENDBRANCH   2   3
BRANCH   1  12
ATOM     12  C   LIG    1       24.233 -20.647   4.344  0.00  0.00    +0.143 C 
BRANCH  12  14
ATOM     13  C   LIG    1       21.875 -21.572   4.795  0.00  0.00    +0.013 C 
ATOM     14  C   LIG    1       22.930 -20.520   5.197  0.00  0.00    -0.008 C 
ATOM     15  C   LIG    1       23.269 -20.740   6.687  0.00  0.00    +0.013 C 
ATOM     16  C   LIG    1       22.313 -19.116   5.050  0.00  0.00    +0.013 C 
ENDBRANCH  12  14
BRANCH  12  17
ATOM     17  O   LIG    1       23.908 -20.929   2.983  0.00  0.00    -0.387 OA
ATOM     18  H   LIG    1       23.098 -21.464   2.972  0.00  0.00    +0.210 HD
ENDBRANCH  12  17
ENDBRANCH   1  12
TORSDOF 4
ENDMDL
MODEL 7
REMARK VINA RESULT:      -4.0      2.976      3.772
REMARK  Name = *****
REMARK                            x       y       z     vdW  Elec       q    Type
REMARK                         _______ _______ _______ _____ _____    ______ ____
ROOT
ATOM      1  C   LIG    1       25.502 -15.391   3.312  0.00  0.00    +0.005 C 
ATOM      2  C   LIG    1       24.297 -15.709   3.811  0.00  0.00    +0.006 C 
ENDROOT
BRANCH   2   3
ATOM      3  C   LIG    1       23.798 -17.083   3.986  0.00  0.00    -0.022 A 
ATOM      4  C   LIG    1       24.603 -18.205   3.734  0.00  0.00    +0.057 A 
ATOM      5  C   LIG    1       24.081 -19.457   3.992  0.00  0.00    +0.167 A 
ATOM      6  O   LIG    1       24.731 -20.639   3.812  0.00  0.00    -0.453 OA
ATOM      7  C   LIG    1       23.724 -21.571   4.257  0.00  0.00    +0.466 C 
ATOM      8  O   LIG    1       22.501 -20.935   4.685  0.00  0.00    -0.453 OA
ATOM      9  C   LIG    1       22.813 -19.627   4.489  0.00  0.00    +0.166 A 
ATOM     10  C   LIG    1       21.992 -18.554   4.756  0.00  0.00    +0.050 A 
ATOM     11  C   LIG    1       22.496 -17.271   4.503  0.00  0.00    +0.012 A 
ENDBRANCH   2   3
BRANCH   1  12
ATOM     12  C   LIG    1       26.017 -13.977   3.192  0.00  0.00    +0.143 C 
BRANCH  12  14
ATOM     13  C   LIG    1       28.076 -14.935   4.401  0.00  0.00    +0.013 C 
ATOM     14  C   LIG    1       27.276 -13.660   4.063  0.00  0.00    -0.008 C 
ATOM     15  C   LIG    1       28.212 -12.711   3.284  0.00  0.00    +0.013 C 
ATOM     16  C   LIG    1       26.872 -12.962   5.376  0.00  0.00    +0.013 C 
ENDBRANCH  12  14
BRANCH  12  17
ATOM     17  O   LIG    1       26.295 -13.737   1.814  0.00  0.00    -0.387 OA
ATOM     18  H   LIG    1       27.197 -13.385   1.745  0.00  0.00    +0.210 HD
ENDBRANCH  12  17
ENDBRANCH   1  12
TORSDOF 4
ENDMDL
MODEL 8
REMARK VINA RESULT:      -3.8      2.882      7.275
REMARK  Name = *****
REMARK                            x       y       z     vdW  Elec       q    Type
REMARK                         _______ _______ _______ _____ _____    ______ ____
ROOT
ATOM      1  C   LIG    1       23.794 -18.211   3.931  0.00  0.00    +0.005 C 
ATOM      2  C   LIG    1       23.515 -16.951   4.299  0.00  0.00    +0.006 C 
ENDROOT
BRANCH   2   3
ATOM      3  C   LIG    1       24.181 -15.753   3.761  0.00  0.00    -0.022 A 
ATOM      4  C   LIG    1       23.524 -14.516   3.665  0.00  0.00    +0.057 A 
ATOM      5  C   LIG    1       24.243 -13.426   3.216  0.00  0.00    +0.167 A 
ATOM      6  O   LIG    1       23.760 -12.161   3.075  0.00  0.00    -0.453 OA
ATOM      7  C   LIG    1       24.938 -11.473   2.606  0.00  0.00    +0.466 C 
ATOM      8  O   LIG    1       26.090 -12.332   2.472  0.00  0.00    -0.453 OA
ATOM      9  C   LIG    1       25.569 -13.521   2.873  0.00  0.00    +0.166 A 
ATOM     10  C   LIG    1       26.252 -14.714   2.957  0.00  0.00    +0.050 A 
ATOM     11  C   LIG    1       25.548 -15.837   3.410  0.00  0.00    +0.012 A 
ENDBRANCH   2   3
BRANCH   1  12
ATOM     12  C   LIG    1       23.062 -19.423   4.455  0.00  0.00    +0.143 C 
BRANCH  12  14
ATOM     13  C   LIG    1       24.094 -21.570   3.485  0.00  0.00    +0.013 C 
ATOM     14  C   LIG    1       23.965 -20.668   4.730  0.00  0.00    -0.008 C 
ATOM     15  C   LIG    1       25.383 -20.198   5.118  0.00  0.00    +0.013 C 
ATOM     16  C   LIG    1       23.403 -21.505   5.895  0.00  0.00    +0.013 C 
ENDBRANCH  12  14
BRANCH  12  17
ATOM     17  O   LIG    1       22.382 -19.031   5.647  0.00  0.00    -0.387 OA
ATOM     18  H   LIG    1       22.069 -19.834   6.092  0.00  0.00    +0.210 HD
ENDBRANCH  12  17
ENDBRANCH   1  12
TORSDOF 4
ENDMDL
MODEL 9
REMARK VINA RESULT:      -3.7      3.080      6.388
REMARK  Name = *****
REMARK                            x       y       z     vdW  Elec       q    Type
REMARK                         _______ _______ _______ _____ _____    ______ ____
ROOT
ATOM      1  C   LIG    1       24.800 -17.539   3.698  0.00  0.00    +0.005 C 
ATOM      2  C   LIG    1       24.586 -16.216   3.763  0.00  0.00    +0.006 C 
ENDROOT
BRANCH   2   3
ATOM      3  C   LIG    1       25.643 -15.191   3.715  0.00  0.00    -0.022 A 
ATOM      4  C   LIG    1       26.071 -14.510   4.865  0.00  0.00    +0.057 A 
ATOM      5  C   LIG    1       27.117 -13.617   4.745  0.00  0.00    +0.167 A 
ATOM      6  O   LIG    1       27.656 -12.886   5.759  0.00  0.00    -0.453 OA
ATOM      7  C   LIG    1       28.696 -12.174   5.058  0.00  0.00    +0.466 C 
ATOM      8  O   LIG    1       28.756 -12.486   3.650  0.00  0.00    -0.453 OA
ATOM      9  C   LIG    1       27.744 -13.389   3.546  0.00  0.00    +0.166 A 
ATOM     10  C   LIG    1       27.360 -14.040   2.395  0.00  0.00    +0.050 A 
ATOM     11  C   LIG    1       26.301 -14.952   2.487  0.00  0.00    +0.012 A 
ENDBRANCH   2   3
BRANCH   1  12
ATOM     12  C   LIG    1       23.699 -18.571   3.693  0.00  0.00    +0.143 C 
BRANCH  12  14
ATOM     13  C   LIG    1       23.192 -20.240   5.584  0.00  0.00    +0.013 C 
ATOM     14  C   LIG    1       24.074 -19.936   4.355  0.00  0.00    -0.008 C 
ATOM     15  C   LIG    1       23.868 -21.075   3.335  0.00  0.00    +0.013 C 
ATOM     16  C   LIG    1       25.553 -19.946   4.789  0.00  0.00    +0.013 C 
ENDBRANCH  12  14
BRANCH  12  17
ATOM     17  O   LIG    1       22.570 -17.997   4.349  0.00  0.00    -0.387 OA
ATOM     18  H   LIG    1       22.366 -17.153   3.915  0.00  0.00    +0.210 HD
ENDBRANCH  12  17
ENDBRANCH   1  12
TORSDOF 4
ENDMDL
