MODEL 1
REMARK VINA RESULT:      -3.6      0.000      0.000
REMARK  Name = *****
REMARK                            x       y       z     vdW  Elec       q    Type
REMARK                         _______ _______ _______ _____ _____    ______ ____
ROOT
ATOM      1  C   LIG    1       22.808 -19.178   3.871  0.00  0.00    +0.138 C 
ENDROOT
BRANCH   1   2
ATOM      2  N   LIG    1       23.752 -19.894   4.706  0.00  0.00    -0.323 N 
ATOM      3  C   LIG    1       25.089 -19.614   4.808  0.00  0.00    +0.151 A 
ATOM      4  C   LIG    1       25.935 -18.695   4.149  0.00  0.00    +0.282 C 
ATOM      5  N   LIG    1       27.212 -18.640   4.693  0.00  0.00    -0.262 N 
ATOM      6  C   LIG    1       27.731 -19.536   5.655  0.00  0.00    +0.333 C 
ATOM      7  N   LIG    1       26.859 -20.506   6.144  0.00  0.00    -0.280 N 
ATOM      8  C   LIG    1       27.309 -21.537   7.062  0.00  0.00    +0.155 C 
ATOM      9  O   LIG    1       28.899 -19.470   6.035  0.00  0.00    -0.246 OA
ATOM     10  C   LIG    1       28.124 -17.633   4.192  0.00  0.00    +0.157 C 
ATOM     11  O   LIG    1       25.565 -18.025   3.167  0.00  0.00    -0.265 OA
ATOM     12  C   LIG    1       25.557 -20.482   5.749  0.00  0.00    +0.168 A 
ATOM     13  N   LIG    1       24.594 -21.300   6.228  0.00  0.00    -0.218 NA
ATOM     14  C   LIG    1       23.514 -20.909   5.596  0.00  0.00    +0.202 A 
ENDBRANCH   1   2
BRANCH   1  15
ATOM     15  C   LIG    1       22.265 -17.846   4.428  0.00  0.00    +0.103 C 
BRANCH  15  16
ATOM     16  N   LIG    1       22.832 -16.556   4.026  0.00  0.00    -0.311 NA
ATOM     17  H   LIG    1       22.382 -16.167   3.203  0.00  0.00    +0.122 HD
BRANCH  16  19
ATOM     18  C   LIG    1       21.971 -15.331   6.064  0.00  0.00    +0.024 C 
ATOM     19  C   LIG    1       23.098 -15.532   5.050  0.00  0.00    +0.055 C 
BRANCH  19  20
ATOM     20  C   LIG    1       23.405 -14.178   4.346  0.00  0.00    +0.053 C 
BRANCH  20  21
ATOM     21  C   LIG    1       24.865 -13.983   3.987  0.00  0.00    -0.046 A 
ATOM     22  C   LIG    1       25.853 -13.935   4.986  0.00  0.00    +0.003 A 
ATOM     23  C   LIG    1       27.202 -13.820   4.650  0.00  0.00    +0.000 A 
ATOM     24  C   LIG    1       27.581 -13.735   3.313  0.00  0.00    +0.000 A 
ATOM     25  C   LIG    1       26.610 -13.763   2.313  0.00  0.00    +0.000 A 
ATOM     26  C   LIG    1       25.260 -13.891   2.646  0.00  0.00    +0.003 A 
ENDBRANCH  20  21
ENDBRANCH  19  20
ENDBRANCH  16  19
ENDBRANCH  15  16
ENDBRANCH   1  15
TORSDOF 6
ENDMDL
MODEL 2
REMARK VINA RESULT:      -2.6      2.436      6.194
REMARK  Name = *****
REMARK                            x       y       z     vdW  Elec       q    Type
REMARK                         _______ _______ _______ _____ _____    ______ ____
ROOT
ATOM      1  C   LIG    1       23.893 -17.693   3.583  0.00  0.00    +0.138 C 
ENDROOT
BRANCH   1   2
ATOM      2  N   LIG    1       25.101 -16.895   3.524  0.00  0.00    -0.323 N 
ATOM      3  C   LIG    1       25.175 -15.553   3.788  0.00  0.00    +0.151 A 
ATOM      4  C   LIG    1       24.203 -14.574   4.090  0.00  0.00    +0.282 C 
ATOM      5  N   LIG    1       24.753 -13.350   4.452  0.00  0.00    -0.262 N 
ATOM      6  C   LIG    1       26.117 -13.000   4.337  0.00  0.00    +0.333 C 
ATOM      7  N   LIG    1       26.984 -13.995   3.892  0.00  0.00    -0.280 N 
ATOM      8  C   LIG    1       28.388 -13.721   3.645  0.00  0.00    +0.155 C 
ATOM      9  O   LIG    1       26.518 -11.869   4.609  0.00  0.00    -0.246 OA
ATOM     10  C   LIG    1       23.857 -12.312   4.919  0.00  0.00    +0.157 C 
ATOM     11  O   LIG    1       22.980 -14.794   4.012  0.00  0.00    -0.265 OA
ATOM     12  C   LIG    1       26.500 -15.249   3.685  0.00  0.00    +0.168 A 
ATOM     13  N   LIG    1       27.255 -16.319   3.353  0.00  0.00    -0.218 NA
ATOM     14  C   LIG    1       26.387 -17.300   3.283  0.00  0.00    +0.202 A 
ENDBRANCH   1   2
BRANCH   1  15
ATOM     15  C   LIG    1       24.062 -19.217   3.409  0.00  0.00    +0.103 C 
BRANCH  15  16
ATOM     16  N   LIG    1       24.821 -20.021   4.370  0.00  0.00    -0.311 NA
ATOM     17  H   LIG    1       25.550 -19.493   4.838  0.00  0.00    +0.122 HD
BRANCH  16  19
ATOM     18  C   LIG    1       22.694 -20.449   5.668  0.00  0.00    +0.024 C 
ATOM     19  C   LIG    1       24.102 -20.914   5.294  0.00  0.00    +0.055 C 
BRANCH  19  20
ATOM     20  C   LIG    1       24.947 -21.094   6.588  0.00  0.00    +0.053 C 
BRANCH  20  21
ATOM     21  C   LIG    1       26.423 -20.793   6.412  0.00  0.00    -0.046 A 
ATOM     22  C   LIG    1       26.848 -19.705   5.629  0.00  0.00    +0.003 A 
ATOM     23  C   LIG    1       28.203 -19.392   5.520  0.00  0.00    +0.000 A 
ATOM     24  C   LIG    1       29.152 -20.170   6.176  0.00  0.00    +0.000 A 
ATOM     25  C   LIG    1       28.745 -21.263   6.941  0.00  0.00    +0.000 A 
ATOM     26  C   LIG    1       27.388 -21.572   7.062  0.00  0.00    +0.003 A 
ENDBRANCH  20  21
ENDBRANCH  19  20
ENDBRANCH  16  19
ENDBRANCH  15  16
ENDBRANCH   1  15
TORSDOF 6
ENDMDL
MODEL 3
REMARK VINA RESULT:      -2.0      1.978      6.090
REMARK  Name = *****
REMARK                            x       y       z     vdW  Elec       q    Type
REMARK                         _______ _______ _______ _____ _____    ______ ____
ROOT
ATOM      1  C   LIG    1       23.443 -18.145   3.651  0.00  0.00    +0.138 C 
ENDROOT
BRANCH   1   2
ATOM      2  N   LIG    1       23.363 -16.780   4.129  0.00  0.00    -0.323 N 
ATOM      3  C   LIG    1       24.311 -15.813   3.922  0.00  0.00    +0.151 A 
ATOM      4  C   LIG    1       25.587 -15.826   3.315  0.00  0.00    +0.282 C 
ATOM      5  N   LIG    1       26.141 -14.560   3.177  0.00  0.00    -0.262 N 
ATOM      6  C   LIG    1       25.632 -13.377   3.758  0.00  0.00    +0.333 C 
ATOM      7  N   LIG    1       24.436 -13.488   4.463  0.00  0.00    -0.280 N 
ATOM      8  C   LIG    1       23.871 -12.359   5.181  0.00  0.00    +0.155 C 
ATOM      9  O   LIG    1       26.220 -12.301   3.653  0.00  0.00    -0.246 OA
ATOM     10  C   LIG    1       27.383 -14.436   2.443  0.00  0.00    +0.157 C 
ATOM     11  O   LIG    1       26.154 -16.878   2.965  0.00  0.00    -0.265 OA
ATOM     12  C   LIG    1       23.787 -14.684   4.478  0.00  0.00    +0.168 A 
ATOM     13  N   LIG    1       22.576 -14.894   5.037  0.00  0.00    -0.218 NA
ATOM     14  C   LIG    1       22.338 -16.160   4.794  0.00  0.00    +0.202 A 
ENDBRANCH   1   2
BRANCH   1  15
ATOM     15  C   LIG    1       23.346 -19.257   4.715  0.00  0.00    +0.103 C 
BRANCH  15  16
ATOM     16  N   LIG    1       24.296 -20.373   4.750  0.00  0.00    -0.311 NA
ATOM     17  H   LIG    1       25.259 -20.076   4.630  0.00  0.00    +0.122 HD
BRANCH  16  19
ATOM     18  C   LIG    1       22.745 -21.572   6.347  0.00  0.00    +0.024 C 
ATOM     19  C   LIG    1       24.159 -21.406   5.790  0.00  0.00    +0.055 C 
BRANCH  19  20
ATOM     20  C   LIG    1       25.139 -21.086   6.956  0.00  0.00    +0.053 C 
BRANCH  20  21
ATOM     21  C   LIG    1       26.537 -20.711   6.506  0.00  0.00    -0.046 A 
ATOM     22  C   LIG    1       26.740 -19.694   5.557  0.00  0.00    +0.003 A 
ATOM     23  C   LIG    1       28.029 -19.306   5.191  0.00  0.00    +0.000 A 
ATOM     24  C   LIG    1       29.133 -19.941   5.756  0.00  0.00    +0.000 A 
ATOM     25  C   LIG    1       28.945 -20.963   6.685  0.00  0.00    +0.000 A 
ATOM     26  C   LIG    1       27.656 -21.345   7.062  0.00  0.00    +0.003 A 
ENDBRANCH  20  21
ENDBRANCH  19  20
ENDBRANCH  16  19
ENDBRANCH  15  16
ENDBRANCH   1  15
TORSDOF 6
ENDMDL
MODEL 4
REMARK VINA RESULT:      -1.9      2.178      4.053
REMARK  Name = *****
REMARK                            x       y       z     vdW  Elec       q    Type
REMARK                         _______ _______ _______ _____ _____    ______ ____
ROOT
ATOM      1  C   LIG    1       26.413 -17.252   2.897  0.00  0.00    +0.138 C 
ENDROOT
BRANCH   1   2
ATOM      2  N   LIG    1       26.447 -18.276   3.922  0.00  0.00    -0.323 N 
ATOM      3  C   LIG    1       25.353 -18.934   4.418  0.00  0.00    +0.151 A 
ATOM      4  C   LIG    1       23.965 -18.804   4.195  0.00  0.00    +0.282 C 
ATOM      5  N   LIG    1       23.217 -19.808   4.797  0.00  0.00    -0.262 N 
ATOM      6  C   LIG    1       23.712 -20.753   5.724  0.00  0.00    +0.333 C 
ATOM      7  N   LIG    1       25.078 -20.712   5.992  0.00  0.00    -0.280 N 
ATOM      8  C   LIG    1       25.679 -21.571   6.997  0.00  0.00    +0.155 C 
ATOM      9  O   LIG    1       22.971 -21.567   6.274  0.00  0.00    -0.246 OA
ATOM     10  C   LIG    1       21.796 -19.858   4.521  0.00  0.00    +0.157 C 
ATOM     11  O   LIG    1       23.475 -17.865   3.540  0.00  0.00    -0.265 OA
ATOM     12  C   LIG    1       25.862 -19.846   5.295  0.00  0.00    +0.168 A 
ATOM     13  N   LIG    1       27.208 -19.782   5.390  0.00  0.00    -0.218 NA
ATOM     14  C   LIG    1       27.534 -18.841   4.536  0.00  0.00    +0.202 A 
ENDBRANCH   1   2
BRANCH   1  15
ATOM     15  C   LIG    1       26.479 -15.789   3.379  0.00  0.00    +0.103 C 
BRANCH  15  16
ATOM     16  N   LIG    1       27.758 -15.107   3.597  0.00  0.00    -0.311 NA
ATOM     17  H   LIG    1       28.490 -15.432   2.974  0.00  0.00    +0.122 HD
BRANCH  16  19
ATOM     18  C   LIG    1       29.166 -13.044   3.993  0.00  0.00    +0.024 C 
ATOM     19  C   LIG    1       27.778 -13.644   3.763  0.00  0.00    +0.055 C 
BRANCH  19  20
ATOM     20  C   LIG    1       26.844 -13.254   4.946  0.00  0.00    +0.053 C 
BRANCH  20  21
ATOM     21  C   LIG    1       25.519 -12.655   4.518  0.00  0.00    -0.046 A 
ATOM     22  C   LIG    1       24.660 -12.062   5.460  0.00  0.00    +0.003 A 
ATOM     23  C   LIG    1       23.470 -11.455   5.056  0.00  0.00    +0.000 A 
ATOM     24  C   LIG    1       23.114 -11.447   3.710  0.00  0.00    +0.000 A 
ATOM     25  C   LIG    1       23.949 -12.048   2.769  0.00  0.00    +0.000 A 
ATOM     26  C   LIG    1       25.146 -12.646   3.168  0.00  0.00    +0.003 A 
ENDBRANCH  20  21
ENDBRANCH  19  20
ENDBRANCH  16  19
ENDBRANCH  15  16
ENDBRANCH   1  15
TORSDOF 6
ENDMDL
MODEL 5
REMARK VINA RESULT:      -1.1      2.204      6.608
REMARK  Name = *****
REMARK                            x       y       z     vdW  Elec       q    Type
REMARK                         _______ _______ _______ _____ _____    ______ ____
ROOT
ATOM      1  C   LIG    1       25.453 -18.255   3.509  0.00  0.00    +0.138 C 
ENDROOT
BRANCH   1   2
ATOM      2  N   LIG    1       24.796 -16.987   3.754  0.00  0.00    -0.323 N 
ATOM      3  C   LIG    1       25.411 -15.763   3.743  0.00  0.00    +0.151 A 
ATOM      4  C   LIG    1       26.757 -15.360   3.590  0.00  0.00    +0.282 C 
ATOM      5  N   LIG    1       26.906 -13.983   3.477  0.00  0.00    -0.262 N 
ATOM      6  C   LIG    1       25.889 -13.029   3.702  0.00  0.00    +0.333 C 
ATOM      7  N   LIG    1       24.618 -13.521   3.989  0.00  0.00    -0.280 N 
ATOM      8  C   LIG    1       23.521 -12.635   4.331  0.00  0.00    +0.155 C 
ATOM      9  O   LIG    1       26.116 -11.820   3.656  0.00  0.00    -0.246 OA
ATOM     10  C   LIG    1       28.224 -13.464   3.176  0.00  0.00    +0.157 C 
ATOM     11  O   LIG    1       27.704 -16.168   3.583  0.00  0.00    -0.265 OA
ATOM     12  C   LIG    1       24.406 -14.865   3.947  0.00  0.00    +0.168 A 
ATOM     13  N   LIG    1       23.203 -15.457   4.105  0.00  0.00    -0.218 NA
ATOM     14  C   LIG    1       23.466 -16.735   3.963  0.00  0.00    +0.202 A 
ENDBRANCH   1   2
BRANCH   1  15
ATOM     15  C   LIG    1       26.752 -18.524   4.296  0.00  0.00    +0.103 C 
BRANCH  15  16
ATOM     16  N   LIG    1       27.116 -19.872   4.743  0.00  0.00    -0.311 NA
ATOM     17  H   LIG    1       27.747 -20.343   4.103  0.00  0.00    +0.122 HD
BRANCH  16  19
ATOM     18  C   LIG    1       28.905 -20.618   6.366  0.00  0.00    +0.024 C 
ATOM     19  C   LIG    1       27.485 -20.092   6.151  0.00  0.00    +0.055 C 
BRANCH  19  20
ATOM     20  C   LIG    1       26.467 -21.077   6.795  0.00  0.00    +0.053 C 
BRANCH  20  21
ATOM     21  C   LIG    1       25.096 -21.063   6.148  0.00  0.00    -0.046 A 
ATOM     22  C   LIG    1       23.990 -20.508   6.815  0.00  0.00    +0.003 A 
ATOM     23  C   LIG    1       22.743 -20.438   6.194  0.00  0.00    +0.000 A 
ATOM     24  C   LIG    1       22.580 -20.937   4.904  0.00  0.00    +0.000 A 
ATOM     25  C   LIG    1       23.664 -21.507   4.239  0.00  0.00    +0.000 A 
ATOM     26  C   LIG    1       24.917 -21.567   4.854  0.00  0.00    +0.003 A 
ENDBRANCH  20  21
ENDBRANCH  19  20
ENDBRANCH  16  19
ENDBRANCH  15  16
ENDBRANCH   1  15
TORSDOF 6
ENDMDL
MODEL 6
REMARK VINA RESULT:      -1.0      2.410      7.228
REMARK  Name = *****
REMARK                            x       y       z     vdW  Elec       q    Type
REMARK                         _______ _______ _______ _____ _____    ______ ____
ROOT
ATOM      1  C   LIG    1       27.436 -17.158   4.072  0.00  0.00    +0.138 C 
ENDROOT
BRANCH   1   2
ATOM      2  N   LIG    1       27.263 -15.783   3.651  0.00  0.00    -0.323 N 
ATOM      3  C   LIG    1       26.068 -15.113   3.609  0.00  0.00    +0.151 A 
ATOM      4  C   LIG    1       24.733 -15.505   3.850  0.00  0.00    +0.282 C 
ATOM      5  N   LIG    1       23.841 -14.439   3.851  0.00  0.00    -0.262 N 
ATOM      6  C   LIG    1       24.143 -13.120   3.445  0.00  0.00    +0.333 C 
ATOM      7  N   LIG    1       25.463 -12.860   3.086  0.00  0.00    -0.280 N 
ATOM      8  C   LIG    1       25.866 -11.568   2.562  0.00  0.00    +0.155 C 
ATOM      9  O   LIG    1       23.279 -12.245   3.402  0.00  0.00    -0.246 OA
ATOM     10  C   LIG    1       22.468 -14.701   4.226  0.00  0.00    +0.157 C 
ATOM     11  O   LIG    1       24.402 -16.693   4.021  0.00  0.00    -0.265 OA
ATOM     12  C   LIG    1       26.392 -13.844   3.230  0.00  0.00    +0.168 A 
ATOM     13  N   LIG    1       27.717 -13.687   3.014  0.00  0.00    -0.218 NA
ATOM     14  C   LIG    1       28.217 -14.867   3.296  0.00  0.00    +0.202 A 
ENDBRANCH   1   2
BRANCH   1  15
ATOM     15  C   LIG    1       28.722 -17.484   4.858  0.00  0.00    +0.103 C 
BRANCH  15  16
ATOM     16  N   LIG    1       29.067 -18.857   5.236  0.00  0.00    -0.311 NA
ATOM     17  H   LIG    1       30.015 -18.945   5.585  0.00  0.00    +0.122 HD
BRANCH  16  19
ATOM     18  C   LIG    1       28.748 -20.642   6.999  0.00  0.00    +0.024 C 
ATOM     19  C   LIG    1       28.110 -19.653   6.023  0.00  0.00    +0.055 C 
BRANCH  19  20
ATOM     20  C   LIG    1       27.168 -20.421   5.051  0.00  0.00    +0.053 C 
BRANCH  20  21
ATOM     21  C   LIG    1       25.701 -20.359   5.430  0.00  0.00    -0.046 A 
ATOM     22  C   LIG    1       24.726 -20.009   4.480  0.00  0.00    +0.003 A 
ATOM     23  C   LIG    1       23.371 -20.014   4.814  0.00  0.00    +0.000 A 
ATOM     24  C   LIG    1       22.974 -20.353   6.104  0.00  0.00    +0.000 A 
ATOM     25  C   LIG    1       23.932 -20.686   7.060  0.00  0.00    +0.000 A 
ATOM     26  C   LIG    1       25.288 -20.693   6.726  0.00  0.00    +0.003 A 
ENDBRANCH  20  21
ENDBRANCH  19  20
ENDBRANCH  16  19
ENDBRANCH  15  16
ENDBRANCH   1  15
TORSDOF 6
ENDMDL
MODEL 7
REMARK VINA RESULT:      -0.9      1.590      2.914
REMARK  Name = *****
REMARK                            x       y       z     vdW  Elec       q    Type
REMARK                         _______ _______ _______ _____ _____    ______ ____
ROOT
ATOM      1  C   LIG    1       23.456 -16.482   3.215  0.00  0.00    +0.138 C 
ENDROOT
BRANCH   1   2
ATOM      2  N   LIG    1       23.180 -17.687   3.972  0.00  0.00    -0.323 N 
ATOM      3  C   LIG    1       24.121 -18.587   4.394  0.00  0.00    +0.151 A 
ATOM      4  C   LIG    1       25.515 -18.694   4.192  0.00  0.00    +0.282 C 
ATOM      5  N   LIG    1       26.105 -19.693   4.956  0.00  0.00    -0.262 N 
ATOM      6  C   LIG    1       25.409 -20.670   5.703  0.00  0.00    +0.333 C 
ATOM      7  N   LIG    1       24.020 -20.569   5.727  0.00  0.00    -0.280 N 
ATOM      8  C   LIG    1       23.199 -21.572   6.382  0.00  0.00    +0.155 C 
ATOM      9  O   LIG    1       26.000 -21.571   6.296  0.00  0.00    -0.246 OA
ATOM     10  C   LIG    1       27.549 -19.802   4.938  0.00  0.00    +0.157 C 
ATOM     11  O   LIG    1       26.135 -17.971   3.389  0.00  0.00    -0.265 OA
ATOM     12  C   LIG    1       23.424 -19.506   5.122  0.00  0.00    +0.168 A 
ATOM     13  N   LIG    1       22.100 -19.242   5.162  0.00  0.00    -0.218 NA
ATOM     14  C   LIG    1       21.986 -18.129   4.478  0.00  0.00    +0.202 A 
ENDBRANCH   1   2
BRANCH   1  15
ATOM     15  C   LIG    1       23.420 -15.152   3.995  0.00  0.00    +0.103 C 
BRANCH  15  16
ATOM     16  N   LIG    1       23.114 -13.880   3.334  0.00  0.00    -0.311 NA
ATOM     17  H   LIG    1       22.256 -13.457   3.672  0.00  0.00    +0.122 HD
BRANCH  16  19
ATOM     18  C   LIG    1       23.886 -11.816   2.095  0.00  0.00    +0.024 C 
ATOM     19  C   LIG    1       24.185 -12.888   3.143  0.00  0.00    +0.055 C 
BRANCH  19  20
ATOM     20  C   LIG    1       25.500 -13.629   2.763  0.00  0.00    +0.053 C 
BRANCH  20  21
ATOM     21  C   LIG    1       26.669 -13.328   3.681  0.00  0.00    -0.046 A 
ATOM     22  C   LIG    1       27.908 -12.919   3.159  0.00  0.00    +0.003 A 
ATOM     23  C   LIG    1       28.963 -12.582   4.007  0.00  0.00    +0.000 A 
ATOM     24  C   LIG    1       28.800 -12.665   5.387  0.00  0.00    +0.000 A 
ATOM     25  C   LIG    1       27.581 -13.086   5.917  0.00  0.00    +0.000 A 
ATOM     26  C   LIG    1       26.520 -13.413   5.071  0.00  0.00    +0.003 A 
ENDBRANCH  20  21
ENDBRANCH  19  20
ENDBRANCH  16  19
ENDBRANCH  15  16
ENDBRANCH   1  15
TORSDOF 6
ENDMDL
