MODEL 1
REMARK VINA RESULT:      -9.5      0.000      0.000
REMARK  Name = *****
REMARK                            x       y       z     vdW  Elec       q    Type
REMARK                         _______ _______ _______ _____ _____    ______ ____
ROOT
ATOM      1  C   LIG    1       25.495 -22.653   6.299  0.00  0.00    +0.082 A 
ATOM      2  C   LIG    1       25.203 -21.493   5.559  0.00  0.00    +0.133 A 
ATOM      3  C   LIG    1       25.910 -20.315   5.861  0.00  0.00    +0.050 A 
ATOM      4  C   LIG    1       26.908 -20.295   6.839  0.00  0.00    +0.049 A 
ATOM      5  C   LIG    1       27.229 -21.451   7.538  0.00  0.00    +0.122 A 
ATOM      6  C   LIG    1       26.529 -22.614   7.261  0.00  0.00    +0.062 A 
ENDROOT
BRANCH   1   8
ATOM      7  O   LIG    1       23.807 -24.204   6.881  0.00  0.00    -0.270 OA
ATOM      8  C   LIG    1       24.810 -23.985   6.209  0.00  0.00    +0.248 C 
ATOM      9  N   LIG    1       25.312 -24.927   5.346  0.00  0.00    -0.310 N 
ATOM     10  H   LIG    1       26.002 -24.636   4.663  0.00  0.00    +0.149 HD
BRANCH   9  11
ATOM     11  C   LIG    1       24.574 -26.152   5.083  0.00  0.00    +0.123 C 
BRANCH  11  12
ATOM     12  C   LIG    1       25.484 -27.407   5.041  0.00  0.00    +0.071 C 
ATOM     13  N   LIG    1       26.549 -27.390   6.071  0.00  0.00    -0.312 NA
ATOM     14  H   LIG    1       27.188 -28.162   5.876  0.00  0.00    +0.122 HD
ATOM     15  C   LIG    1       26.019 -27.550   7.426  0.00  0.00    +0.081 C 
ATOM     16  C   LIG    1       25.202 -28.832   7.580  0.00  0.00    +0.015 C 
ATOM     17  C   LIG    1       24.094 -28.925   6.536  0.00  0.00    +0.003 C 
ATOM     18  C   LIG    1       24.662 -28.704   5.136  0.00  0.00    +0.020 C 
ENDBRANCH  11  12
ENDBRANCH   9  11
ENDBRANCH   1   8
BRANCH   2  19
ATOM     19  O   LIG    1       24.230 -21.537   4.587  0.00  0.00    -0.482 OA
BRANCH  19  20
ATOM     20  C   LIG    1       23.678 -20.262   4.200  0.00  0.00    +0.342 C 
BRANCH  20  21
ATOM     21  C   LIG    1       22.359 -19.940   4.897  0.00  0.00    +0.424 C 
ATOM     22  F   LIG    1       21.778 -18.845   4.356  0.00  0.00    -0.167 F 
ATOM     23  F   LIG    1       22.574 -19.669   6.208  0.00  0.00    -0.167 F 
ATOM     24  F   LIG    1       21.469 -20.954   4.834  0.00  0.00    -0.167 F 
ENDBRANCH  20  21
ENDBRANCH  19  20
ENDBRANCH   2  19
BRANCH   5  25
ATOM     25  O   LIG    1       28.221 -21.314   8.468  0.00  0.00    -0.483 OA
BRANCH  25  26
ATOM     26  C   LIG    1       29.580 -21.375   8.015  0.00  0.00    +0.342 C 
BRANCH  26  27
ATOM     27  C   LIG    1       30.342 -20.059   8.159  0.00  0.00    +0.424 C 
ATOM     28  F   LIG    1       29.503 -19.025   8.392  0.00  0.00    -0.167 F 
ATOM     29  F   LIG    1       31.017 -19.776   7.018  0.00  0.00    -0.167 F 
ATOM     30  F   LIG    1       31.247 -20.088   9.162  0.00  0.00    -0.167 F 
ENDBRANCH  26  27
ENDBRANCH  25  26
ENDBRANCH   5  25
TORSDOF 9
ENDMDL
MODEL 2
REMARK VINA RESULT:      -9.4      3.495      6.867
REMARK  Name = *****
REMARK                            x       y       z     vdW  Elec       q    Type
REMARK                         _______ _______ _______ _____ _____    ______ ____
ROOT
ATOM      1  C   LIG    1       25.361 -22.676   7.343  0.00  0.00    +0.082 A 
ATOM      2  C   LIG    1       24.081 -22.162   7.066  0.00  0.00    +0.133 A 
ATOM      3  C   LIG    1       23.085 -23.052   6.628  0.00  0.00    +0.050 A 
ATOM      4  C   LIG    1       23.335 -24.422   6.506  0.00  0.00    +0.049 A 
ATOM      5  C   LIG    1       24.585 -24.938   6.823  0.00  0.00    +0.122 A 
ATOM      6  C   LIG    1       25.579 -24.068   7.241  0.00  0.00    +0.062 A 
ENDROOT
BRANCH   1   8
ATOM      7  O   LIG    1       26.677 -21.431   8.862  0.00  0.00    -0.270 OA
ATOM      8  C   LIG    1       26.586 -21.904   7.734  0.00  0.00    +0.248 C 
ATOM      9  N   LIG    1       27.599 -21.767   6.816  0.00  0.00    -0.310 N 
ATOM     10  H   LIG    1       27.576 -22.344   5.984  0.00  0.00    +0.149 HD
BRANCH   9  11
ATOM     11  C   LIG    1       28.877 -21.198   7.212  0.00  0.00    +0.123 C 
BRANCH  11  12
ATOM     12  C   LIG    1       28.813 -19.664   7.428  0.00  0.00    +0.071 C 
ATOM     13  N   LIG    1       29.246 -19.248   8.784  0.00  0.00    -0.312 NA
ATOM     14  H   LIG    1       29.027 -18.257   8.893  0.00  0.00    +0.122 HD
ATOM     15  C   LIG    1       30.682 -19.438   8.994  0.00  0.00    +0.081 C 
ATOM     16  C   LIG    1       31.523 -18.696   7.957  0.00  0.00    +0.015 C 
ATOM     17  C   LIG    1       31.118 -19.064   6.533  0.00  0.00    +0.003 C 
ATOM     18  C   LIG    1       29.610 -18.907   6.351  0.00  0.00    +0.020 C 
ENDBRANCH  11  12
ENDBRANCH   9  11
ENDBRANCH   1   8
BRANCH   2  19
ATOM     19  O   LIG    1       23.848 -20.813   7.210  0.00  0.00    -0.482 OA
BRANCH  19  20
ATOM     20  C   LIG    1       23.085 -20.196   6.153  0.00  0.00    +0.342 C 
BRANCH  20  21
ATOM     21  C   LIG    1       23.877 -20.027   4.859  0.00  0.00    +0.424 C 
ATOM     22  F   LIG    1       23.516 -18.894   4.214  0.00  0.00    -0.167 F 
ATOM     23  F   LIG    1       23.629 -21.060   4.018  0.00  0.00    -0.167 F 
ATOM     24  F   LIG    1       25.212 -19.980   5.061  0.00  0.00    -0.167 F 
ENDBRANCH  20  21
ENDBRANCH  19  20
ENDBRANCH   2  19
BRANCH   5  25
ATOM     25  O   LIG    1       24.715 -26.289   6.667  0.00  0.00    -0.483 OA
BRANCH  25  26
ATOM     26  C   LIG    1       26.010 -26.806   6.333  0.00  0.00    +0.342 C 
BRANCH  26  27
ATOM     27  C   LIG    1       26.149 -27.237   4.875  0.00  0.00    +0.424 C 
ATOM     28  F   LIG    1       25.685 -26.289   4.033  0.00  0.00    -0.167 F 
ATOM     29  F   LIG    1       25.430 -28.363   4.645  0.00  0.00    -0.167 F 
ATOM     30  F   LIG    1       27.428 -27.503   4.530  0.00  0.00    -0.167 F 
ENDBRANCH  26  27
ENDBRANCH  25  26
ENDBRANCH   5  25
TORSDOF 9
ENDMDL
MODEL 3
REMARK VINA RESULT:      -9.3      3.655      7.147
REMARK  Name = *****
REMARK                            x       y       z     vdW  Elec       q    Type
REMARK                         _______ _______ _______ _____ _____    ______ ____
ROOT
ATOM      1  C   LIG    1       25.312 -23.015   7.417  0.00  0.00    +0.082 A 
ATOM      2  C   LIG    1       23.920 -22.952   7.225  0.00  0.00    +0.133 A 
ATOM      3  C   LIG    1       23.285 -24.036   6.592  0.00  0.00    +0.050 A 
ATOM      4  C   LIG    1       24.001 -25.170   6.197  0.00  0.00    +0.049 A 
ATOM      5  C   LIG    1       25.367 -25.253   6.429  0.00  0.00    +0.122 A 
ATOM      6  C   LIG    1       26.006 -24.184   7.037  0.00  0.00    +0.062 A 
ENDROOT
BRANCH   1   8
ATOM      7  O   LIG    1       26.173 -21.703   9.187  0.00  0.00    -0.270 OA
ATOM      8  C   LIG    1       26.200 -21.947   7.985  0.00  0.00    +0.248 C 
ATOM      9  N   LIG    1       27.051 -21.281   7.139  0.00  0.00    -0.310 N 
ATOM     10  H   LIG    1       27.195 -21.653   6.208  0.00  0.00    +0.149 HD
BRANCH   9  11
ATOM     11  C   LIG    1       28.061 -20.380   7.671  0.00  0.00    +0.123 C 
BRANCH  11  12
ATOM     12  C   LIG    1       29.499 -20.755   7.225  0.00  0.00    +0.071 C 
ATOM     13  N   LIG    1       30.075 -19.798   6.250  0.00  0.00    -0.312 NA
ATOM     14  H   LIG    1       30.945 -20.197   5.896  0.00  0.00    +0.122 HD
ATOM     15  C   LIG    1       30.365 -18.496   6.851  0.00  0.00    +0.081 C 
ATOM     16  C   LIG    1       31.306 -18.606   8.049  0.00  0.00    +0.015 C 
ATOM     17  C   LIG    1       30.782 -19.592   9.089  0.00  0.00    +0.003 C 
ATOM     18  C   LIG    1       30.438 -20.927   8.432  0.00  0.00    +0.020 C 
ENDBRANCH  11  12
ENDBRANCH   9  11
ENDBRANCH   1   8
BRANCH   2  19
ATOM     19  O   LIG    1       23.228 -21.835   7.637  0.00  0.00    -0.482 OA
BRANCH  19  20
ATOM     20  C   LIG    1       23.501 -20.626   6.898  0.00  0.00    +0.342 C 
BRANCH  20  21
ATOM     21  C   LIG    1       22.827 -20.592   5.530  0.00  0.00    +0.424 C 
ATOM     22  F   LIG    1       23.703 -20.912   4.550  0.00  0.00    -0.167 F 
ATOM     23  F   LIG    1       22.369 -19.345   5.262  0.00  0.00    -0.167 F 
ATOM     24  F   LIG    1       21.777 -21.438   5.438  0.00  0.00    -0.167 F 
ENDBRANCH  20  21
ENDBRANCH  19  20
ENDBRANCH   2  19
BRANCH   5  25
ATOM     25  O   LIG    1       25.962 -26.407   6.003  0.00  0.00    -0.483 OA
BRANCH  25  26
ATOM     26  C   LIG    1       25.188 -27.303   5.194  0.00  0.00    +0.342 C 
BRANCH  26  27
ATOM     27  C   LIG    1       24.939 -28.664   5.842  0.00  0.00    +0.424 C 
ATOM     28  F   LIG    1       23.619 -28.941   5.918  0.00  0.00    -0.167 F 
ATOM     29  F   LIG    1       25.424 -28.681   7.107  0.00  0.00    -0.167 F 
ATOM     30  F   LIG    1       25.533 -29.676   5.172  0.00  0.00    -0.167 F 
ENDBRANCH  26  27
ENDBRANCH  25  26
ENDBRANCH   5  25
TORSDOF 9
ENDMDL
MODEL 4
REMARK VINA RESULT:      -8.9      3.636      7.459
REMARK  Name = *****
REMARK                            x       y       z     vdW  Elec       q    Type
REMARK                         _______ _______ _______ _____ _____    ______ ____
ROOT
ATOM      1  C   LIG    1       26.249 -21.588   6.616  0.00  0.00    +0.082 A 
ATOM      2  C   LIG    1       25.540 -22.757   6.284  0.00  0.00    +0.133 A 
ATOM      3  C   LIG    1       24.558 -22.677   5.281  0.00  0.00    +0.050 A 
ATOM      4  C   LIG    1       24.312 -21.485   4.595  0.00  0.00    +0.049 A 
ATOM      5  C   LIG    1       25.043 -20.342   4.890  0.00  0.00    +0.122 A 
ATOM      6  C   LIG    1       26.003 -20.404   5.887  0.00  0.00    +0.062 A 
ENDROOT
BRANCH   1   8
ATOM      7  O   LIG    1       26.910 -21.369   8.877  0.00  0.00    -0.270 OA
ATOM      8  C   LIG    1       27.268 -21.422   7.704  0.00  0.00    +0.248 C 
ATOM      9  N   LIG    1       28.596 -21.361   7.359  0.00  0.00    -0.310 N 
ATOM     10  H   LIG    1       28.861 -21.619   6.416  0.00  0.00    +0.149 HD
BRANCH   9  11
ATOM     11  C   LIG    1       29.625 -21.395   8.385  0.00  0.00    +0.123 C 
BRANCH  11  12
ATOM     12  C   LIG    1       30.900 -20.605   7.989  0.00  0.00    +0.071 C 
ATOM     13  N   LIG    1       30.691 -19.706   6.829  0.00  0.00    -0.312 NA
ATOM     14  H   LIG    1       31.602 -19.349   6.540  0.00  0.00    +0.122 HD
ATOM     15  C   LIG    1       29.823 -18.572   7.151  0.00  0.00    +0.081 C 
ATOM     16  C   LIG    1       30.354 -17.751   8.325  0.00  0.00    +0.015 C 
ATOM     17  C   LIG    1       30.610 -18.619   9.552  0.00  0.00    +0.003 C 
ATOM     18  C   LIG    1       31.474 -19.822   9.183  0.00  0.00    +0.020 C 
ENDBRANCH  11  12
ENDBRANCH   9  11
ENDBRANCH   1   8
BRANCH   2  19
ATOM     19  O   LIG    1       25.809 -23.927   6.958  0.00  0.00    -0.482 OA
BRANCH  19  20
ATOM     20  C   LIG    1       25.804 -25.124   6.153  0.00  0.00    +0.342 C 
BRANCH  20  21
ATOM     21  C   LIG    1       24.474 -25.871   6.193  0.00  0.00    +0.424 C 
ATOM     22  F   LIG    1       24.617 -27.087   6.768  0.00  0.00    -0.167 F 
ATOM     23  F   LIG    1       24.013 -26.078   4.936  0.00  0.00    -0.167 F 
ATOM     24  F   LIG    1       23.515 -25.203   6.872  0.00  0.00    -0.167 F 
ENDBRANCH  20  21
ENDBRANCH  19  20
ENDBRANCH   2  19
BRANCH   5  25
ATOM     25  O   LIG    1       24.719 -19.236   4.156  0.00  0.00    -0.483 OA
BRANCH  25  26
ATOM     26  C   LIG    1       23.412 -19.179   3.567  0.00  0.00    +0.342 C 
BRANCH  26  27
ATOM     27  C   LIG    1       22.362 -18.511   4.452  0.00  0.00    +0.424 C 
ATOM     28  F   LIG    1       21.123 -18.633   3.926  0.00  0.00    -0.167 F 
ATOM     29  F   LIG    1       22.617 -17.185   4.568  0.00  0.00    -0.167 F 
ATOM     30  F   LIG    1       22.330 -19.023   5.702  0.00  0.00    -0.167 F 
ENDBRANCH  26  27
ENDBRANCH  25  26
ENDBRANCH   5  25
TORSDOF 9
ENDMDL
MODEL 5
REMARK VINA RESULT:      -8.8      1.219      1.790
REMARK  Name = *****
REMARK                            x       y       z     vdW  Elec       q    Type
REMARK                         _______ _______ _______ _____ _____    ______ ____
ROOT
ATOM      1  C   LIG    1       25.691 -21.939   6.235  0.00  0.00    +0.082 A 
ATOM      2  C   LIG    1       25.606 -20.960   5.228  0.00  0.00    +0.133 A 
ATOM      3  C   LIG    1       26.539 -19.909   5.241  0.00  0.00    +0.050 A 
ATOM      4  C   LIG    1       27.556 -19.849   6.198  0.00  0.00    +0.049 A 
ATOM      5  C   LIG    1       27.669 -20.839   7.165  0.00  0.00    +0.122 A 
ATOM      6  C   LIG    1       26.745 -21.872   7.172  0.00  0.00    +0.062 A 
ENDROOT
BRANCH   1   8
ATOM      7  O   LIG    1       23.751 -22.934   7.153  0.00  0.00    -0.270 OA
ATOM      8  C   LIG    1       24.756 -23.089   6.465  0.00  0.00    +0.248 C 
ATOM      9  N   LIG    1       25.035 -24.294   5.869  0.00  0.00    -0.310 N 
ATOM     10  H   LIG    1       25.745 -24.322   5.147  0.00  0.00    +0.149 HD
BRANCH   9  11
ATOM     11  C   LIG    1       24.063 -25.375   5.905  0.00  0.00    +0.123 C 
BRANCH  11  12
ATOM     12  C   LIG    1       24.555 -26.603   6.715  0.00  0.00    +0.071 C 
ATOM     13  N   LIG    1       23.892 -27.867   6.318  0.00  0.00    -0.312 NA
ATOM     14  H   LIG    1       24.153 -28.586   6.994  0.00  0.00    +0.122 HD
ATOM     15  C   LIG    1       24.292 -28.313   4.982  0.00  0.00    +0.081 C 
ATOM     16  C   LIG    1       25.805 -28.488   4.859  0.00  0.00    +0.015 C 
ATOM     17  C   LIG    1       26.555 -27.225   5.271  0.00  0.00    +0.003 C 
ATOM     18  C   LIG    1       26.085 -26.750   6.644  0.00  0.00    +0.020 C 
ENDBRANCH  11  12
ENDBRANCH   9  11
ENDBRANCH   1   8
BRANCH   2  19
ATOM     19  O   LIG    1       24.609 -21.046   4.282  0.00  0.00    -0.482 OA
BRANCH  19  20
ATOM     20  C   LIG    1       23.814 -19.856   4.105  0.00  0.00    +0.342 C 
BRANCH  20  21
ATOM     21  C   LIG    1       22.539 -19.853   4.943  0.00  0.00    +0.424 C 
ATOM     22  F   LIG    1       22.826 -19.779   6.263  0.00  0.00    -0.167 F 
ATOM     23  F   LIG    1       21.847 -21.003   4.751  0.00  0.00    -0.167 F 
ATOM     24  F   LIG    1       21.712 -18.828   4.642  0.00  0.00    -0.167 F 
ENDBRANCH  20  21
ENDBRANCH  19  20
ENDBRANCH   2  19
BRANCH   5  25
ATOM     25  O   LIG    1       28.700 -20.679   8.047  0.00  0.00    -0.483 OA
BRANCH  25  26
ATOM     26  C   LIG    1       29.420 -19.439   8.021  0.00  0.00    +0.342 C 
BRANCH  26  27
ATOM     27  C   LIG    1       30.899 -19.588   7.673  0.00  0.00    +0.424 C 
ATOM     28  F   LIG    1       31.112 -19.447   6.346  0.00  0.00    -0.167 F 
ATOM     29  F   LIG    1       31.345 -20.820   8.020  0.00  0.00    -0.167 F 
ATOM     30  F   LIG    1       31.678 -18.686   8.311  0.00  0.00    -0.167 F 
ENDBRANCH  26  27
ENDBRANCH  25  26
ENDBRANCH   5  25
TORSDOF 9
ENDMDL
MODEL 6
REMARK VINA RESULT:      -8.8      1.140      5.482
REMARK  Name = *****
REMARK                            x       y       z     vdW  Elec       q    Type
REMARK                         _______ _______ _______ _____ _____    ______ ____
ROOT
ATOM      1  C   LIG    1       25.422 -22.473   5.866  0.00  0.00    +0.082 A 
ATOM      2  C   LIG    1       26.438 -21.625   6.343  0.00  0.00    +0.133 A 
ATOM      3  C   LIG    1       26.520 -20.322   5.819  0.00  0.00    +0.050 A 
ATOM      4  C   LIG    1       25.596 -19.856   4.879  0.00  0.00    +0.049 A 
ATOM      5  C   LIG    1       24.565 -20.677   4.442  0.00  0.00    +0.122 A 
ATOM      6  C   LIG    1       24.484 -21.968   4.939  0.00  0.00    +0.062 A 
ENDROOT
BRANCH   1   8
ATOM      7  O   LIG    1       25.506 -24.328   7.331  0.00  0.00    -0.270 OA
ATOM      8  C   LIG    1       25.204 -23.915   6.215  0.00  0.00    +0.248 C 
ATOM      9  N   LIG    1       24.638 -24.742   5.276  0.00  0.00    -0.310 N 
ATOM     10  H   LIG    1       24.213 -24.322   4.458  0.00  0.00    +0.149 HD
BRANCH   9  11
ATOM     11  C   LIG    1       24.231 -26.091   5.633  0.00  0.00    +0.123 C 
BRANCH  11  12
ATOM     12  C   LIG    1       25.321 -27.151   5.328  0.00  0.00    +0.071 C 
ATOM     13  N   LIG    1       26.359 -27.241   6.382  0.00  0.00    -0.312 NA
ATOM     14  H   LIG    1       27.110 -27.839   6.035  0.00  0.00    +0.122 HD
ATOM     15  C   LIG    1       25.842 -27.814   7.626  0.00  0.00    +0.081 C 
ATOM     16  C   LIG    1       25.227 -29.197   7.417  0.00  0.00    +0.015 C 
ATOM     17  C   LIG    1       24.160 -29.182   6.328  0.00  0.00    +0.003 C 
ATOM     18  C   LIG    1       24.705 -28.535   5.056  0.00  0.00    +0.020 C 
ENDBRANCH  11  12
ENDBRANCH   9  11
ENDBRANCH   1   8
BRANCH   2  19
ATOM     19  O   LIG    1       27.328 -22.095   7.282  0.00  0.00    -0.482 OA
BRANCH  19  20
ATOM     20  C   LIG    1       27.900 -21.098   8.153  0.00  0.00    +0.342 C 
BRANCH  20  21
ATOM     21  C   LIG    1       29.363 -20.796   7.844  0.00  0.00    +0.424 C 
ATOM     22  F   LIG    1       30.178 -21.718   8.405  0.00  0.00    -0.167 F 
ATOM     23  F   LIG    1       29.713 -19.591   8.356  0.00  0.00    -0.167 F 
ATOM     24  F   LIG    1       29.626 -20.765   6.519  0.00  0.00    -0.167 F 
ENDBRANCH  20  21
ENDBRANCH  19  20
ENDBRANCH   2  19
BRANCH   5  25
ATOM     25  O   LIG    1       23.721 -20.116   3.525  0.00  0.00    -0.483 OA
BRANCH  25  26
ATOM     26  C   LIG    1       23.431 -18.716   3.646  0.00  0.00    +0.342 C 
BRANCH  26  27
ATOM     27  C   LIG    1       22.233 -18.406   4.541  0.00  0.00    +0.424 C 
ATOM     28  F   LIG    1       22.274 -19.120   5.687  0.00  0.00    -0.167 F 
ATOM     29  F   LIG    1       21.077 -18.728   3.910  0.00  0.00    -0.167 F 
ATOM     30  F   LIG    1       22.156 -17.099   4.874  0.00  0.00    -0.167 F 
ENDBRANCH  26  27
ENDBRANCH  25  26
ENDBRANCH   5  25
TORSDOF 9
ENDMDL
MODEL 7
REMARK VINA RESULT:      -8.7      3.348      7.673
REMARK  Name = *****
REMARK                            x       y       z     vdW  Elec       q    Type
REMARK                         _______ _______ _______ _____ _____    ______ ____
ROOT
ATOM      1  C   LIG    1       25.367 -22.550   7.081  0.00  0.00    +0.082 A 
ATOM      2  C   LIG    1       25.058 -23.917   6.958  0.00  0.00    +0.133 A 
ATOM      3  C   LIG    1       23.762 -24.271   6.540  0.00  0.00    +0.050 A 
ATOM      4  C   LIG    1       22.812 -23.300   6.212  0.00  0.00    +0.049 A 
ATOM      5  C   LIG    1       23.131 -21.951   6.288  0.00  0.00    +0.122 A 
ATOM      6  C   LIG    1       24.399 -21.590   6.714  0.00  0.00    +0.062 A 
ENDROOT
BRANCH   1   8
ATOM      7  O   LIG    1       26.871 -21.921   8.795  0.00  0.00    -0.270 OA
ATOM      8  C   LIG    1       26.645 -21.950   7.589  0.00  0.00    +0.248 C 
ATOM      9  N   LIG    1       27.553 -21.467   6.680  0.00  0.00    -0.310 N 
ATOM     10  H   LIG    1       27.427 -21.700   5.702  0.00  0.00    +0.149 HD
BRANCH   9  11
ATOM     11  C   LIG    1       28.880 -21.056   7.112  0.00  0.00    +0.123 C 
BRANCH  11  12
ATOM     12  C   LIG    1       28.968 -19.542   7.432  0.00  0.00    +0.071 C 
ATOM     13  N   LIG    1       29.385 -19.264   8.827  0.00  0.00    -0.312 NA
ATOM     14  H   LIG    1       29.268 -18.264   8.997  0.00  0.00    +0.122 HD
ATOM     15  C   LIG    1       30.783 -19.620   9.072  0.00  0.00    +0.081 C 
ATOM     16  C   LIG    1       31.740 -18.907   8.118  0.00  0.00    +0.015 C 
ATOM     17  C   LIG    1       31.358 -19.136   6.660  0.00  0.00    +0.003 C 
ATOM     18  C   LIG    1       29.883 -18.806   6.437  0.00  0.00    +0.020 C 
ENDBRANCH  11  12
ENDBRANCH   9  11
ENDBRANCH   1   8
BRANCH   2  19
ATOM     19  O   LIG    1       26.013 -24.858   7.268  0.00  0.00    -0.482 OA
BRANCH  19  20
ATOM     20  C   LIG    1       25.670 -26.222   6.949  0.00  0.00    +0.342 C 
BRANCH  20  21
ATOM     21  C   LIG    1       26.242 -26.691   5.614  0.00  0.00    +0.424 C 
ATOM     22  F   LIG    1       25.934 -27.987   5.382  0.00  0.00    -0.167 F 
ATOM     23  F   LIG    1       27.594 -26.598   5.623  0.00  0.00    -0.167 F 
ATOM     24  F   LIG    1       25.793 -25.966   4.565  0.00  0.00    -0.167 F 
ENDBRANCH  20  21
ENDBRANCH  19  20
ENDBRANCH   2  19
BRANCH   5  25
ATOM     25  O   LIG    1       22.126 -21.093   5.942  0.00  0.00    -0.483 OA
BRANCH  25  26
ATOM     26  C   LIG    1       22.114 -20.576   4.604  0.00  0.00    +0.342 C 
BRANCH  26  27
ATOM     27  C   LIG    1       22.272 -19.060   4.524  0.00  0.00    +0.424 C 
ATOM     28  F   LIG    1       23.421 -18.715   3.902  0.00  0.00    -0.167 F 
ATOM     29  F   LIG    1       22.315 -18.523   5.768  0.00  0.00    -0.167 F 
ATOM     30  F   LIG    1       21.253 -18.464   3.866  0.00  0.00    -0.167 F 
ENDBRANCH  26  27
ENDBRANCH  25  26
ENDBRANCH   5  25
TORSDOF 9
ENDMDL
MODEL 8
REMARK VINA RESULT:      -8.4      3.669      6.039
REMARK  Name = *****
REMARK                            x       y       z     vdW  Elec       q    Type
REMARK                         _______ _______ _______ _____ _____    ______ ____
ROOT
ATOM      1  C   LIG    1       29.042 -20.036   6.760  0.00  0.00    +0.082 A 
ATOM      2  C   LIG    1       28.846 -21.323   7.293  0.00  0.00    +0.133 A 
ATOM      3  C   LIG    1       29.763 -21.794   8.250  0.00  0.00    +0.050 A 
ATOM      4  C   LIG    1       30.821 -20.999   8.698  0.00  0.00    +0.049 A 
ATOM      5  C   LIG    1       30.988 -19.711   8.207  0.00  0.00    +0.122 A 
ATOM      6  C   LIG    1       30.100 -19.241   7.253  0.00  0.00    +0.062 A 
ENDROOT
BRANCH   1   8
ATOM      7  O   LIG    1       28.734 -18.439   5.042  0.00  0.00    -0.270 OA
ATOM      8  C   LIG    1       28.247 -19.371   5.675  0.00  0.00    +0.248 C 
ATOM      9  N   LIG    1       26.989 -19.845   5.395  0.00  0.00    -0.310 N 
ATOM     10  H   LIG    1       26.712 -20.737   5.788  0.00  0.00    +0.149 HD
BRANCH   9  11
ATOM     11  C   LIG    1       26.263 -19.363   4.232  0.00  0.00    +0.123 C 
BRANCH  11  12
ATOM     12  C   LIG    1       25.143 -20.333   3.774  0.00  0.00    +0.071 C 
ATOM     13  N   LIG    1       24.614 -21.173   4.875  0.00  0.00    -0.312 NA
ATOM     14  H   LIG    1       24.003 -21.880   4.465  0.00  0.00    +0.122 HD
ATOM     15  C   LIG    1       23.846 -20.397   5.850  0.00  0.00    +0.081 C 
ATOM     16  C   LIG    1       22.687 -19.640   5.205  0.00  0.00    +0.015 C 
ATOM     17  C   LIG    1       23.157 -18.765   4.047  0.00  0.00    +0.003 C 
ATOM     18  C   LIG    1       23.999 -19.583   3.069  0.00  0.00    +0.020 C 
ENDBRANCH  11  12
ENDBRANCH   9  11
ENDBRANCH   1   8
BRANCH   2  19
ATOM     19  O   LIG    1       27.787 -22.085   6.853  0.00  0.00    -0.482 OA
BRANCH  19  20
ATOM     20  C   LIG    1       26.743 -22.319   7.820  0.00  0.00    +0.342 C 
BRANCH  20  21
ATOM     21  C   LIG    1       25.716 -23.349   7.359  0.00  0.00    +0.424 C 
ATOM     22  F   LIG    1       25.975 -24.565   7.893  0.00  0.00    -0.167 F 
ATOM     23  F   LIG    1       25.760 -23.488   6.012  0.00  0.00    -0.167 F 
ATOM     24  F   LIG    1       24.449 -23.014   7.690  0.00  0.00    -0.167 F 
ENDBRANCH  20  21
ENDBRANCH  19  20
ENDBRANCH   2  19
BRANCH   5  25
ATOM     25  O   LIG    1       32.054 -19.025   8.718  0.00  0.00    -0.483 OA
BRANCH  25  26
ATOM     26  C   LIG    1       31.934 -17.603   8.857  0.00  0.00    +0.342 C 
BRANCH  26  27
ATOM     27  C   LIG    1       31.064 -17.166  10.034  0.00  0.00    +0.424 C 
ATOM     28  F   LIG    1       30.977 -18.135  10.971  0.00  0.00    -0.167 F 
ATOM     29  F   LIG    1       29.802 -16.901   9.616  0.00  0.00    -0.167 F 
ATOM     30  F   LIG    1       31.527 -16.050  10.639  0.00  0.00    -0.167 F 
ENDBRANCH  26  27
ENDBRANCH  25  26
ENDBRANCH   5  25
TORSDOF 9
ENDMDL
MODEL 9
REMARK VINA RESULT:      -8.1      1.383      1.946
REMARK  Name = *****
REMARK                            x       y       z     vdW  Elec       q    Type
REMARK                         _______ _______ _______ _____ _____    ______ ____
ROOT
ATOM      1  C   LIG    1       25.665 -22.885   6.899  0.00  0.00    +0.082 A 
ATOM      2  C   LIG    1       24.678 -21.928   7.198  0.00  0.00    +0.133 A 
ATOM      3  C   LIG    1       25.058 -20.781   7.917  0.00  0.00    +0.050 A 
ATOM      4  C   LIG    1       26.387 -20.565   8.295  0.00  0.00    +0.049 A 
ATOM      5  C   LIG    1       27.370 -21.486   7.960  0.00  0.00    +0.122 A 
ATOM      6  C   LIG    1       27.005 -22.628   7.266  0.00  0.00    +0.062 A 
ENDROOT
BRANCH   1   8
ATOM      7  O   LIG    1       25.078 -24.257   5.064  0.00  0.00    -0.270 OA
ATOM      8  C   LIG    1       25.471 -24.211   6.226  0.00  0.00    +0.248 C 
ATOM      9  N   LIG    1       25.768 -25.355   6.926  0.00  0.00    -0.310 N 
ATOM     10  H   LIG    1       26.285 -25.269   7.793  0.00  0.00    +0.149 HD
BRANCH   9  11
ATOM     11  C   LIG    1       25.781 -26.645   6.256  0.00  0.00    +0.123 C 
BRANCH  11  12
ATOM     12  C   LIG    1       24.497 -27.474   6.518  0.00  0.00    +0.071 C 
ATOM     13  N   LIG    1       24.015 -28.199   5.319  0.00  0.00    -0.312 NA
ATOM     14  H   LIG    1       23.095 -28.586   5.533  0.00  0.00    +0.122 HD
ATOM     15  C   LIG    1       24.907 -29.295   4.934  0.00  0.00    +0.081 C 
ATOM     16  C   LIG    1       25.117 -30.297   6.067  0.00  0.00    +0.015 C 
ATOM     17  C   LIG    1       25.596 -29.615   7.344  0.00  0.00    +0.003 C 
ATOM     18  C   LIG    1       24.682 -28.444   7.699  0.00  0.00    +0.020 C 
ENDBRANCH  11  12
ENDBRANCH   9  11
ENDBRANCH   1   8
BRANCH   2  19
ATOM     19  O   LIG    1       23.379 -22.149   6.801  0.00  0.00    -0.482 OA
BRANCH  19  20
ATOM     20  C   LIG    1       23.063 -21.750   5.451  0.00  0.00    +0.342 C 
BRANCH  20  21
ATOM     21  C   LIG    1       22.788 -20.255   5.314  0.00  0.00    +0.424 C 
ATOM     22  F   LIG    1       22.600 -19.683   6.525  0.00  0.00    -0.167 F 
ATOM     23  F   LIG    1       21.658 -20.049   4.596  0.00  0.00    -0.167 F 
ATOM     24  F   LIG    1       23.789 -19.591   4.694  0.00  0.00    -0.167 F 
ENDBRANCH  20  21
ENDBRANCH  19  20
ENDBRANCH   2  19
BRANCH   5  25
ATOM     25  O   LIG    1       28.632 -21.171   8.380  0.00  0.00    -0.483 OA
BRANCH  25  26
ATOM     26  C   LIG    1       29.396 -20.256   7.582  0.00  0.00    +0.342 C 
BRANCH  26  27
ATOM     27  C   LIG    1       30.836 -20.073   8.057  0.00  0.00    +0.424 C 
ATOM     28  F   LIG    1       31.370 -21.240   8.479  0.00  0.00    -0.167 F 
ATOM     29  F   LIG    1       30.883 -19.212   9.102  0.00  0.00    -0.167 F 
ATOM     30  F   LIG    1       31.643 -19.576   7.093  0.00  0.00    -0.167 F 
ENDBRANCH  26  27
ENDBRANCH  25  26
ENDBRANCH   5  25
TORSDOF 9
ENDMDL
