MODEL 1
REMARK VINA RESULT:      -9.5      0.000      0.000
REMARK  Name = *****
REMARK                            x       y       z     vdW  Elec       q    Type
REMARK                         _______ _______ _______ _____ _____    ______ ____
ROOT
ATOM      1  C   LIG    1       27.626 -19.736   6.317  0.00  0.00    +0.158 C 
ENDROOT
BRANCH   1   2
ATOM      2  C   LIG    1       28.865 -20.005   7.149  0.00  0.00    -0.016 A 
ATOM      3  C   LIG    1       29.812 -18.993   7.401  0.00  0.00    +0.033 A 
ATOM      4  C   LIG    1       30.984 -19.245   8.142  0.00  0.00    +0.075 A 
ATOM      5  C   LIG    1       31.185 -20.537   8.651  0.00  0.00    +0.138 A 
ATOM      6  C   LIG    1       30.247 -21.545   8.423  0.00  0.00    +0.048 A 
ATOM      7  C   LIG    1       29.098 -21.278   7.682  0.00  0.00    +0.010 A 
BRANCH   4   8
ATOM      8  N   LIG    1       31.866 -18.152   8.313  0.00  0.00    -0.285 N 
ATOM      9  H   LIG    1       32.787 -18.216   7.899  0.00  0.00    +0.155 HD
ATOM     10  C   LIG    1       31.679 -16.985   8.989  0.00  0.00    +0.330 C 
ATOM     11  O   LIG    1       32.544 -16.125   9.041  0.00  0.00    -0.279 OA
ENDBRANCH   4   8
BRANCH   5  12
ATOM     12  O   LIG    1       32.290 -20.853   9.389  0.00  0.00    -0.505 OA
ATOM     13  H   LIG    1       33.071 -20.850   8.813  0.00  0.00    +0.292 HD
ENDBRANCH   5  12
ENDBRANCH   1   2
BRANCH   1  14
ATOM     14  O   LIG    1       27.794 -20.306   5.010  0.00  0.00    -0.386 OA
ATOM     15  H   LIG    1       26.988 -20.841   4.861  0.00  0.00    +0.210 HD
ENDBRANCH   1  14
BRANCH   1  16
ATOM     16  C   LIG    1       26.337 -20.318   6.946  0.00  0.00    +0.117 C 
BRANCH  16  17
ATOM     17  N   LIG    1       25.381 -20.708   5.885  0.00  0.00    -0.310 NA
ATOM     18  H   LIG    1       25.441 -20.029   5.121  0.00  0.00    +0.122 HD
BRANCH  17  19
ATOM     19  C   LIG    1       23.975 -20.746   6.351  0.00  0.00    +0.055 C 
ATOM     20  C   LIG    1       23.098 -21.022   5.119  0.00  0.00    +0.024 C 
BRANCH  19  21
ATOM     21  C   LIG    1       23.741 -21.805   7.454  0.00  0.00    +0.053 C 
BRANCH  21  25
ATOM     22  C   LIG    1       25.072 -25.759   6.353  0.00  0.00    +0.120 A 
ATOM     23  C   LIG    1       23.725 -25.417   6.251  0.00  0.00    +0.046 A 
ATOM     24  C   LIG    1       23.296 -24.137   6.607  0.00  0.00    +0.007 A 
ATOM     25  C   LIG    1       24.210 -23.190   7.084  0.00  0.00    -0.046 A 
ATOM     26  C   LIG    1       25.558 -23.544   7.203  0.00  0.00    +0.007 A 
ATOM     27  C   LIG    1       25.985 -24.821   6.838  0.00  0.00    +0.046 A 
BRANCH  22  29
ATOM     28  C   LIG    1       26.313 -27.068   4.826  0.00  0.00    +0.277 C 
ATOM     29  O   LIG    1       25.599 -26.986   6.054  0.00  0.00    -0.495 OA
ENDBRANCH  22  29
ENDBRANCH  21  25
ENDBRANCH  19  21
ENDBRANCH  17  19
ENDBRANCH  16  17
ENDBRANCH   1  16
TORSDOF 10
ENDMDL
MODEL 2
REMARK VINA RESULT:      -9.4      2.359      9.351
REMARK  Name = *****
REMARK                            x       y       z     vdW  Elec       q    Type
REMARK                         _______ _______ _______ _____ _____    ______ ____
ROOT
ATOM      1  C   LIG    1       26.712 -20.671   7.776  0.00  0.00    +0.158 C 
ENDROOT
BRANCH   1   2
ATOM      2  C   LIG    1       25.534 -21.572   7.456  0.00  0.00    -0.016 A 
ATOM      3  C   LIG    1       25.723 -22.901   7.031  0.00  0.00    +0.033 A 
ATOM      4  C   LIG    1       24.634 -23.733   6.697  0.00  0.00    +0.075 A 
ATOM      5  C   LIG    1       23.337 -23.211   6.819  0.00  0.00    +0.138 A 
ATOM      6  C   LIG    1       23.135 -21.902   7.255  0.00  0.00    +0.048 A 
ATOM      7  C   LIG    1       24.224 -21.093   7.574  0.00  0.00    +0.010 A 
BRANCH   4   8
ATOM      8  N   LIG    1       24.952 -25.042   6.267  0.00  0.00    -0.285 N 
ATOM      9  H   LIG    1       25.089 -25.754   6.972  0.00  0.00    +0.155 HD
ATOM     10  C   LIG    1       25.131 -25.520   5.004  0.00  0.00    +0.330 C 
ATOM     11  O   LIG    1       25.399 -26.692   4.790  0.00  0.00    -0.279 OA
ENDBRANCH   4   8
BRANCH   5  12
ATOM     12  O   LIG    1       22.233 -23.960   6.526  0.00  0.00    -0.505 OA
ATOM     13  H   LIG    1       21.443 -23.398   6.572  0.00  0.00    +0.292 HD
ENDBRANCH   5  12
ENDBRANCH   1   2
BRANCH   1  14
ATOM     14  O   LIG    1       26.618 -20.225   9.137  0.00  0.00    -0.386 OA
ATOM     15  H   LIG    1       26.073 -19.413   9.101  0.00  0.00    +0.210 HD
ENDBRANCH   1  14
BRANCH   1  16
ATOM     16  C   LIG    1       28.079 -21.370   7.579  0.00  0.00    +0.117 C 
BRANCH  16  17
ATOM     17  N   LIG    1       29.098 -20.388   7.143  0.00  0.00    -0.310 NA
ATOM     18  H   LIG    1       29.789 -20.867   6.560  0.00  0.00    +0.122 HD
BRANCH  17  19
ATOM     19  C   LIG    1       29.817 -19.752   8.272  0.00  0.00    +0.055 C 
ATOM     20  C   LIG    1       31.132 -20.524   8.461  0.00  0.00    +0.024 C 
BRANCH  19  21
ATOM     21  C   LIG    1       30.078 -18.245   8.040  0.00  0.00    +0.053 C 
BRANCH  21  25
ATOM     22  C   LIG    1       32.275 -16.295  11.201  0.00  0.00    +0.120 A 
ATOM     23  C   LIG    1       32.836 -16.426   9.931  0.00  0.00    +0.046 A 
ATOM     24  C   LIG    1       32.123 -17.056   8.910  0.00  0.00    +0.007 A 
ATOM     25  C   LIG    1       30.847 -17.577   9.152  0.00  0.00    -0.046 A 
ATOM     26  C   LIG    1       30.295 -17.460  10.433  0.00  0.00    +0.007 A 
ATOM     27  C   LIG    1       31.006 -16.822  11.449  0.00  0.00    +0.046 A 
BRANCH  22  29
ATOM     28  C   LIG    1       32.322 -16.024  13.547  0.00  0.00    +0.277 C 
ATOM     29  O   LIG    1       32.889 -15.718  12.279  0.00  0.00    -0.495 OA
ENDBRANCH  22  29
ENDBRANCH  21  25
ENDBRANCH  19  21
ENDBRANCH  17  19
ENDBRANCH  16  17
ENDBRANCH   1  16
TORSDOF 10
ENDMDL
MODEL 3
REMARK VINA RESULT:      -9.4      2.289      9.029
REMARK  Name = *****
REMARK                            x       y       z     vdW  Elec       q    Type
REMARK                         _______ _______ _______ _____ _____    ______ ____
ROOT
ATOM      1  C   LIG    1       25.647 -20.688   8.082  0.00  0.00    +0.158 C 
ENDROOT
BRANCH   1   2
ATOM      2  C   LIG    1       25.020 -21.962   7.547  0.00  0.00    -0.016 A 
ATOM      3  C   LIG    1       25.811 -23.061   7.161  0.00  0.00    +0.033 A 
ATOM      4  C   LIG    1       25.239 -24.234   6.629  0.00  0.00    +0.075 A 
ATOM      5  C   LIG    1       23.841 -24.297   6.509  0.00  0.00    +0.138 A 
ATOM      6  C   LIG    1       23.045 -23.222   6.903  0.00  0.00    +0.048 A 
ATOM      7  C   LIG    1       23.631 -22.068   7.420  0.00  0.00    +0.010 A 
BRANCH   4   8
ATOM      8  N   LIG    1       26.138 -25.262   6.261  0.00  0.00    -0.285 N 
ATOM      9  H   LIG    1       27.003 -25.342   6.778  0.00  0.00    +0.155 HD
ATOM     10  C   LIG    1       26.035 -26.190   5.271  0.00  0.00    +0.330 C 
ATOM     11  O   LIG    1       26.903 -27.028   5.080  0.00  0.00    -0.279 OA
ENDBRANCH   4   8
BRANCH   5  12
ATOM     12  O   LIG    1       23.214 -25.404   6.014  0.00  0.00    -0.505 OA
ATOM     13  H   LIG    1       22.690 -25.818   6.719  0.00  0.00    +0.292 HD
ENDBRANCH   5  12
ENDBRANCH   1   2
BRANCH   1  14
ATOM     14  O   LIG    1       25.848 -20.812   9.499  0.00  0.00    -0.386 OA
ATOM     15  H   LIG    1       26.478 -21.554   9.601  0.00  0.00    +0.210 HD
ENDBRANCH   1  14
BRANCH   1  16
ATOM     16  C   LIG    1       27.006 -20.357   7.419  0.00  0.00    +0.117 C 
BRANCH  16  17
ATOM     17  N   LIG    1       27.993 -19.956   8.447  0.00  0.00    -0.310 NA
ATOM     18  H   LIG    1       27.705 -19.058   8.847  0.00  0.00    +0.122 HD
BRANCH  17  19
ATOM     19  C   LIG    1       29.364 -19.797   7.909  0.00  0.00    +0.055 C 
ATOM     20  C   LIG    1       29.407 -20.529   6.559  0.00  0.00    +0.024 C 
BRANCH  19  21
ATOM     21  C   LIG    1       29.776 -18.313   7.757  0.00  0.00    +0.053 C 
BRANCH  21  25
ATOM     22  C   LIG    1       32.096 -16.830  11.079  0.00  0.00    +0.120 A 
ATOM     23  C   LIG    1       30.756 -17.172  11.254  0.00  0.00    +0.046 A 
ATOM     24  C   LIG    1       30.008 -17.652  10.178  0.00  0.00    +0.007 A 
ATOM     25  C   LIG    1       30.588 -17.781   8.911  0.00  0.00    -0.046 A 
ATOM     26  C   LIG    1       31.928 -17.419   8.736  0.00  0.00    +0.007 A 
ATOM     27  C   LIG    1       32.676 -16.947   9.815  0.00  0.00    +0.046 A 
BRANCH  22  29
ATOM     28  C   LIG    1       32.265 -15.881  13.236  0.00  0.00    +0.277 C 
ATOM     29  O   LIG    1       32.916 -16.329  12.054  0.00  0.00    -0.495 OA
ENDBRANCH  22  29
ENDBRANCH  21  25
ENDBRANCH  19  21
ENDBRANCH  17  19
ENDBRANCH  16  17
ENDBRANCH   1  16
TORSDOF 10
ENDMDL
MODEL 4
REMARK VINA RESULT:      -9.3      2.409      3.815
REMARK  Name = *****
REMARK                            x       y       z     vdW  Elec       q    Type
REMARK                         _______ _______ _______ _____ _____    ______ ____
ROOT
ATOM      1  C   LIG    1       25.987 -21.839   7.105  0.00  0.00    +0.158 C 
ENDROOT
BRANCH   1   2
ATOM      2  C   LIG    1       27.258 -21.045   6.871  0.00  0.00    -0.016 A 
ATOM      3  C   LIG    1       28.421 -21.285   7.628  0.00  0.00    +0.033 A 
ATOM      4  C   LIG    1       29.595 -20.526   7.441  0.00  0.00    +0.075 A 
ATOM      5  C   LIG    1       29.591 -19.526   6.456  0.00  0.00    +0.138 A 
ATOM      6  C   LIG    1       28.451 -19.290   5.688  0.00  0.00    +0.048 A 
ATOM      7  C   LIG    1       27.299 -20.046   5.893  0.00  0.00    +0.010 A 
BRANCH   4   8
ATOM      8  N   LIG    1       30.692 -20.850   8.274  0.00  0.00    -0.285 N 
ATOM      9  H   LIG    1       31.483 -20.220   8.282  0.00  0.00    +0.155 HD
ATOM     10  C   LIG    1       30.874 -21.926   9.087  0.00  0.00    +0.330 C 
ATOM     11  O   LIG    1       31.886 -22.063   9.758  0.00  0.00    -0.279 OA
ENDBRANCH   4   8
BRANCH   5  12
ATOM     12  O   LIG    1       30.694 -18.760   6.209  0.00  0.00    -0.505 OA
ATOM     13  H   LIG    1       30.508 -17.840   6.459  0.00  0.00    +0.292 HD
ENDBRANCH   5  12
ENDBRANCH   1   2
BRANCH   1  14
ATOM     14  O   LIG    1       25.381 -21.419   8.338  0.00  0.00    -0.386 OA
ATOM     15  H   LIG    1       24.941 -20.571   8.127  0.00  0.00    +0.210 HD
ENDBRANCH   1  14
BRANCH   1  16
ATOM     16  C   LIG    1       24.952 -21.675   5.966  0.00  0.00    +0.117 C 
BRANCH  16  17
ATOM     17  N   LIG    1       24.876 -22.915   5.161  0.00  0.00    -0.310 NA
ATOM     18  H   LIG    1       24.004 -22.907   4.625  0.00  0.00    +0.122 HD
BRANCH  17  19
ATOM     19  C   LIG    1       24.892 -24.147   5.984  0.00  0.00    +0.055 C 
ATOM     20  C   LIG    1       23.493 -24.293   6.605  0.00  0.00    +0.024 C 
BRANCH  19  21
ATOM     21  C   LIG    1       25.279 -25.404   5.169  0.00  0.00    +0.053 C 
BRANCH  21  25
ATOM     22  C   LIG    1       25.029 -29.065   7.440  0.00  0.00    +0.120 A 
ATOM     23  C   LIG    1       25.917 -28.060   7.820  0.00  0.00    +0.046 A 
ATOM     24  C   LIG    1       25.996 -26.876   7.085  0.00  0.00    +0.007 A 
ATOM     25  C   LIG    1       25.197 -26.691   5.950  0.00  0.00    -0.046 A 
ATOM     26  C   LIG    1       24.320 -27.710   5.562  0.00  0.00    +0.007 A 
ATOM     27  C   LIG    1       24.238 -28.888   6.304  0.00  0.00    +0.046 A 
BRANCH  22  29
ATOM     28  C   LIG    1       23.835 -30.343   9.028  0.00  0.00    +0.277 C 
ATOM     29  O   LIG    1       24.884 -30.270   8.071  0.00  0.00    -0.495 OA
ENDBRANCH  22  29
ENDBRANCH  21  25
ENDBRANCH  19  21
ENDBRANCH  17  19
ENDBRANCH  16  17
ENDBRANCH   1  16
TORSDOF 10
ENDMDL
MODEL 5
REMARK VINA RESULT:      -9.3      1.369      1.832
REMARK  Name = *****
REMARK                            x       y       z     vdW  Elec       q    Type
REMARK                         _______ _______ _______ _____ _____    ______ ____
ROOT
ATOM      1  C   LIG    1       27.500 -19.927   6.355  0.00  0.00    +0.158 C 
ENDROOT
BRANCH   1   2
ATOM      2  C   LIG    1       28.774 -20.074   7.164  0.00  0.00    -0.016 A 
ATOM      3  C   LIG    1       29.678 -19.004   7.309  0.00  0.00    +0.033 A 
ATOM      4  C   LIG    1       30.882 -19.144   8.029  0.00  0.00    +0.075 A 
ATOM      5  C   LIG    1       31.159 -20.383   8.627  0.00  0.00    +0.138 A 
ATOM      6  C   LIG    1       30.265 -21.447   8.506  0.00  0.00    +0.048 A 
ATOM      7  C   LIG    1       29.083 -21.290   7.784  0.00  0.00    +0.010 A 
BRANCH   4   8
ATOM      8  N   LIG    1       31.715 -18.002   8.088  0.00  0.00    -0.285 N 
ATOM      9  H   LIG    1       32.304 -17.803   7.291  0.00  0.00    +0.155 HD
ATOM     10  C   LIG    1       31.876 -17.099   9.094  0.00  0.00    +0.330 C 
ATOM     11  O   LIG    1       32.638 -16.150   8.992  0.00  0.00    -0.279 OA
ENDBRANCH   4   8
BRANCH   5  12
ATOM     12  O   LIG    1       32.298 -20.591   9.350  0.00  0.00    -0.505 OA
ATOM     13  H   LIG    1       32.674 -21.455   9.115  0.00  0.00    +0.292 HD
ENDBRANCH   5  12
ENDBRANCH   1   2
BRANCH   1  14
ATOM     14  O   LIG    1       27.749 -20.314   4.995  0.00  0.00    -0.386 OA
ATOM     15  H   LIG    1       27.336 -21.196   4.902  0.00  0.00    +0.210 HD
ENDBRANCH   1  14
BRANCH   1  16
ATOM     16  C   LIG    1       26.332 -20.782   6.904  0.00  0.00    +0.117 C 
BRANCH  16  17
ATOM     17  N   LIG    1       25.836 -21.703   5.856  0.00  0.00    -0.310 NA
ATOM     18  H   LIG    1       25.141 -21.211   5.287  0.00  0.00    +0.122 HD
BRANCH  17  19
ATOM     19  C   LIG    1       25.195 -22.921   6.405  0.00  0.00    +0.055 C 
ATOM     20  C   LIG    1       23.875 -22.482   7.057  0.00  0.00    +0.024 C 
BRANCH  19  21
ATOM     21  C   LIG    1       24.956 -24.006   5.328  0.00  0.00    +0.053 C 
BRANCH  21  25
ATOM     22  C   LIG    1       25.214 -28.061   6.781  0.00  0.00    +0.120 A 
ATOM     23  C   LIG    1       24.229 -27.704   5.861  0.00  0.00    +0.046 A 
ATOM     24  C   LIG    1       24.148 -26.393   5.391  0.00  0.00    +0.007 A 
ATOM     25  C   LIG    1       25.042 -25.418   5.850  0.00  0.00    -0.046 A 
ATOM     26  C   LIG    1       26.017 -25.776   6.787  0.00  0.00    +0.007 A 
ATOM     27  C   LIG    1       26.101 -27.090   7.248  0.00  0.00    +0.046 A 
BRANCH  22  29
ATOM     28  C   LIG    1       25.102 -30.397   6.452  0.00  0.00    +0.277 C 
ATOM     29  O   LIG    1       25.372 -29.307   7.324  0.00  0.00    -0.495 OA
ENDBRANCH  22  29
ENDBRANCH  21  25
ENDBRANCH  19  21
ENDBRANCH  17  19
ENDBRANCH  16  17
ENDBRANCH   1  16
TORSDOF 10
ENDMDL
MODEL 6
REMARK VINA RESULT:      -9.2      2.038      3.387
REMARK  Name = *****
REMARK                            x       y       z     vdW  Elec       q    Type
REMARK                         _______ _______ _______ _____ _____    ______ ____
ROOT
ATOM      1  C   LIG    1       25.950 -21.423   7.859  0.00  0.00    +0.158 C 
ENDROOT
BRANCH   1   2
ATOM      2  C   LIG    1       27.219 -20.800   7.311  0.00  0.00    -0.016 A 
ATOM      3  C   LIG    1       28.458 -20.972   7.959  0.00  0.00    +0.033 A 
ATOM      4  C   LIG    1       29.636 -20.366   7.476  0.00  0.00    +0.075 A 
ATOM      5  C   LIG    1       29.555 -19.593   6.307  0.00  0.00    +0.138 A 
ATOM      6  C   LIG    1       28.338 -19.428   5.647  0.00  0.00    +0.048 A 
ATOM      7  C   LIG    1       27.183 -20.029   6.144  0.00  0.00    +0.010 A 
BRANCH   4   8
ATOM      8  N   LIG    1       30.815 -20.599   8.223  0.00  0.00    -0.285 N 
ATOM      9  H   LIG    1       31.553 -19.911   8.171  0.00  0.00    +0.155 HD
ATOM     10  C   LIG    1       31.140 -21.653   9.020  0.00  0.00    +0.330 C 
ATOM     11  O   LIG    1       32.207 -21.708   9.612  0.00  0.00    -0.279 OA
ENDBRANCH   4   8
BRANCH   5  12
ATOM     12  O   LIG    1       30.655 -18.985   5.773  0.00  0.00    -0.505 OA
ATOM     13  H   LIG    1       31.446 -19.268   6.260  0.00  0.00    +0.292 HD
ENDBRANCH   5  12
ENDBRANCH   1   2
BRANCH   1  14
ATOM     14  O   LIG    1       25.769 -21.018   9.225  0.00  0.00    -0.386 OA
ATOM     15  H   LIG    1       24.802 -21.049   9.372  0.00  0.00    +0.210 HD
ENDBRANCH   1  14
BRANCH   1  16
ATOM     16  C   LIG    1       24.686 -21.028   7.057  0.00  0.00    +0.117 C 
BRANCH  16  17
ATOM     17  N   LIG    1       24.430 -22.018   5.986  0.00  0.00    -0.310 NA
ATOM     18  H   LIG    1       23.505 -21.838   5.586  0.00  0.00    +0.122 HD
BRANCH  17  19
ATOM     19  C   LIG    1       24.453 -23.419   6.468  0.00  0.00    +0.055 C 
ATOM     20  C   LIG    1       23.002 -23.810   6.787  0.00  0.00    +0.024 C 
BRANCH  19  21
ATOM     21  C   LIG    1       25.086 -24.391   5.444  0.00  0.00    +0.053 C 
BRANCH  21  25
ATOM     22  C   LIG    1       25.136 -28.494   6.781  0.00  0.00    +0.120 A 
ATOM     23  C   LIG    1       25.923 -27.536   7.420  0.00  0.00    +0.046 A 
ATOM     24  C   LIG    1       25.904 -26.209   6.987  0.00  0.00    +0.007 A 
ATOM     25  C   LIG    1       25.110 -25.829   5.898  0.00  0.00    -0.046 A 
ATOM     26  C   LIG    1       24.337 -26.798   5.249  0.00  0.00    +0.007 A 
ATOM     27  C   LIG    1       24.351 -28.120   5.690  0.00  0.00    +0.046 A 
BRANCH  22  29
ATOM     28  C   LIG    1       25.488 -30.721   6.076  0.00  0.00    +0.277 C 
ATOM     29  O   LIG    1       25.093 -29.822   7.106  0.00  0.00    -0.495 OA
ENDBRANCH  22  29
ENDBRANCH  21  25
ENDBRANCH  19  21
ENDBRANCH  17  19
ENDBRANCH  16  17
ENDBRANCH   1  16
TORSDOF 10
ENDMDL
MODEL 7
REMARK VINA RESULT:      -9.1      2.362      8.295
REMARK  Name = *****
REMARK                            x       y       z     vdW  Elec       q    Type
REMARK                         _______ _______ _______ _____ _____    ______ ____
ROOT
ATOM      1  C   LIG    1       23.224 -23.081   6.434  0.00  0.00    +0.158 C 
ENDROOT
BRANCH   1   2
ATOM      2  C   LIG    1       24.179 -24.256   6.337  0.00  0.00    -0.016 A 
ATOM      3  C   LIG    1       23.717 -25.552   6.040  0.00  0.00    +0.033 A 
ATOM      4  C   LIG    1       24.593 -26.655   5.985  0.00  0.00    +0.075 A 
ATOM      5  C   LIG    1       25.960 -26.431   6.214  0.00  0.00    +0.138 A 
ATOM      6  C   LIG    1       26.433 -25.149   6.492  0.00  0.00    +0.048 A 
ATOM      7  C   LIG    1       25.550 -24.073   6.549  0.00  0.00    +0.010 A 
BRANCH   4   8
ATOM      8  N   LIG    1       24.007 -27.910   5.695  0.00  0.00    -0.285 N 
ATOM      9  H   LIG    1       23.367 -27.965   4.914  0.00  0.00    +0.155 HD
ATOM     10  C   LIG    1       24.155 -29.103   6.333  0.00  0.00    +0.330 C 
ATOM     11  O   LIG    1       23.581 -30.112   5.954  0.00  0.00    -0.279 OA
ENDBRANCH   4   8
BRANCH   5  12
ATOM     12  O   LIG    1       26.871 -27.447   6.165  0.00  0.00    -0.505 OA
ATOM     13  H   LIG    1       27.730 -27.094   5.883  0.00  0.00    +0.292 HD
ENDBRANCH   5  12
ENDBRANCH   1   2
BRANCH   1  14
ATOM     14  O   LIG    1       21.921 -23.553   6.809  0.00  0.00    -0.386 OA
ATOM     15  H   LIG    1       21.335 -23.297   6.068  0.00  0.00    +0.210 HD
ENDBRANCH   1  14
BRANCH   1  16
ATOM     16  C   LIG    1       23.677 -22.015   7.461  0.00  0.00    +0.117 C 
BRANCH  16  17
ATOM     17  N   LIG    1       24.222 -20.829   6.762  0.00  0.00    -0.310 NA
ATOM     18  H   LIG    1       24.278 -21.035   5.761  0.00  0.00    +0.122 HD
BRANCH  17  19
ATOM     19  C   LIG    1       25.576 -20.449   7.227  0.00  0.00    +0.055 C 
ATOM     20  C   LIG    1       25.759 -21.054   8.628  0.00  0.00    +0.024 C 
BRANCH  19  21
ATOM     21  C   LIG    1       26.691 -20.919   6.262  0.00  0.00    +0.053 C 
BRANCH  21  25
ATOM     22  C   LIG    1       30.660 -19.621   7.349  0.00  0.00    +0.120 A 
ATOM     23  C   LIG    1       30.073 -20.707   7.996  0.00  0.00    +0.046 A 
ATOM     24  C   LIG    1       28.789 -21.126   7.643  0.00  0.00    +0.007 A 
ATOM     25  C   LIG    1       28.072 -20.452   6.648  0.00  0.00    -0.046 A 
ATOM     26  C   LIG    1       28.658 -19.352   6.013  0.00  0.00    +0.007 A 
ATOM     27  C   LIG    1       29.944 -18.941   6.362  0.00  0.00    +0.046 A 
BRANCH  22  29
ATOM     28  C   LIG    1       31.937 -18.095   8.622  0.00  0.00    +0.277 C 
ATOM     29  O   LIG    1       31.899 -19.112   7.628  0.00  0.00    -0.495 OA
ENDBRANCH  22  29
ENDBRANCH  21  25
ENDBRANCH  19  21
ENDBRANCH  17  19
ENDBRANCH  16  17
ENDBRANCH   1  16
TORSDOF 10
ENDMDL
MODEL 8
REMARK VINA RESULT:      -9.0      2.806      7.717
REMARK  Name = *****
REMARK                            x       y       z     vdW  Elec       q    Type
REMARK                         _______ _______ _______ _____ _____    ______ ____
ROOT
ATOM      1  C   LIG    1       25.104 -24.217   5.792  0.00  0.00    +0.158 C 
ENDROOT
BRANCH   1   2
ATOM      2  C   LIG    1       25.078 -25.700   6.110  0.00  0.00    -0.016 A 
ATOM      3  C   LIG    1       25.905 -26.249   7.109  0.00  0.00    +0.033 A 
ATOM      4  C   LIG    1       25.913 -27.632   7.385  0.00  0.00    +0.075 A 
ATOM      5  C   LIG    1       25.054 -28.463   6.649  0.00  0.00    +0.138 A 
ATOM      6  C   LIG    1       24.218 -27.929   5.667  0.00  0.00    +0.048 A 
ATOM      7  C   LIG    1       24.229 -26.561   5.405  0.00  0.00    +0.010 A 
BRANCH   4   8
ATOM      8  N   LIG    1       26.799 -28.065   8.400  0.00  0.00    -0.285 N 
ATOM      9  H   LIG    1       27.789 -28.071   8.195  0.00  0.00    +0.155 HD
ATOM     10  C   LIG    1       26.524 -28.512   9.656  0.00  0.00    +0.330 C 
ATOM     11  O   LIG    1       27.409 -28.848  10.428  0.00  0.00    -0.279 OA
ENDBRANCH   4   8
BRANCH   5  12
ATOM     12  O   LIG    1       24.997 -29.809   6.868  0.00  0.00    -0.505 OA
ATOM     13  H   LIG    1       25.403 -30.012   7.727  0.00  0.00    +0.292 HD
ENDBRANCH   5  12
ENDBRANCH   1   2
BRANCH   1  14
ATOM     14  O   LIG    1       24.851 -24.024   4.392  0.00  0.00    -0.386 OA
ATOM     15  H   LIG    1       23.880 -24.095   4.297  0.00  0.00    +0.210 HD
ENDBRANCH   1  14
BRANCH   1  16
ATOM     16  C   LIG    1       24.059 -23.408   6.598  0.00  0.00    +0.117 C 
BRANCH  16  17
ATOM     17  N   LIG    1       23.391 -22.419   5.721  0.00  0.00    -0.310 NA
ATOM     18  H   LIG    1       23.493 -22.720   4.748  0.00  0.00    +0.122 HD
BRANCH  17  19
ATOM     19  C   LIG    1       23.961 -21.056   5.839  0.00  0.00    +0.055 C 
ATOM     20  C   LIG    1       22.793 -20.066   5.708  0.00  0.00    +0.024 C 
BRANCH  19  21
ATOM     21  C   LIG    1       24.731 -20.844   7.164  0.00  0.00    +0.053 C 
BRANCH  21  25
ATOM     22  C   LIG    1       28.876 -19.773   6.620  0.00  0.00    +0.120 A 
ATOM     23  C   LIG    1       28.018 -19.844   5.524  0.00  0.00    +0.046 A 
ATOM     24  C   LIG    1       26.677 -20.190   5.702  0.00  0.00    +0.007 A 
ATOM     25  C   LIG    1       26.184 -20.484   6.978  0.00  0.00    -0.046 A 
ATOM     26  C   LIG    1       27.053 -20.430   8.073  0.00  0.00    +0.007 A 
ATOM     27  C   LIG    1       28.390 -20.076   7.893  0.00  0.00    +0.046 A 
BRANCH  22  29
ATOM     28  C   LIG    1       30.979 -19.848   7.694  0.00  0.00    +0.277 C 
ATOM     29  O   LIG    1       30.208 -19.468   6.561  0.00  0.00    -0.495 OA
ENDBRANCH  22  29
ENDBRANCH  21  25
ENDBRANCH  19  21
ENDBRANCH  17  19
ENDBRANCH  16  17
ENDBRANCH   1  16
TORSDOF 10
ENDMDL
MODEL 9
REMARK VINA RESULT:      -9.0      2.221      4.478
REMARK  Name = *****
REMARK                            x       y       z     vdW  Elec       q    Type
REMARK                         _______ _______ _______ _____ _____    ______ ____
ROOT
ATOM      1  C   LIG    1       26.668 -21.334   8.646  0.00  0.00    +0.158 C 
ENDROOT
BRANCH   1   2
ATOM      2  C   LIG    1       27.543 -20.517   7.714  0.00  0.00    -0.016 A 
ATOM      3  C   LIG    1       28.700 -19.864   8.181  0.00  0.00    +0.033 A 
ATOM      4  C   LIG    1       29.497 -19.072   7.330  0.00  0.00    +0.075 A 
ATOM      5  C   LIG    1       29.124 -18.963   5.981  0.00  0.00    +0.138 A 
ATOM      6  C   LIG    1       27.990 -19.618   5.502  0.00  0.00    +0.048 A 
ATOM      7  C   LIG    1       27.211 -20.390   6.361  0.00  0.00    +0.010 A 
BRANCH   4   8
ATOM      8  N   LIG    1       30.624 -18.453   7.920  0.00  0.00    -0.285 N 
ATOM      9  H   LIG    1       30.933 -17.569   7.539  0.00  0.00    +0.155 HD
ATOM     10  C   LIG    1       31.406 -18.879   8.950  0.00  0.00    +0.330 C 
ATOM     11  O   LIG    1       32.352 -18.221   9.355  0.00  0.00    -0.279 OA
ENDBRANCH   4   8
BRANCH   5  12
ATOM     12  O   LIG    1       29.854 -18.225   5.094  0.00  0.00    -0.505 OA
ATOM     13  H   LIG    1       29.303 -18.015   4.322  0.00  0.00    +0.292 HD
ENDBRANCH   5  12
ENDBRANCH   1   2
BRANCH   1  14
ATOM     14  O   LIG    1       25.984 -20.456   9.553  0.00  0.00    -0.386 OA
ATOM     15  H   LIG    1       25.122 -20.888   9.722  0.00  0.00    +0.210 HD
ENDBRANCH   1  14
BRANCH   1  16
ATOM     16  C   LIG    1       25.615 -22.185   7.895  0.00  0.00    +0.117 C 
BRANCH  16  17
ATOM     17  N   LIG    1       26.246 -23.401   7.333  0.00  0.00    -0.310 NA
ATOM     18  H   LIG    1       27.130 -23.138   6.889  0.00  0.00    +0.122 HD
BRANCH  17  19
ATOM     19  C   LIG    1       25.408 -24.077   6.315  0.00  0.00    +0.055 C 
ATOM     20  C   LIG    1       25.464 -25.584   6.612  0.00  0.00    +0.024 C 
BRANCH  19  21
ATOM     21  C   LIG    1       23.950 -23.560   6.305  0.00  0.00    +0.053 C 
BRANCH  21  25
ATOM     22  C   LIG    1       23.452 -19.709   4.423  0.00  0.00    +0.120 A 
ATOM     23  C   LIG    1       24.289 -20.667   3.854  0.00  0.00    +0.046 A 
ATOM     24  C   LIG    1       24.448 -21.913   4.463  0.00  0.00    +0.007 A 
ATOM     25  C   LIG    1       23.783 -22.207   5.659  0.00  0.00    -0.046 A 
ATOM     26  C   LIG    1       22.959 -21.235   6.237  0.00  0.00    +0.007 A 
ATOM     27  C   LIG    1       22.795 -19.995   5.621  0.00  0.00    +0.046 A 
BRANCH  22  29
ATOM     28  C   LIG    1       22.084 -17.783   4.416  0.00  0.00    +0.277 C 
ATOM     29  O   LIG    1       23.239 -18.452   3.926  0.00  0.00    -0.495 OA
ENDBRANCH  22  29
ENDBRANCH  21  25
ENDBRANCH  19  21
ENDBRANCH  17  19
ENDBRANCH  16  17
ENDBRANCH   1  16
TORSDOF 10
ENDMDL
