MODEL 1
REMARK VINA RESULT:      -7.6      0.000      0.000
REMARK  Name = *****
REMARK                            x       y       z     vdW  Elec       q    Type
REMARK                         _______ _______ _______ _____ _____    ______ ____
ROOT
ATOM      1  C   LIG    1       28.373 -20.468   6.605  0.00  0.00    +0.150 A 
ATOM      2  C   LIG    1       29.504 -20.583   7.443  0.00  0.00    +0.147 A 
ATOM      3  C   LIG    1       30.506 -19.642   7.268  0.00  0.00    +0.163 A 
ATOM      4  N   LIG    1       31.472 -19.968   8.175  0.00  0.00    -0.329 N 
ATOM      5  H   LIG    1       32.344 -19.476   8.299  0.00  0.00    +0.168 HD
ATOM      6  C   LIG    1       31.042 -21.075   8.854  0.00  0.00    +0.198 A 
ATOM      7  N   LIG    1       30.542 -18.626   6.396  0.00  0.00    -0.216 NA
ATOM      8  C   LIG    1       29.426 -18.611   5.645  0.00  0.00    +0.225 A 
ATOM      9  N   LIG    1       29.848 -21.468   8.449  0.00  0.00    -0.231 NA
ATOM     10  N   LIG    1       28.369 -19.449   5.701  0.00  0.00    -0.219 NA
ENDROOT
BRANCH   1  11
ATOM     11  N   LIG    1       27.293 -21.358   6.656  0.00  0.00    -0.320 N 
ATOM     12  H   LIG    1       27.607 -22.299   6.882  0.00  0.00    +0.148 HD
BRANCH  11  13
ATOM     13  C   LIG    1       26.168 -20.881   7.451  0.00  0.00    +0.177 C 
BRANCH  13  16
ATOM     14  C   LIG    1       22.856 -20.480   5.809  0.00  0.00    +0.041 A 
ATOM     15  C   LIG    1       23.573 -20.714   7.007  0.00  0.00    +0.046 A 
ATOM     16  C   LIG    1       24.912 -20.686   6.672  0.00  0.00    +0.122 A 
ATOM     17  O   LIG    1       25.051 -20.447   5.334  0.00  0.00    -0.466 OA
ATOM     18  C   LIG    1       23.800 -20.326   4.821  0.00  0.00    +0.195 A 
ENDBRANCH  13  16
ENDBRANCH  11  13
ENDBRANCH   1  11
TORSDOF 3
ENDMDL
MODEL 2
REMARK VINA RESULT:      -7.4      1.317      1.478
REMARK  Name = *****
REMARK                            x       y       z     vdW  Elec       q    Type
REMARK                         _______ _______ _______ _____ _____    ______ ____
ROOT
ATOM      1  C   LIG    1       28.346 -20.513   6.612  0.00  0.00    +0.150 A 
ATOM      2  C   LIG    1       29.499 -20.566   7.427  0.00  0.00    +0.147 A 
ATOM      3  C   LIG    1       30.464 -19.597   7.203  0.00  0.00    +0.163 A 
ATOM      4  N   LIG    1       31.460 -19.863   8.096  0.00  0.00    -0.329 N 
ATOM      5  H   LIG    1       32.316 -19.338   8.187  0.00  0.00    +0.168 HD
ATOM      6  C   LIG    1       31.083 -20.964   8.817  0.00  0.00    +0.198 A 
ATOM      7  N   LIG    1       30.445 -18.606   6.301  0.00  0.00    -0.216 NA
ATOM      8  C   LIG    1       29.313 -18.651   5.576  0.00  0.00    +0.225 A 
ATOM      9  N   LIG    1       29.894 -21.409   8.450  0.00  0.00    -0.231 NA
ATOM     10  N   LIG    1       28.288 -19.522   5.680  0.00  0.00    -0.219 NA
ENDROOT
BRANCH   1  11
ATOM     11  N   LIG    1       27.299 -21.438   6.713  0.00  0.00    -0.320 N 
ATOM     12  H   LIG    1       27.427 -22.047   7.518  0.00  0.00    +0.148 HD
BRANCH  11  13
ATOM     13  C   LIG    1       25.972 -20.846   6.600  0.00  0.00    +0.177 C 
BRANCH  13  16
ATOM     14  C   LIG    1       22.983 -23.039   6.888  0.00  0.00    +0.041 A 
ATOM     15  C   LIG    1       23.513 -21.728   6.962  0.00  0.00    +0.046 A 
ATOM     16  C   LIG    1       24.857 -21.833   6.668  0.00  0.00    +0.122 A 
ATOM     17  O   LIG    1       25.178 -23.138   6.420  0.00  0.00    -0.466 OA
ATOM     18  C   LIG    1       24.036 -23.860   6.558  0.00  0.00    +0.195 A 
ENDBRANCH  13  16
ENDBRANCH  11  13
ENDBRANCH   1  11
TORSDOF 3
ENDMDL
MODEL 3
REMARK VINA RESULT:      -7.1      3.317      4.959
REMARK  Name = *****
REMARK                            x       y       z     vdW  Elec       q    Type
REMARK                         _______ _______ _______ _____ _____    ______ ____
ROOT
ATOM      1  C   LIG    1       24.173 -21.219   5.999  0.00  0.00    +0.150 A 
ATOM      2  C   LIG    1       25.507 -20.760   5.929  0.00  0.00    +0.147 A 
ATOM      3  C   LIG    1       25.887 -20.132   4.753  0.00  0.00    +0.163 A 
ATOM      4  N   LIG    1       27.198 -19.793   4.930  0.00  0.00    -0.329 N 
ATOM      5  H   LIG    1       27.774 -19.323   4.250  0.00  0.00    +0.168 HD
ATOM      6  C   LIG    1       27.568 -20.220   6.177  0.00  0.00    +0.198 A 
ATOM      7  N   LIG    1       25.146 -19.902   3.662  0.00  0.00    -0.216 NA
ATOM      8  C   LIG    1       23.901 -20.383   3.830  0.00  0.00    +0.225 A 
ATOM      9  N   LIG    1       26.567 -20.797   6.817  0.00  0.00    -0.231 NA
ATOM     10  N   LIG    1       23.384 -21.008   4.909  0.00  0.00    -0.219 NA
ENDROOT
BRANCH   1  11
ATOM     11  N   LIG    1       23.655 -21.887   7.115  0.00  0.00    -0.320 N 
ATOM     12  H   LIG    1       23.071 -21.267   7.672  0.00  0.00    +0.148 HD
BRANCH  11  13
ATOM     13  C   LIG    1       23.056 -23.180   6.808  0.00  0.00    +0.177 C 
BRANCH  13  16
ATOM     14  C   LIG    1       25.772 -25.703   6.513  0.00  0.00    +0.041 A 
ATOM     15  C   LIG    1       25.406 -24.377   6.850  0.00  0.00    +0.046 A 
ATOM     16  C   LIG    1       24.042 -24.288   6.660  0.00  0.00    +0.122 A 
ATOM     17  O   LIG    1       23.554 -25.488   6.224  0.00  0.00    -0.466 OA
ATOM     18  C   LIG    1       24.611 -26.337   6.137  0.00  0.00    +0.195 A 
ENDBRANCH  13  16
ENDBRANCH  11  13
ENDBRANCH   1  11
TORSDOF 3
ENDMDL
MODEL 4
REMARK VINA RESULT:      -7.1      1.551      2.707
REMARK  Name = *****
REMARK                            x       y       z     vdW  Elec       q    Type
REMARK                         _______ _______ _______ _____ _____    ______ ____
ROOT
ATOM      1  C   LIG    1       29.389 -20.388   7.978  0.00  0.00    +0.150 A 
ATOM      2  C   LIG    1       30.214 -19.323   8.404  0.00  0.00    +0.147 A 
ATOM      3  C   LIG    1       31.377 -19.668   9.074  0.00  0.00    +0.163 A 
ATOM      4  N   LIG    1       31.984 -18.485   9.379  0.00  0.00    -0.329 N 
ATOM      5  H   LIG    1       32.856 -18.389   9.876  0.00  0.00    +0.168 HD
ATOM      6  C   LIG    1       31.189 -17.479   8.901  0.00  0.00    +0.198 A 
ATOM      7  N   LIG    1       31.824 -20.894   9.375  0.00  0.00    -0.216 NA
ATOM      8  C   LIG    1       30.965 -21.830   8.934  0.00  0.00    +0.225 A 
ATOM      9  N   LIG    1       30.115 -17.948   8.291  0.00  0.00    -0.231 NA
ATOM     10  N   LIG    1       29.805 -21.652   8.266  0.00  0.00    -0.219 NA
ENDROOT
BRANCH   1  11
ATOM     11  N   LIG    1       28.175 -20.190   7.307  0.00  0.00    -0.320 N 
ATOM     12  H   LIG    1       28.163 -20.691   6.422  0.00  0.00    +0.148 HD
BRANCH  11  13
ATOM     13  C   LIG    1       26.996 -20.391   8.140  0.00  0.00    +0.177 C 
BRANCH  13  16
ATOM     14  C   LIG    1       24.043 -20.831   5.924  0.00  0.00    +0.041 A 
ATOM     15  C   LIG    1       25.439 -20.618   6.023  0.00  0.00    +0.046 A 
ATOM     16  C   LIG    1       25.736 -20.595   7.371  0.00  0.00    +0.122 A 
ATOM     17  O   LIG    1       24.596 -20.781   8.101  0.00  0.00    -0.466 OA
ATOM     18  C   LIG    1       23.576 -20.921   7.215  0.00  0.00    +0.195 A 
ENDBRANCH  13  16
ENDBRANCH  11  13
ENDBRANCH   1  11
TORSDOF 3
ENDMDL
MODEL 5
REMARK VINA RESULT:      -7.1      3.461      6.392
REMARK  Name = *****
REMARK                            x       y       z     vdW  Elec       q    Type
REMARK                         _______ _______ _______ _____ _____    ______ ____
ROOT
ATOM      1  C   LIG    1       30.393 -19.399   7.191  0.00  0.00    +0.150 A 
ATOM      2  C   LIG    1       29.282 -20.269   7.259  0.00  0.00    +0.147 A 
ATOM      3  C   LIG    1       28.288 -20.082   6.311  0.00  0.00    +0.163 A 
ATOM      4  N   LIG    1       27.341 -21.025   6.588  0.00  0.00    -0.329 N 
ATOM      5  H   LIG    1       26.480 -21.152   6.080  0.00  0.00    +0.168 HD
ATOM      6  C   LIG    1       27.775 -21.736   7.675  0.00  0.00    +0.198 A 
ATOM      7  N   LIG    1       28.244 -19.173   5.328  0.00  0.00    -0.216 NA
ATOM      8  C   LIG    1       29.340 -18.395   5.357  0.00  0.00    +0.225 A 
ATOM      9  N   LIG    1       28.953 -21.316   8.100  0.00  0.00    -0.231 NA
ATOM     10  N   LIG    1       30.387 -18.456   6.207  0.00  0.00    -0.219 NA
ENDROOT
BRANCH   1  11
ATOM     11  N   LIG    1       31.462 -19.457   8.093  0.00  0.00    -0.320 N 
ATOM     12  H   LIG    1       32.310 -19.077   7.678  0.00  0.00    +0.148 HD
BRANCH  11  13
ATOM     13  C   LIG    1       31.148 -18.943   9.420  0.00  0.00    +0.177 C 
BRANCH  13  16
ATOM     14  C   LIG    1       32.956 -15.742   9.977  0.00  0.00    +0.041 A 
ATOM     15  C   LIG    1       32.221 -16.558   9.082  0.00  0.00    +0.046 A 
ATOM     16  C   LIG    1       31.885 -17.699   9.782  0.00  0.00    +0.122 A 
ATOM     17  O   LIG    1       32.376 -17.625  11.055  0.00  0.00    -0.466 OA
ATOM     18  C   LIG    1       33.024 -16.437  11.162  0.00  0.00    +0.195 A 
ENDBRANCH  13  16
ENDBRANCH  11  13
ENDBRANCH   1  11
TORSDOF 3
ENDMDL
MODEL 6
REMARK VINA RESULT:      -7.1      3.448      6.352
REMARK  Name = *****
REMARK                            x       y       z     vdW  Elec       q    Type
REMARK                         _______ _______ _______ _____ _____    ______ ____
ROOT
ATOM      1  C   LIG    1       25.473 -22.992   6.767  0.00  0.00    +0.150 A 
ATOM      2  C   LIG    1       25.340 -24.352   6.411  0.00  0.00    +0.147 A 
ATOM      3  C   LIG    1       24.053 -24.865   6.386  0.00  0.00    +0.163 A 
ATOM      4  N   LIG    1       24.191 -26.174   6.026  0.00  0.00    -0.329 N 
ATOM      5  H   LIG    1       23.435 -26.832   5.922  0.00  0.00    +0.168 HD
ATOM      6  C   LIG    1       25.527 -26.414   5.852  0.00  0.00    +0.198 A 
ATOM      7  N   LIG    1       22.906 -24.231   6.660  0.00  0.00    -0.216 NA
ATOM      8  C   LIG    1       23.144 -22.950   6.993  0.00  0.00    +0.225 A 
ATOM      9  N   LIG    1       26.254 -25.331   6.062  0.00  0.00    -0.231 NA
ATOM     10  N   LIG    1       24.331 -22.309   7.057  0.00  0.00    -0.219 NA
ENDROOT
BRANCH   1  11
ATOM     11  N   LIG    1       26.712 -22.344   6.853  0.00  0.00    -0.320 N 
ATOM     12  H   LIG    1       27.261 -22.496   6.010  0.00  0.00    +0.148 HD
BRANCH  11  13
ATOM     13  C   LIG    1       26.627 -20.955   7.284  0.00  0.00    +0.177 C 
BRANCH  13  16
ATOM     14  C   LIG    1       29.744 -19.080   6.510  0.00  0.00    +0.041 A 
ATOM     15  C   LIG    1       28.580 -19.717   6.015  0.00  0.00    +0.046 A 
ATOM     16  C   LIG    1       27.894 -20.187   7.117  0.00  0.00    +0.122 A 
ATOM     17  O   LIG    1       28.577 -19.873   8.258  0.00  0.00    -0.466 OA
ATOM     18  C   LIG    1       29.696 -19.205   7.879  0.00  0.00    +0.195 A 
ENDBRANCH  13  16
ENDBRANCH  11  13
ENDBRANCH   1  11
TORSDOF 3
ENDMDL
MODEL 7
REMARK VINA RESULT:      -6.9      0.626      2.293
REMARK  Name = *****
REMARK                            x       y       z     vdW  Elec       q    Type
REMARK                         _______ _______ _______ _____ _____    ______ ____
ROOT
ATOM      1  C   LIG    1       28.684 -21.199   7.678  0.00  0.00    +0.150 A 
ATOM      2  C   LIG    1       29.075 -20.138   6.831  0.00  0.00    +0.147 A 
ATOM      3  C   LIG    1       30.347 -19.625   7.026  0.00  0.00    +0.163 A 
ATOM      4  N   LIG    1       30.480 -18.625   6.106  0.00  0.00    -0.329 N 
ATOM      5  H   LIG    1       31.296 -18.045   5.990  0.00  0.00    +0.168 HD
ATOM      6  C   LIG    1       29.309 -18.559   5.400  0.00  0.00    +0.198 A 
ATOM      7  N   LIG    1       31.264 -20.007   7.923  0.00  0.00    -0.216 NA
ATOM      8  C   LIG    1       30.791 -21.014   8.680  0.00  0.00    +0.225 A 
ATOM      9  N   LIG    1       28.440 -19.468   5.801  0.00  0.00    -0.231 NA
ATOM     10  N   LIG    1       29.586 -21.619   8.608  0.00  0.00    -0.219 NA
ENDROOT
BRANCH   1  11
ATOM     11  N   LIG    1       27.422 -21.803   7.609  0.00  0.00    -0.320 N 
ATOM     12  H   LIG    1       27.461 -22.767   7.933  0.00  0.00    +0.148 HD
BRANCH  11  13
ATOM     13  C   LIG    1       26.350 -21.006   8.191  0.00  0.00    +0.177 C 
BRANCH  13  16
ATOM     14  C   LIG    1       23.209 -20.609   6.240  0.00  0.00    +0.041 A 
ATOM     15  C   LIG    1       23.810 -20.807   7.507  0.00  0.00    +0.046 A 
ATOM     16  C   LIG    1       25.174 -20.819   7.294  0.00  0.00    +0.122 A 
ATOM     17  O   LIG    1       25.439 -20.640   5.965  0.00  0.00    -0.466 OA
ATOM     18  C   LIG    1       24.242 -20.516   5.336  0.00  0.00    +0.195 A 
ENDBRANCH  13  16
ENDBRANCH  11  13
ENDBRANCH   1  11
TORSDOF 3
ENDMDL
MODEL 8
REMARK VINA RESULT:      -6.9      2.936      6.291
REMARK  Name = *****
REMARK                            x       y       z     vdW  Elec       q    Type
REMARK                         _______ _______ _______ _____ _____    ______ ____
ROOT
ATOM      1  C   LIG    1       25.706 -21.835   6.706  0.00  0.00    +0.150 A 
ATOM      2  C   LIG    1       25.058 -23.080   6.545  0.00  0.00    +0.147 A 
ATOM      3  C   LIG    1       23.682 -23.090   6.710  0.00  0.00    +0.163 A 
ATOM      4  N   LIG    1       23.303 -24.386   6.513  0.00  0.00    -0.329 N 
ATOM      5  H   LIG    1       22.357 -24.730   6.569  0.00  0.00    +0.168 HD
ATOM      6  C   LIG    1       24.434 -25.109   6.247  0.00  0.00    +0.198 A 
ATOM      7  N   LIG    1       22.878 -22.061   7.005  0.00  0.00    -0.216 NA
ATOM      8  C   LIG    1       23.593 -20.929   7.143  0.00  0.00    +0.225 A 
ATOM      9  N   LIG    1       25.515 -24.350   6.243  0.00  0.00    -0.231 NA
ATOM     10  N   LIG    1       24.926 -20.761   7.010  0.00  0.00    -0.219 NA
ENDROOT
BRANCH   1  11
ATOM     11  N   LIG    1       27.093 -21.677   6.588  0.00  0.00    -0.320 N 
ATOM     12  H   LIG    1       27.327 -21.099   5.784  0.00  0.00    +0.148 HD
BRANCH  11  13
ATOM     13  C   LIG    1       27.755 -21.295   7.829  0.00  0.00    +0.177 C 
BRANCH  13  16
ATOM     14  C   LIG    1       30.822 -19.356   7.018  0.00  0.00    +0.041 A 
ATOM     15  C   LIG    1       29.508 -19.724   6.639  0.00  0.00    +0.046 A 
ATOM     16  C   LIG    1       29.035 -20.557   7.633  0.00  0.00    +0.122 A 
ATOM     17  O   LIG    1       29.989 -20.718   8.598  0.00  0.00    -0.466 OA
ATOM     18  C   LIG    1       31.068 -19.988   8.215  0.00  0.00    +0.195 A 
ENDBRANCH  13  16
ENDBRANCH  11  13
ENDBRANCH   1  11
TORSDOF 3
ENDMDL
MODEL 9
REMARK VINA RESULT:      -6.9      2.692      6.145
REMARK  Name = *****
REMARK                            x       y       z     vdW  Elec       q    Type
REMARK                         _______ _______ _______ _____ _____    ______ ____
ROOT
ATOM      1  C   LIG    1       25.324 -20.853   7.327  0.00  0.00    +0.150 A 
ATOM      2  C   LIG    1       25.126 -20.652   5.943  0.00  0.00    +0.147 A 
ATOM      3  C   LIG    1       23.951 -21.154   5.405  0.00  0.00    +0.163 A 
ATOM      4  N   LIG    1       23.999 -20.843   4.077  0.00  0.00    -0.329 N 
ATOM      5  H   LIG    1       23.290 -21.076   3.399  0.00  0.00    +0.168 HD
ATOM      6  C   LIG    1       25.175 -20.180   3.852  0.00  0.00    +0.198 A 
ATOM      7  N   LIG    1       22.970 -21.814   6.034  0.00  0.00    -0.216 NA
ATOM      8  C   LIG    1       23.261 -21.957   7.339  0.00  0.00    +0.225 A 
ATOM      9  N   LIG    1       25.878 -20.033   4.960  0.00  0.00    -0.231 NA
ATOM     10  N   LIG    1       24.351 -21.522   8.006  0.00  0.00    -0.219 NA
ENDROOT
BRANCH   1  11
ATOM     11  N   LIG    1       26.471 -20.417   8.003  0.00  0.00    -0.320 N 
ATOM     12  H   LIG    1       26.257 -20.184   8.970  0.00  0.00    +0.148 HD
BRANCH  11  13
ATOM     13  C   LIG    1       27.630 -21.282   7.824  0.00  0.00    +0.177 C 
BRANCH  13  16
ATOM     14  C   LIG    1       30.655 -19.364   6.825  0.00  0.00    +0.041 A 
ATOM     15  C   LIG    1       29.322 -19.734   6.522  0.00  0.00    +0.046 A 
ATOM     16  C   LIG    1       28.900 -20.551   7.551  0.00  0.00    +0.122 A 
ATOM     17  O   LIG    1       29.903 -20.700   8.467  0.00  0.00    -0.466 OA
ATOM     18  C   LIG    1       30.962 -19.979   8.017  0.00  0.00    +0.195 A 
ENDBRANCH  13  16
ENDBRANCH  11  13
ENDBRANCH   1  11
TORSDOF 3
ENDMDL
