MODEL 1
REMARK VINA RESULT:      -2.2      0.000      0.000
REMARK  Name = *****
REMARK                            x       y       z     vdW  Elec       q    Type
REMARK                         _______ _______ _______ _____ _____    ______ ____
ROOT
ATOM      1  C   LIG    1       24.083 -17.862   3.689  0.00  0.00    +0.120 A 
ATOM      2  C   LIG    1       25.103 -16.931   3.476  0.00  0.00    +0.050 A 
ATOM      3  C   LIG    1       24.958 -15.576   3.856  0.00  0.00    -0.034 A 
ATOM      4  C   LIG    1       26.114 -14.569   3.617  0.00  0.00    +0.002 C 
ATOM      5  C   LIG    1       26.103 -14.180   2.109  0.00  0.00    +0.027 C 
ATOM      6  C   LIG    1       25.331 -12.876   1.812  0.00  0.00    +0.085 C 
ATOM      7  N   LIG    1       24.174 -12.671   2.683  0.00  0.00    -0.302 NA
ATOM      8  C   LIG    1       23.454 -11.447   2.344  0.00  0.00    +0.105 C 
ATOM      9  C   LIG    1       24.472 -12.756   4.138  0.00  0.00    +0.065 C 
ATOM     10  C   LIG    1       23.465 -13.724   4.781  0.00  0.00    +0.054 C 
ATOM     11  C   LIG    1       25.905 -13.247   4.403  0.00  0.00    +0.017 C 
ATOM     12  C   LIG    1       26.306 -13.393   5.875  0.00  0.00    +0.006 C 
ATOM     13  C   LIG    1       27.810 -13.667   5.997  0.00  0.00    +0.000 C 
ATOM     14  C   LIG    1       28.427 -14.258   4.726  0.00  0.00    +0.001 C 
ATOM     15  C   LIG    1       27.470 -15.227   4.035  0.00  0.00    +0.012 C 
ATOM     16  C   LIG    1       23.728 -15.165   4.410  0.00  0.00    -0.042 A 
ATOM     17  C   LIG    1       22.712 -16.107   4.632  0.00  0.00    +0.007 A 
ATOM     18  C   LIG    1       22.893 -17.442   4.277  0.00  0.00    +0.046 A 
ENDROOT
BRANCH   1  20
ATOM     19  C   LIG    1       25.104 -19.981   4.034  0.00  0.00    +0.277 C 
ATOM     20  O   LIG    1       24.126 -19.192   3.371  0.00  0.00    -0.495 OA
ENDBRANCH   1  20
TORSDOF 1
ENDMDL
MODEL 2
REMARK VINA RESULT:      -1.0      1.506      3.699
REMARK  Name = *****
REMARK                            x       y       z     vdW  Elec       q    Type
REMARK                         _______ _______ _______ _____ _____    ______ ____
ROOT
ATOM      1  C   LIG    1       23.280 -17.052   4.377  0.00  0.00    +0.120 A 
ATOM      2  C   LIG    1       23.475 -15.678   4.538  0.00  0.00    +0.050 A 
ATOM      3  C   LIG    1       24.603 -15.023   3.991  0.00  0.00    -0.034 A 
ATOM      4  C   LIG    1       24.784 -13.493   4.178  0.00  0.00    +0.002 C 
ATOM      5  C   LIG    1       25.303 -13.247   5.625  0.00  0.00    +0.027 C 
ATOM      6  C   LIG    1       26.840 -13.119   5.719  0.00  0.00    +0.085 C 
ATOM      7  N   LIG    1       27.556 -13.963   4.761  0.00  0.00    -0.302 NA
ATOM      8  C   LIG    1       29.002 -13.838   4.909  0.00  0.00    +0.105 C 
ATOM      9  C   LIG    1       27.124 -13.798   3.347  0.00  0.00    +0.065 C 
ATOM     10  C   LIG    1       26.835 -15.192   2.765  0.00  0.00    +0.054 C 
ATOM     11  C   LIG    1       25.869 -12.916   3.229  0.00  0.00    +0.017 C 
ATOM     12  C   LIG    1       25.327 -12.702   1.812  0.00  0.00    +0.006 C 
ATOM     13  C   LIG    1       24.226 -11.635   1.813  0.00  0.00    +0.000 C 
ATOM     14  C   LIG    1       23.561 -11.447   3.181  0.00  0.00    +0.001 C 
ATOM     15  C   LIG    1       23.419 -12.774   3.923  0.00  0.00    +0.012 C 
ATOM     16  C   LIG    1       25.568 -15.801   3.320  0.00  0.00    -0.042 A 
ATOM     17  C   LIG    1       25.361 -17.178   3.151  0.00  0.00    +0.007 A 
ATOM     18  C   LIG    1       24.225 -17.793   3.673  0.00  0.00    +0.046 A 
ENDROOT
BRANCH   1  20
ATOM     19  C   LIG    1       22.350 -19.194   4.826  0.00  0.00    +0.277 C 
ATOM     20  O   LIG    1       22.223 -17.779   4.852  0.00  0.00    -0.495 OA
ENDBRANCH   1  20
TORSDOF 1
ENDMDL
