MODEL 1
REMARK VINA RESULT:      -5.7      0.000      0.000
REMARK  Name = *****
REMARK                            x       y       z     vdW  Elec       q    Type
REMARK                         _______ _______ _______ _____ _____    ______ ____
ROOT
ATOM      1  N   LIG    1       22.588 -18.102   4.742  0.00  0.00    -0.312 NA
ATOM      2  H   LIG    1       23.407 -18.424   5.254  0.00  0.00    +0.122 HD
ENDROOT
BRANCH   1   3
ATOM      3  C   LIG    1       22.726 -18.455   3.320  0.00  0.00    +0.086 C 
BRANCH   3   4
ATOM      4  C   LIG    1       23.463 -19.783   3.125  0.00  0.00    +0.052 C 
BRANCH   4   7
ATOM      5  C   LIG    1       21.725 -21.546   5.217  0.00  0.00    +0.063 C 
ATOM      6  C   LIG    1       23.145 -21.120   5.305  0.00  0.00    +0.017 C 
ATOM      7  C   LIG    1       23.919 -20.366   4.434  0.00  0.00    -0.018 C 
ATOM      8  C   LIG    1       25.224 -20.251   5.024  0.00  0.00    +0.003 C 
ATOM      9  C   LIG    1       25.202 -20.961   6.224  0.00  0.00    +0.047 C 
ATOM     10  C   LIG    1       26.318 -21.082   7.062  0.00  0.00    +0.026 C 
ATOM     11  C   LIG    1       27.500 -20.454   6.662  0.00  0.00    +0.002 C 
ATOM     12  C   LIG    1       27.556 -19.729   5.475  0.00  0.00    +0.001 C 
ATOM     13  C   LIG    1       26.428 -19.617   4.649  0.00  0.00    +0.010 C 
ATOM     14  N   LIG    1       23.934 -21.471   6.371  0.00  0.00    -0.358 NA
ATOM     15  H   LIG    1       23.636 -22.029   7.156  0.00  0.00    +0.166 HD
ENDBRANCH   4   7
ENDBRANCH   3   4
ENDBRANCH   1   3
BRANCH   1  16
ATOM     16  C   LIG    1       22.465 -16.647   4.917  0.00  0.00    +0.116 C 
BRANCH  16  17
ATOM     17  C   LIG    1       23.612 -15.870   4.311  0.00  0.00    -0.034 C 
ATOM     18  C   LIG    1       23.472 -14.503   4.030  0.00  0.00    +0.005 C 
ATOM     19  C   LIG    1       24.519 -13.790   3.439  0.00  0.00    +0.008 C 
ATOM     20  C   LIG    1       25.716 -14.438   3.122  0.00  0.00    -0.025 C 
ATOM     21  C   LIG    1       25.852 -15.804   3.382  0.00  0.00    +0.008 C 
ATOM     22  C   LIG    1       24.812 -16.514   3.976  0.00  0.00    +0.005 C 
BRANCH  20  23
ATOM     23  C   LIG    1       26.810 -13.721   2.475  0.00  0.00    +0.013 C 
ATOM     24  C   LIG    1       27.834 -13.096   3.076  0.00  0.00    +0.070 C 
BRANCH  24  25
ATOM     25  C   LIG    1       28.086 -12.991   4.539  0.00  0.00    +0.259 C 
ATOM     26  N   LIG    1       28.982 -11.990   4.828  0.00  0.00    -0.194 N 
ATOM     27  H   LIG    1       29.422 -11.379   4.151  0.00  0.00    +0.182 HD
ATOM     28  O   LIG    1       27.596 -13.710   5.391  0.00  0.00    -0.269 OA
BRANCH  26  29
ATOM     29  O   LIG    1       29.346 -11.814   6.179  0.00  0.00    -0.295 OA
ATOM     30  H   LIG    1       29.707 -12.695   6.417  0.00  0.00    +0.241 HD
ENDBRANCH  26  29
ENDBRANCH  24  25
ENDBRANCH  20  23
ENDBRANCH  16  17
ENDBRANCH   1  16
TORSDOF 8
ENDMDL
MODEL 2
REMARK VINA RESULT:      -4.5      1.040      1.672
REMARK  Name = *****
REMARK                            x       y       z     vdW  Elec       q    Type
REMARK                         _______ _______ _______ _____ _____    ______ ____
ROOT
ATOM      1  N   LIG    1       22.377 -18.437   4.245  0.00  0.00    -0.312 NA
ATOM      2  H   LIG    1       21.741 -18.357   3.454  0.00  0.00    +0.122 HD
ENDROOT
BRANCH   1   3
ATOM      3  C   LIG    1       21.868 -19.447   5.187  0.00  0.00    +0.086 C 
BRANCH   3   4
ATOM      4  C   LIG    1       22.727 -20.714   5.192  0.00  0.00    +0.052 C 
BRANCH   4   7
ATOM      5  C   LIG    1       23.507 -20.320   2.071  0.00  0.00    +0.063 C 
ATOM      6  C   LIG    1       24.388 -20.299   3.267  0.00  0.00    +0.017 C 
ATOM      7  C   LIG    1       24.092 -20.466   4.611  0.00  0.00    -0.018 C 
ATOM      8  C   LIG    1       25.331 -20.359   5.331  0.00  0.00    +0.003 C 
ATOM      9  C   LIG    1       26.335 -20.107   4.396  0.00  0.00    +0.047 C 
ATOM     10  C   LIG    1       27.678 -19.924   4.747  0.00  0.00    +0.026 C 
ATOM     11  C   LIG    1       28.011 -20.002   6.101  0.00  0.00    +0.002 C 
ATOM     12  C   LIG    1       27.037 -20.262   7.062  0.00  0.00    +0.001 C 
ATOM     13  C   LIG    1       25.696 -20.444   6.692  0.00  0.00    +0.010 C 
ATOM     14  N   LIG    1       25.739 -20.081   3.159  0.00  0.00    -0.358 NA
ATOM     15  H   LIG    1       26.234 -19.919   2.295  0.00  0.00    +0.166 HD
ENDBRANCH   4   7
ENDBRANCH   3   4
ENDBRANCH   1   3
BRANCH   1  16
ATOM     16  C   LIG    1       22.493 -17.121   4.892  0.00  0.00    +0.116 C 
BRANCH  16  17
ATOM     17  C   LIG    1       23.577 -16.251   4.296  0.00  0.00    -0.034 C 
ATOM     18  C   LIG    1       23.398 -14.864   4.198  0.00  0.00    +0.005 C 
ATOM     19  C   LIG    1       24.384 -14.061   3.616  0.00  0.00    +0.008 C 
ATOM     20  C   LIG    1       25.558 -14.640   3.125  0.00  0.00    -0.025 C 
ATOM     21  C   LIG    1       25.731 -16.024   3.203  0.00  0.00    +0.008 C 
ATOM     22  C   LIG    1       24.752 -16.824   3.788  0.00  0.00    +0.005 C 
BRANCH  20  23
ATOM     23  C   LIG    1       26.586 -13.826   2.485  0.00  0.00    +0.013 C 
ATOM     24  C   LIG    1       27.539 -13.101   3.092  0.00  0.00    +0.070 C 
BRANCH  24  25
ATOM     25  C   LIG    1       27.762 -12.963   4.558  0.00  0.00    +0.259 C 
ATOM     26  N   LIG    1       28.823 -12.134   4.831  0.00  0.00    -0.194 N 
ATOM     27  H   LIG    1       29.391 -11.657   4.143  0.00  0.00    +0.182 HD
ATOM     28  O   LIG    1       27.118 -13.527   5.424  0.00  0.00    -0.269 OA
BRANCH  26  29
ATOM     29  O   LIG    1       29.173 -11.953   6.186  0.00  0.00    -0.295 OA
ATOM     30  H   LIG    1       28.379 -11.504   6.550  0.00  0.00    +0.241 HD
ENDBRANCH  26  29
ENDBRANCH  24  25
ENDBRANCH  20  23
ENDBRANCH  16  17
ENDBRANCH   1  16
TORSDOF 8
ENDMDL
MODEL 3
REMARK VINA RESULT:      -4.2      2.756      7.797
REMARK  Name = *****
REMARK                            x       y       z     vdW  Elec       q    Type
REMARK                         _______ _______ _______ _____ _____    ______ ____
ROOT
ATOM      1  N   LIG    1       28.976 -18.134   4.568  0.00  0.00    -0.312 NA
ATOM      2  H   LIG    1       29.962 -17.894   4.490  0.00  0.00    +0.122 HD
ENDROOT
BRANCH   1   3
ATOM      3  C   LIG    1       28.189 -16.913   4.805  0.00  0.00    +0.086 C 
BRANCH   3   4
ATOM      4  C   LIG    1       27.709 -16.275   3.499  0.00  0.00    +0.052 C 
BRANCH   4   7
ATOM      5  C   LIG    1       29.157 -13.377   3.594  0.00  0.00    +0.063 C 
ATOM      6  C   LIG    1       27.719 -13.712   3.765  0.00  0.00    +0.017 C 
ATOM      7  C   LIG    1       27.067 -14.936   3.734  0.00  0.00    -0.018 C 
ATOM      8  C   LIG    1       25.674 -14.675   3.970  0.00  0.00    +0.003 C 
ATOM      9  C   LIG    1       25.527 -13.296   4.115  0.00  0.00    +0.047 C 
ATOM     10  C   LIG    1       24.291 -12.677   4.339  0.00  0.00    +0.026 C 
ATOM     11  C   LIG    1       23.162 -13.495   4.421  0.00  0.00    +0.002 C 
ATOM     12  C   LIG    1       23.271 -14.877   4.292  0.00  0.00    +0.001 C 
ATOM     13  C   LIG    1       24.518 -15.480   4.069  0.00  0.00    +0.010 C 
ATOM     14  N   LIG    1       26.778 -12.741   3.991  0.00  0.00    -0.358 NA
ATOM     15  H   LIG    1       26.967 -11.751   4.055  0.00  0.00    +0.166 HD
ENDBRANCH   4   7
ENDBRANCH   3   4
ENDBRANCH   1   3
BRANCH   1  16
ATOM     16  C   LIG    1       28.810 -19.093   5.671  0.00  0.00    +0.116 C 
BRANCH  16  17
ATOM     17  C   LIG    1       27.431 -19.710   5.728  0.00  0.00    -0.034 C 
ATOM     18  C   LIG    1       26.959 -20.283   6.917  0.00  0.00    +0.005 C 
ATOM     19  C   LIG    1       25.698 -20.884   6.964  0.00  0.00    +0.008 C 
ATOM     20  C   LIG    1       24.897 -20.920   5.819  0.00  0.00    -0.025 C 
ATOM     21  C   LIG    1       25.371 -20.369   4.626  0.00  0.00    +0.008 C 
ATOM     22  C   LIG    1       26.626 -19.764   4.580  0.00  0.00    +0.005 C 
BRANCH  20  23
ATOM     23  C   LIG    1       23.591 -21.571   5.836  0.00  0.00    +0.013 C 
ATOM     24  C   LIG    1       22.408 -21.020   5.525  0.00  0.00    +0.070 C 
BRANCH  24  25
ATOM     25  C   LIG    1       22.159 -19.617   5.093  0.00  0.00    +0.259 C 
ATOM     26  N   LIG    1       21.320 -19.563   4.006  0.00  0.00    -0.194 N 
ATOM     27  H   LIG    1       20.901 -20.361   3.545  0.00  0.00    +0.182 HD
ATOM     28  O   LIG    1       22.651 -18.626   5.604  0.00  0.00    -0.269 OA
BRANCH  26  29
ATOM     29  O   LIG    1       21.039 -18.291   3.465  0.00  0.00    -0.295 OA
ATOM     30  H   LIG    1       21.858 -17.790   3.669  0.00  0.00    +0.241 HD
ENDBRANCH  26  29
ENDBRANCH  24  25
ENDBRANCH  20  23
ENDBRANCH  16  17
ENDBRANCH   1  16
TORSDOF 8
ENDMDL
