MODEL 1
REMARK VINA RESULT:      -6.8      0.000      0.000
REMARK  Name = *****
REMARK                            x       y       z     vdW  Elec       q    Type
REMARK                         _______ _______ _______ _____ _____    ______ ____
ROOT
ATOM      1  C   LIG    1       30.128 -19.775   8.027  0.00  0.00    +0.186 A 
ATOM      2  C   LIG    1       31.128 -20.319   8.818  0.00  0.00    +0.171 A 
ATOM      3  N   LIG    1       32.071 -19.345   9.157  0.00  0.00    -0.229 NA
ATOM      4  C   LIG    1       31.661 -18.250   8.561  0.00  0.00    +0.199 A 
ATOM      5  N   LIG    1       30.509 -18.462   7.866  0.00  0.00    -0.328 N 
ATOM      6  H   LIG    1       29.992 -17.787   7.322  0.00  0.00    +0.168 HD
ENDROOT
BRANCH   2   7
ATOM      7  C   LIG    1       31.233 -21.703   9.268  0.00  0.00    +0.264 C 
ATOM      8  O   LIG    1       30.690 -22.160  10.269  0.00  0.00    -0.269 OA
ATOM      9  N   LIG    1       32.014 -22.491   8.472  0.00  0.00    -0.324 N 
ATOM     10  H   LIG    1       32.151 -23.459   8.723  0.00  0.00    +0.145 HD
ATOM     11  H   LIG    1       32.472 -22.090   7.663  0.00  0.00    +0.145 HD
ENDBRANCH   2   7
BRANCH   1  13
ATOM     12  N   LIG    1       27.955 -20.121   8.111  0.00  0.00    -0.077 NA
ATOM     13  N   LIG    1       29.006 -20.281   7.458  0.00  0.00    -0.113 NA
BRANCH  12  15
ATOM     14  C   LIG    1       25.575 -20.704   8.228  0.00  0.00    +0.153 C 
ATOM     15  N   LIG    1       26.837 -20.633   7.500  0.00  0.00    -0.243 N 
ATOM     16  C   LIG    1       26.762 -20.346   6.079  0.00  0.00    +0.153 C 
ENDBRANCH  12  15
ENDBRANCH   1  13
TORSDOF 3
ENDMDL
MODEL 2
REMARK VINA RESULT:      -6.4      1.644      2.846
REMARK  Name = *****
REMARK                            x       y       z     vdW  Elec       q    Type
REMARK                         _______ _______ _______ _____ _____    ______ ____
ROOT
ATOM      1  C   LIG    1       30.028 -20.599   8.149  0.00  0.00    +0.186 A 
ATOM      2  C   LIG    1       31.065 -19.832   8.657  0.00  0.00    +0.171 A 
ATOM      3  N   LIG    1       32.044 -20.648   9.230  0.00  0.00    -0.229 NA
ATOM      4  C   LIG    1       31.591 -21.873   9.093  0.00  0.00    +0.199 A 
ATOM      5  N   LIG    1       30.384 -21.891   8.462  0.00  0.00    -0.328 N 
ATOM      6  H   LIG    1       29.826 -22.700   8.237  0.00  0.00    +0.168 HD
ENDROOT
BRANCH   2   7
ATOM      7  C   LIG    1       31.176 -18.378   8.624  0.00  0.00    +0.264 C 
ATOM      8  O   LIG    1       32.109 -17.756   8.126  0.00  0.00    -0.269 OA
ATOM      9  N   LIG    1       30.132 -17.725   9.214  0.00  0.00    -0.324 N 
ATOM     10  H   LIG    1       30.141 -16.716   9.247  0.00  0.00    +0.145 HD
ATOM     11  H   LIG    1       29.382 -18.256   9.638  0.00  0.00    +0.145 HD
ENDBRANCH   2   7
BRANCH   1  13
ATOM     12  N   LIG    1       27.827 -20.649   8.082  0.00  0.00    -0.077 NA
ATOM     13  N   LIG    1       28.875 -20.300   7.501  0.00  0.00    -0.113 NA
BRANCH  12  15
ATOM     14  C   LIG    1       26.664 -20.326   5.947  0.00  0.00    +0.153 C 
ATOM     15  N   LIG    1       26.679 -20.319   7.406  0.00  0.00    -0.243 N 
ATOM     16  C   LIG    1       25.461 -20.734   8.078  0.00  0.00    +0.153 C 
ENDBRANCH  12  15
ENDBRANCH   1  13
TORSDOF 3
ENDMDL
MODEL 3
REMARK VINA RESULT:      -6.3      1.379      1.588
REMARK  Name = *****
REMARK                            x       y       z     vdW  Elec       q    Type
REMARK                         _______ _______ _______ _____ _____    ______ ____
ROOT
ATOM      1  C   LIG    1       29.356 -20.498   7.857  0.00  0.00    +0.186 A 
ATOM      2  C   LIG    1       30.672 -20.771   8.192  0.00  0.00    +0.171 A 
ATOM      3  N   LIG    1       31.539 -19.885   7.546  0.00  0.00    -0.229 NA
ATOM      4  C   LIG    1       30.761 -19.116   6.820  0.00  0.00    +0.199 A 
ATOM      5  N   LIG    1       29.449 -19.453   6.966  0.00  0.00    -0.328 N 
ATOM      6  H   LIG    1       28.655 -19.020   6.518  0.00  0.00    +0.168 HD
ENDROOT
BRANCH   2   7
ATOM      7  C   LIG    1       31.149 -21.819   9.088  0.00  0.00    +0.264 C 
ATOM      8  O   LIG    1       30.805 -21.953  10.258  0.00  0.00    -0.269 OA
ATOM      9  N   LIG    1       32.046 -22.676   8.518  0.00  0.00    -0.324 N 
ATOM     10  H   LIG    1       32.436 -23.421   9.076  0.00  0.00    +0.145 HD
ATOM     11  H   LIG    1       32.334 -22.536   7.557  0.00  0.00    +0.145 HD
ENDBRANCH   2   7
BRANCH   1  13
ATOM     12  N   LIG    1       27.607 -21.730   7.333  0.00  0.00    -0.077 NA
ATOM     13  N   LIG    1       28.167 -21.045   8.213  0.00  0.00    -0.113 NA
BRANCH  12  15
ATOM     14  C   LIG    1       25.314 -21.415   8.145  0.00  0.00    +0.153 C 
ATOM     15  N   LIG    1       26.414 -22.279   7.732  0.00  0.00    -0.243 N 
ATOM     16  C   LIG    1       26.063 -23.498   7.025  0.00  0.00    +0.153 C 
ENDBRANCH  12  15
ENDBRANCH   1  13
TORSDOF 3
ENDMDL
MODEL 4
REMARK VINA RESULT:      -6.0      3.037      4.637
REMARK  Name = *****
REMARK                            x       y       z     vdW  Elec       q    Type
REMARK                         _______ _______ _______ _____ _____    ______ ____
ROOT
ATOM      1  C   LIG    1       26.773 -20.341   6.129  0.00  0.00    +0.186 A 
ATOM      2  C   LIG    1       26.968 -20.652   7.465  0.00  0.00    +0.171 A 
ATOM      3  N   LIG    1       28.329 -20.819   7.736  0.00  0.00    -0.229 NA
ATOM      4  C   LIG    1       28.932 -20.638   6.584  0.00  0.00    +0.199 A 
ATOM      5  N   LIG    1       28.040 -20.360   5.593  0.00  0.00    -0.328 N 
ATOM      6  H   LIG    1       28.245 -20.183   4.620  0.00  0.00    +0.168 HD
ENDROOT
BRANCH   2   7
ATOM      7  C   LIG    1       25.941 -20.796   8.491  0.00  0.00    +0.264 C 
ATOM      8  O   LIG    1       26.018 -20.349   9.630  0.00  0.00    -0.269 OA
ATOM      9  N   LIG    1       24.841 -21.496   8.085  0.00  0.00    -0.324 N 
ATOM     10  H   LIG    1       24.090 -21.654   8.740  0.00  0.00    +0.145 HD
ATOM     11  H   LIG    1       24.806 -21.876   7.147  0.00  0.00    +0.145 HD
ENDBRANCH   2   7
BRANCH   1  13
ATOM     12  N   LIG    1       24.910 -21.047   5.189  0.00  0.00    -0.077 NA
ATOM     13  N   LIG    1       25.672 -20.078   5.381  0.00  0.00    -0.113 NA
BRANCH  12  15
ATOM     14  C   LIG    1       22.468 -20.890   5.017  0.00  0.00    +0.153 C 
ATOM     15  N   LIG    1       23.800 -20.742   4.441  0.00  0.00    -0.243 N 
ATOM     16  C   LIG    1       23.999 -19.639   3.518  0.00  0.00    +0.153 C 
ENDBRANCH  12  15
ENDBRANCH   1  13
TORSDOF 3
ENDMDL
MODEL 5
REMARK VINA RESULT:      -6.0      5.492      6.594
REMARK  Name = *****
REMARK                            x       y       z     vdW  Elec       q    Type
REMARK                         _______ _______ _______ _____ _____    ______ ____
ROOT
ATOM      1  C   LIG    1       24.913 -22.517   5.481  0.00  0.00    +0.186 A 
ATOM      2  C   LIG    1       25.162 -22.835   6.806  0.00  0.00    +0.171 A 
ATOM      3  N   LIG    1       25.335 -24.214   6.957  0.00  0.00    -0.229 NA
ATOM      4  C   LIG    1       25.168 -24.712   5.753  0.00  0.00    +0.199 A 
ATOM      5  N   LIG    1       24.904 -23.735   4.841  0.00  0.00    -0.328 N 
ATOM      6  H   LIG    1       24.735 -23.853   3.854  0.00  0.00    +0.168 HD
ENDROOT
BRANCH   2   7
ATOM      7  C   LIG    1       25.245 -21.907   7.930  0.00  0.00    +0.264 C 
ATOM      8  O   LIG    1       26.032 -22.006   8.866  0.00  0.00    -0.269 OA
ATOM      9  N   LIG    1       24.347 -20.880   7.872  0.00  0.00    -0.324 N 
ATOM     10  H   LIG    1       24.329 -20.202   8.620  0.00  0.00    +0.145 HD
ATOM     11  H   LIG    1       23.691 -20.828   7.103  0.00  0.00    +0.145 HD
ENDBRANCH   2   7
BRANCH   1  13
ATOM     12  N   LIG    1       23.518 -20.932   4.855  0.00  0.00    -0.077 NA
ATOM     13  N   LIG    1       24.692 -21.351   4.825  0.00  0.00    -0.113 NA
BRANCH  12  15
ATOM     14  C   LIG    1       22.305 -18.811   4.641  0.00  0.00    +0.153 C 
ATOM     15  N   LIG    1       23.333 -19.744   4.194  0.00  0.00    -0.243 N 
ATOM     16  C   LIG    1       24.557 -19.169   3.664  0.00  0.00    +0.153 C 
ENDBRANCH  12  15
ENDBRANCH   1  13
TORSDOF 3
ENDMDL
MODEL 6
REMARK VINA RESULT:      -6.0      2.947      5.899
REMARK  Name = *****
REMARK                            x       y       z     vdW  Elec       q    Type
REMARK                         _______ _______ _______ _____ _____    ______ ____
ROOT
ATOM      1  C   LIG    1       26.391 -20.509   5.861  0.00  0.00    +0.186 A 
ATOM      2  C   LIG    1       25.061 -20.613   6.237  0.00  0.00    +0.171 A 
ATOM      3  N   LIG    1       24.221 -20.340   5.153  0.00  0.00    -0.229 NA
ATOM      4  C   LIG    1       25.030 -20.052   4.159  0.00  0.00    +0.199 A 
ATOM      5  N   LIG    1       26.336 -20.131   4.539  0.00  0.00    -0.328 N 
ATOM      6  H   LIG    1       27.148 -19.956   3.967  0.00  0.00    +0.168 HD
ENDROOT
BRANCH   2   7
ATOM      7  C   LIG    1       24.548 -20.959   7.558  0.00  0.00    +0.264 C 
ATOM      8  O   LIG    1       23.433 -21.419   7.781  0.00  0.00    -0.269 OA
ATOM      9  N   LIG    1       25.426 -20.722   8.577  0.00  0.00    -0.324 N 
ATOM     10  H   LIG    1       25.143 -20.920   9.525  0.00  0.00    +0.145 HD
ATOM     11  H   LIG    1       26.334 -20.321   8.375  0.00  0.00    +0.145 HD
ENDBRANCH   2   7
BRANCH   1  13
ATOM     12  N   LIG    1       28.537 -20.053   6.054  0.00  0.00    -0.077 NA
ATOM     13  N   LIG    1       27.565 -20.683   6.518  0.00  0.00    -0.113 NA
BRANCH  12  15
ATOM     14  C   LIG    1       30.701 -19.177   6.808  0.00  0.00    +0.153 C 
ATOM     15  N   LIG    1       29.704 -20.241   6.751  0.00  0.00    -0.243 N 
ATOM     16  C   LIG    1       29.555 -21.065   7.937  0.00  0.00    +0.153 C 
ENDBRANCH  12  15
ENDBRANCH   1  13
TORSDOF 3
ENDMDL
MODEL 7
REMARK VINA RESULT:      -5.9      2.684      5.524
REMARK  Name = *****
REMARK                            x       y       z     vdW  Elec       q    Type
REMARK                         _______ _______ _______ _____ _____    ______ ____
ROOT
ATOM      1  C   LIG    1       26.822 -20.764   7.770  0.00  0.00    +0.186 A 
ATOM      2  C   LIG    1       26.117 -20.686   6.579  0.00  0.00    +0.171 A 
ATOM      3  N   LIG    1       24.852 -21.263   6.718  0.00  0.00    -0.229 NA
ATOM      4  C   LIG    1       24.811 -21.701   7.955  0.00  0.00    +0.199 A 
ATOM      5  N   LIG    1       25.970 -21.434   8.618  0.00  0.00    -0.328 N 
ATOM      6  H   LIG    1       26.193 -21.666   9.574  0.00  0.00    +0.168 HD
ENDROOT
BRANCH   2   7
ATOM      7  C   LIG    1       26.575 -20.093   5.327  0.00  0.00    +0.264 C 
ATOM      8  O   LIG    1       25.842 -19.702   4.425  0.00  0.00    -0.269 OA
ATOM      9  N   LIG    1       27.934 -20.005   5.216  0.00  0.00    -0.324 N 
ATOM     10  H   LIG    1       28.333 -19.620   4.372  0.00  0.00    +0.145 HD
ATOM     11  H   LIG    1       28.523 -20.354   5.962  0.00  0.00    +0.145 HD
ENDBRANCH   2   7
BRANCH   1  13
ATOM     12  N   LIG    1       28.984 -21.154   7.925  0.00  0.00    -0.077 NA
ATOM     13  N   LIG    1       28.056 -20.353   8.155  0.00  0.00    -0.113 NA
BRANCH  12  15
ATOM     14  C   LIG    1       31.141 -21.594   9.007  0.00  0.00    +0.153 C 
ATOM     15  N   LIG    1       30.219 -20.700   8.315  0.00  0.00    -0.243 N 
ATOM     16  C   LIG    1       30.803 -19.730   7.405  0.00  0.00    +0.153 C 
ENDBRANCH  12  15
ENDBRANCH   1  13
TORSDOF 3
ENDMDL
MODEL 8
REMARK VINA RESULT:      -5.7      3.578      6.501
REMARK  Name = *****
REMARK                            x       y       z     vdW  Elec       q    Type
REMARK                         _______ _______ _______ _____ _____    ______ ____
ROOT
ATOM      1  C   LIG    1       25.412 -20.697   6.866  0.00  0.00    +0.186 A 
ATOM      2  C   LIG    1       24.561 -20.736   5.773  0.00  0.00    +0.171 A 
ATOM      3  N   LIG    1       23.304 -21.221   6.146  0.00  0.00    -0.229 NA
ATOM      4  C   LIG    1       23.409 -21.492   7.426  0.00  0.00    +0.199 A 
ATOM      5  N   LIG    1       24.655 -21.205   7.896  0.00  0.00    -0.328 N 
ATOM      6  H   LIG    1       24.992 -21.323   8.840  0.00  0.00    +0.168 HD
ENDROOT
BRANCH   2   7
ATOM      7  C   LIG    1       24.873 -20.337   4.404  0.00  0.00    +0.264 C 
ATOM      8  O   LIG    1       24.050 -20.214   3.503  0.00  0.00    -0.269 OA
ATOM      9  N   LIG    1       26.200 -20.105   4.180  0.00  0.00    -0.324 N 
ATOM     10  H   LIG    1       26.501 -19.839   3.254  0.00  0.00    +0.145 HD
ATOM     11  H   LIG    1       26.866 -20.233   4.931  0.00  0.00    +0.145 HD
ENDBRANCH   2   7
BRANCH   1  13
ATOM     12  N   LIG    1       27.562 -21.148   6.706  0.00  0.00    -0.077 NA
ATOM     13  N   LIG    1       26.700 -20.308   7.034  0.00  0.00    -0.113 NA
BRANCH  12  15
ATOM     14  C   LIG    1       29.236 -19.373   6.453  0.00  0.00    +0.153 C 
ATOM     15  N   LIG    1       28.854 -20.715   6.877  0.00  0.00    -0.243 N 
ATOM     16  C   LIG    1       29.494 -21.235   8.071  0.00  0.00    +0.153 C 
ENDBRANCH  12  15
ENDBRANCH   1  13
TORSDOF 3
ENDMDL
MODEL 9
REMARK VINA RESULT:      -5.7      4.497      6.587
REMARK  Name = *****
REMARK                            x       y       z     vdW  Elec       q    Type
REMARK                         _______ _______ _______ _____ _____    ______ ____
ROOT
ATOM      1  C   LIG    1       24.486 -22.547   6.298  0.00  0.00    +0.186 A 
ATOM      2  C   LIG    1       24.735 -21.640   7.316  0.00  0.00    +0.171 A 
ATOM      3  N   LIG    1       23.742 -20.658   7.353  0.00  0.00    -0.229 NA
ATOM      4  C   LIG    1       22.932 -20.954   6.363  0.00  0.00    +0.199 A 
ATOM      5  N   LIG    1       23.343 -22.070   5.698  0.00  0.00    -0.328 N 
ATOM      6  H   LIG    1       22.900 -22.504   4.903  0.00  0.00    +0.168 HD
ENDROOT
BRANCH   2   7
ATOM      7  C   LIG    1       25.856 -21.658   8.250  0.00  0.00    +0.264 C 
ATOM      8  O   LIG    1       25.808 -21.268   9.412  0.00  0.00    -0.269 OA
ATOM      9  N   LIG    1       27.014 -22.154   7.723  0.00  0.00    -0.324 N 
ATOM     10  H   LIG    1       27.841 -22.186   8.301  0.00  0.00    +0.145 HD
ATOM     11  H   LIG    1       27.039 -22.450   6.755  0.00  0.00    +0.145 HD
ENDBRANCH   2   7
BRANCH   1  13
ATOM     12  N   LIG    1       25.120 -24.627   6.652  0.00  0.00    -0.077 NA
ATOM     13  N   LIG    1       25.124 -23.661   5.861  0.00  0.00    -0.113 NA
BRANCH  12  15
ATOM     14  C   LIG    1       26.018 -26.873   7.055  0.00  0.00    +0.153 C 
ATOM     15  N   LIG    1       25.763 -25.741   6.172  0.00  0.00    -0.243 N 
ATOM     16  C   LIG    1       25.457 -26.044   4.786  0.00  0.00    +0.153 C 
ENDBRANCH  12  15
ENDBRANCH   1  13
TORSDOF 3
ENDMDL
