MODEL 1
REMARK VINA RESULT:      16.6      0.000      0.000
REMARK  Name = *****
REMARK                            x       y       z     vdW  Elec       q    Type
REMARK                         _______ _______ _______ _____ _____    ______ ____
ROOT
ATOM      1  C   LIG    1       22.630 -16.413   3.619  0.00  0.00    +0.133 C 
ATOM      2  C   LIG    1       23.818 -15.823   4.449  0.00  0.00    +0.009 C 
ATOM      3  C   LIG    1       23.357 -15.357   5.859  0.00  0.00    +0.015 C 
ATOM      4  C   LIG    1       24.225 -14.551   3.629  0.00  0.00    +0.002 C 
ATOM      5  C   LIG    1       25.384 -14.718   2.612  0.00  0.00    -0.001 C 
ATOM      6  C   LIG    1       26.581 -15.551   3.125  0.00  0.00    +0.031 C 
ATOM      7  C   LIG    1       26.017 -16.916   3.575  0.00  0.00    +0.119 C 
ATOM      8  C   LIG    1       27.628 -14.793   4.043  0.00  0.00    -0.005 C 
ATOM      9  C   LIG    1       28.942 -15.630   4.069  0.00  0.00    +0.016 C 
ATOM     10  C   LIG    1       27.901 -13.377   3.496  0.00  0.00    -0.060 C 
ATOM     11  C   LIG    1       28.922 -12.644   3.990  0.00  0.00    +0.046 C 
ATOM     12  C   LIG    1       28.732 -12.465   5.478  0.00  0.00    +0.156 C 
ATOM     13  O   LIG    1       29.170 -11.451   6.018  0.00  0.00    -0.293 OA
ATOM     14  C   LIG    1       28.151 -13.621   6.284  0.00  0.00    +0.080 C 
ATOM     15  C   LIG    1       26.702 -12.586   3.017  0.00  0.00    +0.032 C 
ATOM     16  C   LIG    1       27.195 -14.539   5.506  0.00  0.00    +0.019 C 
ATOM     17  C   LIG    1       25.864 -13.378   2.031  0.00  0.00    +0.008 C 
ATOM     18  C   LIG    1       22.932 -14.111   2.894  0.00  0.00    +0.007 C 
ATOM     19  C   LIG    1       24.965 -16.829   4.672  0.00  0.00    +0.042 C 
ATOM     20  C   LIG    1       21.856 -15.146   3.213  0.00  0.00    +0.043 C 
ENDROOT
BRANCH   1  21
ATOM     21  C   LIG    1       21.674 -17.361   4.411  0.00  0.00    +0.202 C 
ATOM     22  O   LIG    1       20.901 -16.926   5.273  0.00  0.00    -0.291 OA
BRANCH  21  23
ATOM     23  C   LIG    1       21.830 -18.873   4.246  0.00  0.00    +0.309 C 
BRANCH  23  24
ATOM     24  O   LIG    1       22.686 -19.512   5.192  0.00  0.00    -0.456 OA
BRANCH  24  25
ATOM     25  C   LIG    1       22.464 -20.838   5.386  0.00  0.00    +0.322 C 
ATOM     26  O   LIG    1       21.423 -21.413   5.073  0.00  0.00    -0.249 OA
BRANCH  25  27
ATOM     27  C   LIG    1       23.641 -21.510   6.079  0.00  0.00    +0.205 C 
BRANCH  27  28
ATOM     28  N   LIG    1       24.874 -21.568   5.251  0.00  0.00    -0.293 NA
BRANCH  28  30
ATOM     29  C   LIG    1       25.186 -20.292   3.067  0.00  0.00    +0.020 C 
ATOM     30  C   LIG    1       24.534 -21.455   3.814  0.00  0.00    +0.081 C 
ENDBRANCH  28  30
BRANCH  28  31
ATOM     31  C   LIG    1       25.805 -20.477   5.639  0.00  0.00    +0.081 C 
ATOM     32  C   LIG    1       26.668 -20.753   6.872  0.00  0.00    +0.020 C 
ENDBRANCH  28  31
ENDBRANCH  27  28
ENDBRANCH  25  27
ENDBRANCH  24  25
ENDBRANCH  23  24
ENDBRANCH  21  23
ENDBRANCH   1  21
BRANCH   1  33
ATOM     33  O   LIG    1       23.120 -16.959   2.400  0.00  0.00    -0.380 OA
ATOM     34  H   LIG    1       23.775 -17.656   2.588  0.00  0.00    +0.211 HD
ENDBRANCH   1  33
BRANCH   7  35
ATOM     35  O   LIG    1       27.040 -17.811   3.990  0.00  0.00    -0.392 OA
ATOM     36  H   LIG    1       27.621 -17.341   4.612  0.00  0.00    +0.210 HD
ENDBRANCH   7  35
TORSDOF 10
ENDMDL
