MODEL 1
REMARK VINA RESULT:      -1.8      0.000      0.000
REMARK  Name = *****
REMARK                            x       y       z     vdW  Elec       q    Type
REMARK                         _______ _______ _______ _____ _____    ______ ____
ROOT
ATOM      1  C   LIG    1       25.227 -19.414   3.319  0.00  0.00    +0.062 C 
ATOM      2  C   LIG    1       26.293 -19.257   4.396  0.00  0.00    +0.021 C 
ATOM      3  C   LIG    1       26.342 -20.127   5.457  0.00  0.00    +0.015 C 
ENDROOT
BRANCH   2   4
ATOM      4  N   LIG    1       27.172 -18.165   4.214  0.00  0.00    -0.273 N 
ATOM      5  C   LIG    1       28.353 -18.043   4.931  0.00  0.00    +0.333 C 
ATOM      6  O   LIG    1       29.156 -17.103   4.837  0.00  0.00    -0.279 OA
BRANCH   4   7
ATOM      7  C   LIG    1       26.864 -17.119   3.209  0.00  0.00    +0.153 C 
BRANCH   7   8
ATOM      8  C   LIG    1       26.168 -15.867   3.678  0.00  0.00    +0.028 A 
ATOM      9  C   LIG    1       26.836 -14.681   3.946  0.00  0.00    +0.124 A 
ATOM     10  N   LIG    1       26.222 -13.528   4.243  0.00  0.00    -0.218 NA
ATOM     11  C   LIG    1       24.881 -13.536   4.288  0.00  0.00    +0.128 A 
ATOM     12  C   LIG    1       24.190 -12.252   4.624  0.00  0.00    +0.088 C 
ATOM     13  N   LIG    1       24.127 -14.618   4.043  0.00  0.00    -0.240 NA
ATOM     14  C   LIG    1       24.790 -15.753   3.733  0.00  0.00    +0.121 A 
BRANCH   9  15
ATOM     15  N   LIG    1       28.226 -14.579   3.931  0.00  0.00    -0.343 N 
ATOM     16  H   LIG    1       28.657 -15.312   4.483  0.00  0.00    +0.144 HD
ATOM     17  H   LIG    1       28.430 -13.670   4.348  0.00  0.00    +0.144 HD
ENDBRANCH   9  15
ENDBRANCH   7   8
ENDBRANCH   4   7
ENDBRANCH   2   4
BRANCH   3  18
ATOM     18  S   LIG    1       25.283 -21.571   5.411  0.00  0.00    -0.060 S 
BRANCH  18  19
ATOM     19  S   LIG    1       23.977 -21.148   3.858  0.00  0.00    -0.086 S 
BRANCH  19  20
ATOM     20  C   LIG    1       22.326 -21.534   4.540  0.00  0.00    +0.113 C 
BRANCH  20  21
ATOM     21  C   LIG    1       21.532 -20.288   4.975  0.00  0.00    +0.129 C 
ATOM     22  O   LIG    1       20.867 -19.758   3.804  0.00  0.00    -0.376 OA
ATOM     23  C   LIG    1       21.113 -18.352   3.718  0.00  0.00    +0.160 C 
ATOM     24  C   LIG    1       22.390 -18.097   4.479  0.00  0.00    +0.030 C 
ATOM     25  C   LIG    1       22.367 -19.151   5.561  0.00  0.00    +0.035 C 
ENDBRANCH  20  21
ENDBRANCH  19  20
ENDBRANCH  18  19
ENDBRANCH   3  18
BRANCH   3  26
ATOM     26  C   LIG    1       27.146 -19.958   6.752  0.00  0.00    +0.072 C 
BRANCH  26  27
ATOM     27  C   LIG    1       28.283 -20.954   7.048  0.00  0.00    +0.161 C 
BRANCH  27  28
ATOM     28  O   LIG    1       29.474 -20.662   6.327  0.00  0.00    -0.395 OA
ATOM     29  H   LIG    1       30.025 -20.085   6.882  0.00  0.00    +0.209 HD
ENDBRANCH  27  28
ENDBRANCH  26  27
ENDBRANCH   3  26
TORSDOF 11
ENDMDL
MODEL 2
REMARK VINA RESULT:      -0.2      2.680      4.484
REMARK  Name = *****
REMARK                            x       y       z     vdW  Elec       q    Type
REMARK                         _______ _______ _______ _____ _____    ______ ____
ROOT
ATOM      1  C   LIG    1       21.859 -15.722   5.844  0.00  0.00    +0.062 C 
ATOM      2  C   LIG    1       22.881 -15.828   4.720  0.00  0.00    +0.021 C 
ATOM      3  C   LIG    1       23.333 -17.057   4.306  0.00  0.00    +0.015 C 
ENDROOT
BRANCH   2   4
ATOM      4  N   LIG    1       23.313 -14.594   4.185  0.00  0.00    -0.273 N 
ATOM      5  C   LIG    1       22.984 -14.193   2.899  0.00  0.00    +0.333 C 
ATOM      6  O   LIG    1       23.348 -13.136   2.361  0.00  0.00    -0.279 OA
BRANCH   4   7
ATOM      7  C   LIG    1       24.119 -13.664   5.013  0.00  0.00    +0.153 C 
BRANCH   7   8
ATOM      8  C   LIG    1       25.515 -13.333   4.555  0.00  0.00    +0.028 A 
ATOM      9  C   LIG    1       26.632 -13.449   5.370  0.00  0.00    +0.124 A 
ATOM     10  N   LIG    1       27.891 -13.279   4.943  0.00  0.00    -0.218 NA
ATOM     11  C   LIG    1       28.068 -12.969   3.649  0.00  0.00    +0.128 A 
ATOM     12  C   LIG    1       29.471 -12.774   3.169  0.00  0.00    +0.088 C 
ATOM     13  N   LIG    1       27.069 -12.835   2.765  0.00  0.00    -0.240 NA
ATOM     14  C   LIG    1       25.819 -13.031   3.238  0.00  0.00    +0.121 A 
BRANCH   9  15
ATOM     15  N   LIG    1       26.545 -13.758   6.727  0.00  0.00    -0.343 N 
ATOM     16  H   LIG    1       26.949 -14.666   6.926  0.00  0.00    +0.144 HD
ATOM     17  H   LIG    1       25.545 -13.774   6.932  0.00  0.00    +0.144 HD
ENDBRANCH   9  15
ENDBRANCH   7   8
ENDBRANCH   4   7
ENDBRANCH   2   4
BRANCH   3  18
ATOM     18  S   LIG    1       22.519 -18.515   4.953  0.00  0.00    -0.060 S 
BRANCH  18  19
ATOM     19  S   LIG    1       22.681 -19.874   3.397  0.00  0.00    -0.086 S 
BRANCH  19  20
ATOM     20  C   LIG    1       24.328 -20.631   3.629  0.00  0.00    +0.113 C 
BRANCH  20  21
ATOM     21  C   LIG    1       24.409 -21.572   4.847  0.00  0.00    +0.129 C 
ATOM     22  O   LIG    1       23.157 -21.470   5.565  0.00  0.00    -0.376 OA
ATOM     23  C   LIG    1       23.425 -21.263   6.955  0.00  0.00    +0.160 C 
ATOM     24  C   LIG    1       24.801 -20.653   7.034  0.00  0.00    +0.030 C 
ATOM     25  C   LIG    1       25.518 -21.252   5.848  0.00  0.00    +0.035 C 
ENDBRANCH  20  21
ENDBRANCH  19  20
ENDBRANCH  18  19
ENDBRANCH   3  18
BRANCH   3  26
ATOM     26  C   LIG    1       24.543 -17.340   3.407  0.00  0.00    +0.072 C 
BRANCH  26  27
ATOM     27  C   LIG    1       25.925 -16.825   3.849  0.00  0.00    +0.161 C 
BRANCH  27  28
ATOM     28  O   LIG    1       26.549 -16.006   2.867  0.00  0.00    -0.395 OA
ATOM     29  H   LIG    1       27.511 -16.122   2.949  0.00  0.00    +0.209 HD
ENDBRANCH  27  28
ENDBRANCH  26  27
ENDBRANCH   3  26
TORSDOF 11
ENDMDL
MODEL 3
REMARK VINA RESULT:       0.2      2.394      4.532
REMARK  Name = *****
REMARK                            x       y       z     vdW  Elec       q    Type
REMARK                         _______ _______ _______ _____ _____    ______ ____
ROOT
ATOM      1  C   LIG    1       22.212 -16.485   5.166  0.00  0.00    +0.062 C 
ATOM      2  C   LIG    1       23.434 -16.745   4.294  0.00  0.00    +0.021 C 
ATOM      3  C   LIG    1       23.818 -18.031   4.003  0.00  0.00    +0.015 C 
ENDROOT
BRANCH   2   4
ATOM      4  N   LIG    1       24.113 -15.587   3.853  0.00  0.00    -0.273 N 
ATOM      5  C   LIG    1       23.505 -14.340   3.831  0.00  0.00    +0.333 C 
ATOM      6  O   LIG    1       24.034 -13.290   3.437  0.00  0.00    -0.279 OA
BRANCH   4   7
ATOM      7  C   LIG    1       25.530 -15.671   3.425  0.00  0.00    +0.153 C 
BRANCH   7   8
ATOM      8  C   LIG    1       26.456 -14.547   3.809  0.00  0.00    +0.028 A 
ATOM      9  C   LIG    1       26.400 -13.900   5.035  0.00  0.00    +0.124 A 
ATOM     10  N   LIG    1       27.293 -12.986   5.440  0.00  0.00    -0.218 NA
ATOM     11  C   LIG    1       28.290 -12.681   4.596  0.00  0.00    +0.128 A 
ATOM     12  C   LIG    1       29.287 -11.657   5.041  0.00  0.00    +0.088 C 
ATOM     13  N   LIG    1       28.452 -13.242   3.389  0.00  0.00    -0.240 NA
ATOM     14  C   LIG    1       27.537 -14.169   3.031  0.00  0.00    +0.121 A 
BRANCH   9  15
ATOM     15  N   LIG    1       25.396 -14.145   5.971  0.00  0.00    -0.343 N 
ATOM     16  H   LIG    1       24.777 -14.886   5.664  0.00  0.00    +0.144 HD
ATOM     17  H   LIG    1       24.877 -13.268   6.038  0.00  0.00    +0.144 HD
ENDBRANCH   9  15
ENDBRANCH   7   8
ENDBRANCH   4   7
ENDBRANCH   2   4
BRANCH   3  18
ATOM     18  S   LIG    1       22.719 -19.365   4.472  0.00  0.00    -0.060 S 
BRANCH  18  19
ATOM     19  S   LIG    1       23.344 -19.837   6.391  0.00  0.00    -0.086 S 
BRANCH  19  20
ATOM     20  C   LIG    1       24.783 -20.936   6.138  0.00  0.00    +0.113 C 
BRANCH  20  21
ATOM     21  C   LIG    1       26.090 -20.390   6.743  0.00  0.00    +0.129 C 
ATOM     22  O   LIG    1       26.647 -19.439   5.804  0.00  0.00    -0.376 OA
ATOM     23  C   LIG    1       28.030 -19.737   5.595  0.00  0.00    +0.160 C 
ATOM     24  C   LIG    1       28.205 -21.197   5.929  0.00  0.00    +0.030 C 
ATOM     25  C   LIG    1       27.174 -21.433   7.008  0.00  0.00    +0.035 C 
ENDBRANCH  20  21
ENDBRANCH  19  20
ENDBRANCH  18  19
ENDBRANCH   3  18
BRANCH   3  26
ATOM     26  C   LIG    1       25.152 -18.480   3.393  0.00  0.00    +0.072 C 
BRANCH  26  27
ATOM     27  C   LIG    1       25.168 -19.732   2.498  0.00  0.00    +0.161 C 
BRANCH  27  28
ATOM     28  O   LIG    1       25.590 -20.901   3.190  0.00  0.00    -0.395 OA
ATOM     29  H   LIG    1       26.089 -20.618   3.975  0.00  0.00    +0.209 HD
ENDBRANCH  27  28
ENDBRANCH  26  27
ENDBRANCH   3  26
TORSDOF 11
ENDMDL
