MODEL 1
REMARK VINA RESULT:     -10.0      0.000      0.000
REMARK  Name = *****
REMARK                            x       y       z     vdW  Elec       q    Type
REMARK                         _______ _______ _______ _____ _____    ______ ____
ROOT
ATOM      1  C   LIG    1       27.101 -22.497   7.760  0.00  0.00    -0.021 C 
ATOM      2  C   LIG    1       25.945 -22.690   7.077  0.00  0.00    -0.035 C 
ATOM      3  C   LIG    1       24.991 -21.548   6.768  0.00  0.00    +0.059 C 
ATOM      4  C   LIG    1       23.516 -21.794   7.169  0.00  0.00    +0.085 C 
ATOM      5  C   LIG    1       22.648 -20.660   6.662  0.00  0.00    -0.011 C 
ATOM      6  C   LIG    1       22.981 -19.922   5.599  0.00  0.00    +0.009 C 
ATOM      7  C   LIG    1       24.201 -20.187   4.833  0.00  0.00    +0.051 C 
ATOM      8  S   LIG    1       22.778 -23.330   6.527  0.00  0.00    -0.116 S 
ATOM      9  C   LIG    1       24.181 -24.430   6.458  0.00  0.00    +0.016 A 
ATOM     10  C   LIG    1       23.853 -25.761   6.123  0.00  0.00    +0.015 A 
ATOM     11  C   LIG    1       24.833 -26.738   5.978  0.00  0.00    +0.001 A 
ATOM     12  C   LIG    1       26.164 -26.388   6.135  0.00  0.00    +0.001 A 
ATOM     13  C   LIG    1       26.501 -25.072   6.464  0.00  0.00    +0.009 A 
ATOM     14  C   LIG    1       25.151 -20.979   5.373  0.00  0.00    -0.005 C 
ATOM     15  C   LIG    1       25.524 -24.070   6.675  0.00  0.00    -0.008 A 
ENDROOT
BRANCH   7  16
ATOM     16  C   LIG    1       24.375 -19.499   3.499  0.00  0.00    +0.417 C 
ATOM     17  F   LIG    1       23.271 -18.795   3.142  0.00  0.00    -0.166 F 
ATOM     18  F   LIG    1       24.602 -20.400   2.505  0.00  0.00    -0.166 F 
ATOM     19  F   LIG    1       25.420 -18.630   3.473  0.00  0.00    -0.166 F 
ENDBRANCH   7  16
BRANCH   1  20
ATOM     20  C   LIG    1       27.733 -21.193   8.196  0.00  0.00    +0.043 C 
BRANCH  20  21
ATOM     21  C   LIG    1       28.869 -20.694   7.273  0.00  0.00    +0.088 C 
BRANCH  21  25
ATOM     22  N   LIG    1       31.875 -18.872   8.682  0.00  0.00    -0.298 NA
ATOM     23  C   LIG    1       30.625 -19.217   9.392  0.00  0.00    +0.100 C 
ATOM     24  C   LIG    1       29.342 -18.723   8.690  0.00  0.00    +0.100 C 
ATOM     25  N   LIG    1       29.173 -19.248   7.322  0.00  0.00    -0.300 NA
ATOM     26  C   LIG    1       30.406 -18.945   6.555  0.00  0.00    +0.100 C 
ATOM     27  C   LIG    1       31.748 -19.299   7.264  0.00  0.00    +0.100 C 
BRANCH  22  28
ATOM     28  C   LIG    1       32.218 -17.432   8.761  0.00  0.00    +0.112 C 
BRANCH  28  29
ATOM     29  C   LIG    1       32.041 -16.824  10.165  0.00  0.00    +0.171 C 
BRANCH  29  30
ATOM     30  O   LIG    1       33.025 -17.337  11.060  0.00  0.00    -0.394 OA
ATOM     31  H   LIG    1       32.923 -18.310  11.031  0.00  0.00    +0.209 HD
ENDBRANCH  29  30
ENDBRANCH  28  29
ENDBRANCH  22  28
ENDBRANCH  21  25
ENDBRANCH  20  21
ENDBRANCH   1  20
TORSDOF 7
ENDMDL
MODEL 2
REMARK VINA RESULT:      -7.6      6.071      9.221
REMARK  Name = *****
REMARK                            x       y       z     vdW  Elec       q    Type
REMARK                         _______ _______ _______ _____ _____    ______ ____
ROOT
ATOM      1  C   LIG    1       24.962 -27.774   6.837  0.00  0.00    -0.021 C 
ATOM      2  C   LIG    1       25.076 -29.067   7.233  0.00  0.00    -0.035 C 
ATOM      3  C   LIG    1       24.582 -30.220   6.376  0.00  0.00    +0.059 C 
ATOM      4  C   LIG    1       23.650 -31.225   7.096  0.00  0.00    +0.085 C 
ATOM      5  C   LIG    1       23.363 -32.404   6.187  0.00  0.00    -0.011 C 
ATOM      6  C   LIG    1       24.201 -32.781   5.217  0.00  0.00    +0.009 C 
ATOM      7  C   LIG    1       25.473 -32.092   4.990  0.00  0.00    +0.051 C 
ATOM      8  S   LIG    1       24.302 -31.920   8.647  0.00  0.00    -0.116 S 
ATOM      9  C   LIG    1       25.307 -30.586   9.273  0.00  0.00    +0.016 A 
ATOM     10  C   LIG    1       25.825 -30.812  10.566  0.00  0.00    +0.015 A 
ATOM     11  C   LIG    1       26.669 -29.894  11.184  0.00  0.00    +0.001 A 
ATOM     12  C   LIG    1       27.033 -28.746  10.501  0.00  0.00    +0.001 A 
ATOM     13  C   LIG    1       26.528 -28.511   9.218  0.00  0.00    +0.009 A 
ATOM     14  C   LIG    1       25.670 -30.883   5.558  0.00  0.00    -0.005 C 
ATOM     15  C   LIG    1       25.623 -29.398   8.587  0.00  0.00    -0.008 A 
ENDROOT
BRANCH   7  16
ATOM     16  C   LIG    1       26.482 -32.733   4.065  0.00  0.00    +0.417 C 
ATOM     17  F   LIG    1       25.976 -33.825   3.439  0.00  0.00    -0.166 F 
ATOM     18  F   LIG    1       27.582 -33.149   4.750  0.00  0.00    -0.166 F 
ATOM     19  F   LIG    1       26.931 -31.895   3.094  0.00  0.00    -0.166 F 
ENDBRANCH   7  16
BRANCH   1  20
ATOM     20  C   LIG    1       24.503 -27.234   5.500  0.00  0.00    +0.043 C 
BRANCH  20  21
ATOM     21  C   LIG    1       24.438 -25.692   5.422  0.00  0.00    +0.088 C 
BRANCH  21  25
ATOM     22  N   LIG    1       24.327 -21.973   6.130  0.00  0.00    -0.298 NA
ATOM     23  C   LIG    1       25.530 -22.819   5.974  0.00  0.00    +0.100 C 
ATOM     24  C   LIG    1       25.558 -24.055   6.899  0.00  0.00    +0.100 C 
ATOM     25  N   LIG    1       24.412 -24.964   6.709  0.00  0.00    -0.300 NA
ATOM     26  C   LIG    1       23.166 -24.171   6.840  0.00  0.00    +0.100 C 
ATOM     27  C   LIG    1       23.123 -22.840   6.032  0.00  0.00    +0.100 C 
BRANCH  22  28
ATOM     28  C   LIG    1       24.309 -21.201   7.395  0.00  0.00    +0.112 C 
BRANCH  28  29
ATOM     29  C   LIG    1       25.696 -20.699   7.840  0.00  0.00    +0.171 C 
BRANCH  29  30
ATOM     30  O   LIG    1       25.810 -20.741   9.260  0.00  0.00    -0.394 OA
ATOM     31  H   LIG    1       26.572 -21.326   9.444  0.00  0.00    +0.209 HD
ENDBRANCH  29  30
ENDBRANCH  28  29
ENDBRANCH  22  28
ENDBRANCH  21  25
ENDBRANCH  20  21
ENDBRANCH   1  20
TORSDOF 7
ENDMDL
MODEL 3
REMARK VINA RESULT:      -7.1      6.700      9.607
REMARK  Name = *****
REMARK                            x       y       z     vdW  Elec       q    Type
REMARK                         _______ _______ _______ _____ _____    ______ ____
ROOT
ATOM      1  C   LIG    1       24.984 -28.805   5.928  0.00  0.00    -0.021 C 
ATOM      2  C   LIG    1       25.234 -29.794   6.825  0.00  0.00    -0.035 C 
ATOM      3  C   LIG    1       25.083 -29.581   8.322  0.00  0.00    +0.059 C 
ATOM      4  C   LIG    1       26.307 -29.995   9.173  0.00  0.00    +0.085 C 
ATOM      5  C   LIG    1       25.970 -29.888  10.647  0.00  0.00    -0.011 C 
ATOM      6  C   LIG    1       24.719 -29.990  11.105  0.00  0.00    +0.009 C 
ATOM      7  C   LIG    1       23.590 -30.244  10.207  0.00  0.00    +0.051 C 
ATOM      8  S   LIG    1       26.905 -31.694   8.907  0.00  0.00    -0.116 S 
ATOM      9  C   LIG    1       26.514 -31.973   7.189  0.00  0.00    +0.016 A 
ATOM     10  C   LIG    1       27.013 -33.189   6.674  0.00  0.00    +0.015 A 
ATOM     11  C   LIG    1       26.757 -33.586   5.365  0.00  0.00    +0.001 A 
ATOM     12  C   LIG    1       25.968 -32.782   4.558  0.00  0.00    +0.001 A 
ATOM     13  C   LIG    1       25.467 -31.576   5.057  0.00  0.00    +0.009 A 
ATOM     14  C   LIG    1       23.764 -30.075   8.879  0.00  0.00    -0.005 C 
ATOM     15  C   LIG    1       25.757 -31.119   6.364  0.00  0.00    -0.008 A 
ENDROOT
BRANCH   7  16
ATOM     16  C   LIG    1       22.257 -30.615  10.814  0.00  0.00    +0.417 C 
ATOM     17  F   LIG    1       22.377 -31.594  11.745  0.00  0.00    -0.166 F 
ATOM     18  F   LIG    1       21.396 -31.079   9.868  0.00  0.00    -0.166 F 
ATOM     19  F   LIG    1       21.633 -29.571  11.420  0.00  0.00    -0.166 F 
ENDBRANCH   7  16
BRANCH   1  20
ATOM     20  C   LIG    1       24.396 -27.434   6.176  0.00  0.00    +0.043 C 
BRANCH  20  21
ATOM     21  C   LIG    1       25.425 -26.366   6.610  0.00  0.00    +0.088 C 
BRANCH  21  25
ATOM     22  N   LIG    1       24.207 -22.847   7.299  0.00  0.00    -0.298 NA
ATOM     23  C   LIG    1       23.459 -23.940   6.642  0.00  0.00    +0.100 C 
ATOM     24  C   LIG    1       24.190 -24.573   5.438  0.00  0.00    +0.100 C 
ATOM     25  N   LIG    1       25.505 -25.147   5.777  0.00  0.00    -0.300 NA
ATOM     26  C   LIG    1       26.306 -24.099   6.456  0.00  0.00    +0.100 C 
ATOM     27  C   LIG    1       25.581 -23.327   7.599  0.00  0.00    +0.100 C 
BRANCH  22  28
ATOM     28  C   LIG    1       24.256 -21.602   6.496  0.00  0.00    +0.112 C 
BRANCH  28  29
ATOM     29  C   LIG    1       22.888 -21.159   5.946  0.00  0.00    +0.171 C 
BRANCH  29  30
ATOM     30  O   LIG    1       22.868 -21.250   4.524  0.00  0.00    -0.394 OA
ATOM     31  H   LIG    1       23.219 -22.138   4.313  0.00  0.00    +0.209 HD
ENDBRANCH  29  30
ENDBRANCH  28  29
ENDBRANCH  22  28
ENDBRANCH  21  25
ENDBRANCH  20  21
ENDBRANCH   1  20
TORSDOF 7
ENDMDL
MODEL 4
REMARK VINA RESULT:      -7.0      7.954      9.959
REMARK  Name = *****
REMARK                            x       y       z     vdW  Elec       q    Type
REMARK                         _______ _______ _______ _____ _____    ______ ____
ROOT
ATOM      1  C   LIG    1       26.899 -29.041   9.747  0.00  0.00    -0.021 C 
ATOM      2  C   LIG    1       25.816 -29.319   8.978  0.00  0.00    -0.035 C 
ATOM      3  C   LIG    1       24.881 -30.475   9.289  0.00  0.00    +0.059 C 
ATOM      4  C   LIG    1       24.602 -31.435   8.107  0.00  0.00    +0.085 C 
ATOM      5  C   LIG    1       23.537 -32.440   8.499  0.00  0.00    -0.011 C 
ATOM      6  C   LIG    1       22.621 -32.183   9.437  0.00  0.00    +0.009 C 
ATOM      7  C   LIG    1       22.570 -30.893  10.128  0.00  0.00    +0.051 C 
ATOM      8  S   LIG    1       24.018 -30.640   6.577  0.00  0.00    -0.116 S 
ATOM      9  C   LIG    1       24.823 -29.049   6.641  0.00  0.00    +0.016 A 
ATOM     10  C   LIG    1       24.651 -28.270   5.476  0.00  0.00    +0.015 A 
ATOM     11  C   LIG    1       25.171 -26.983   5.378  0.00  0.00    +0.001 A 
ATOM     12  C   LIG    1       25.846 -26.443   6.460  0.00  0.00    +0.001 A 
ATOM     13  C   LIG    1       26.021 -27.205   7.620  0.00  0.00    +0.009 A 
ATOM     14  C   LIG    1       23.632 -30.066  10.043  0.00  0.00    -0.005 C 
ATOM     15  C   LIG    1       25.554 -28.535   7.729  0.00  0.00    -0.008 A 
ENDROOT
BRANCH   7  16
ATOM     16  C   LIG    1       21.356 -30.577  10.971  0.00  0.00    +0.417 C 
ATOM     17  F   LIG    1       20.237 -30.431  10.217  0.00  0.00    -0.166 F 
ATOM     18  F   LIG    1       21.520 -29.413  11.655  0.00  0.00    -0.166 F 
ATOM     19  F   LIG    1       21.082 -31.531  11.900  0.00  0.00    -0.166 F 
ENDBRANCH   7  16
BRANCH   1  20
ATOM     20  C   LIG    1       27.302 -29.660  11.067  0.00  0.00    +0.043 C 
BRANCH  20  21
ATOM     21  C   LIG    1       27.139 -28.726  12.288  0.00  0.00    +0.088 C 
BRANCH  21  25
ATOM     22  N   LIG    1       25.897 -26.210  14.832  0.00  0.00    -0.298 NA
ATOM     23  C   LIG    1       25.276 -27.504  14.476  0.00  0.00    +0.100 C 
ATOM     24  C   LIG    1       25.003 -27.682  12.967  0.00  0.00    +0.100 C 
ATOM     25  N   LIG    1       26.212 -27.585  12.129  0.00  0.00    -0.300 NA
ATOM     26  C   LIG    1       26.894 -26.307  12.448  0.00  0.00    +0.100 C 
ATOM     27  C   LIG    1       27.086 -26.002  13.964  0.00  0.00    +0.100 C 
BRANCH  22  28
ATOM     28  C   LIG    1       24.967 -25.061  14.722  0.00  0.00    +0.112 C 
BRANCH  28  29
ATOM     29  C   LIG    1       25.528 -23.747  15.295  0.00  0.00    +0.171 C 
BRANCH  29  30
ATOM     30  O   LIG    1       25.441 -22.703  14.328  0.00  0.00    -0.394 OA
ATOM     31  H   LIG    1       25.226 -21.894  14.834  0.00  0.00    +0.209 HD
ENDBRANCH  29  30
ENDBRANCH  28  29
ENDBRANCH  22  28
ENDBRANCH  21  25
ENDBRANCH  20  21
ENDBRANCH   1  20
TORSDOF 7
ENDMDL
