MODEL 1
REMARK VINA RESULT:      -1.4      0.000      0.000
REMARK  Name = *****
REMARK                            x       y       z     vdW  Elec       q    Type
REMARK                         _______ _______ _______ _____ _____    ______ ____
ROOT
ATOM      1  C   LIG    1       27.613 -14.002   3.937  0.00  0.00    +0.122 C 
ATOM      2  C   LIG    1       27.889 -15.446   4.065  0.00  0.00    +0.203 C 
ATOM      3  O   LIG    1       29.026 -15.833   4.328  0.00  0.00    -0.286 OA
ATOM      4  C   LIG    1       26.763 -16.396   3.902  0.00  0.00    +0.049 C 
ATOM      5  C   LIG    1       25.464 -15.906   3.672  0.00  0.00    +0.055 C 
ATOM      6  C   LIG    1       24.424 -16.851   3.550  0.00  0.00    +0.052 C 
ATOM      7  C   LIG    1       24.637 -18.245   3.655  0.00  0.00    +0.067 C 
ATOM      8  C   LIG    1       25.957 -18.664   3.894  0.00  0.00    +0.145 C 
ATOM      9  F   LIG    1       26.259 -19.965   4.009  0.00  0.00    -0.203 F 
ATOM     10  N   LIG    1       25.259 -14.500   3.573  0.00  0.00    -0.343 NA
ATOM     11  C   LIG    1       27.012 -17.764   4.008  0.00  0.00    +0.054 C 
ATOM     12  C   LIG    1       26.337 -13.642   3.732  0.00  0.00    +0.105 C 
ENDROOT
BRANCH   7  13
ATOM     13  N   LIG    1       23.535 -19.102   3.572  0.00  0.00    -0.325 NA
ATOM     14  C   LIG    1       23.765 -20.457   3.028  0.00  0.00    +0.120 C 
ATOM     15  C   LIG    1       23.889 -21.510   4.157  0.00  0.00    +0.100 C 
ATOM     16  N   LIG    1       22.749 -21.511   5.096  0.00  0.00    -0.313 NA
ATOM     17  H   LIG    1       21.900 -21.721   4.570  0.00  0.00    +0.122 HD
ATOM     18  C   LIG    1       22.609 -20.153   5.664  0.00  0.00    +0.100 C 
ATOM     19  C   LIG    1       22.467 -19.047   4.594  0.00  0.00    +0.120 C 
ENDBRANCH   7  13
BRANCH  10  20
ATOM     20  C   LIG    1       23.912 -13.900   3.478  0.00  0.00    +0.087 C 
ATOM     21  C   LIG    1       23.490 -12.751   4.367  0.00  0.00    +0.027 C 
ATOM     22  C   LIG    1       23.676 -12.527   2.901  0.00  0.00    +0.027 C 
ENDBRANCH  10  20
BRANCH   1  24
ATOM     23  O   LIG    1       28.780 -12.223   5.001  0.00  0.00    -0.245 OA
ATOM     24  C   LIG    1       28.654 -12.961   4.030  0.00  0.00    +0.342 C 
BRANCH  24  25
ATOM     25  O   LIG    1       29.475 -12.886   2.961  0.00  0.00    -0.477 OA
ATOM     26  H   LIG    1       29.006 -12.911   2.091  0.00  0.00    +0.295 HD
ENDBRANCH  24  25
ENDBRANCH   1  24
TORSDOF 4
ENDMDL
MODEL 2
REMARK VINA RESULT:      -0.9      3.764      7.155
REMARK  Name = *****
REMARK                            x       y       z     vdW  Elec       q    Type
REMARK                         _______ _______ _______ _____ _____    ______ ____
ROOT
ATOM      1  C   LIG    1       23.876 -19.450   4.129  0.00  0.00    +0.122 C 
ATOM      2  C   LIG    1       23.132 -18.176   4.171  0.00  0.00    +0.203 C 
ATOM      3  O   LIG    1       21.916 -18.181   4.354  0.00  0.00    -0.286 OA
ATOM      4  C   LIG    1       23.891 -16.912   4.021  0.00  0.00    +0.049 C 
ATOM      5  C   LIG    1       25.290 -16.949   3.884  0.00  0.00    +0.055 C 
ATOM      6  C   LIG    1       25.966 -15.717   3.770  0.00  0.00    +0.052 C 
ATOM      7  C   LIG    1       25.300 -14.470   3.795  0.00  0.00    +0.067 C 
ATOM      8  C   LIG    1       23.903 -14.506   3.943  0.00  0.00    +0.145 C 
ATOM      9  F   LIG    1       23.182 -13.376   3.978  0.00  0.00    -0.203 F 
ATOM     10  N   LIG    1       25.953 -18.210   3.866  0.00  0.00    -0.343 NA
ATOM     11  C   LIG    1       23.198 -15.702   4.046  0.00  0.00    +0.054 C 
ATOM     12  C   LIG    1       25.210 -19.372   4.010  0.00  0.00    +0.105 C 
ENDROOT
BRANCH   7  13
ATOM     13  N   LIG    1       26.062 -13.299   3.729  0.00  0.00    -0.325 NA
ATOM     14  C   LIG    1       26.363 -12.610   5.003  0.00  0.00    +0.120 C 
ATOM     15  C   LIG    1       27.792 -12.938   5.502  0.00  0.00    +0.100 C 
ATOM     16  N   LIG    1       28.846 -12.671   4.502  0.00  0.00    -0.313 NA
ATOM     17  H   LIG    1       28.821 -11.678   4.267  0.00  0.00    +0.122 HD
ATOM     18  C   LIG    1       28.534 -13.439   3.277  0.00  0.00    +0.100 C 
ATOM     19  C   LIG    1       27.124 -13.154   2.711  0.00  0.00    +0.120 C 
ENDBRANCH   7  13
BRANCH  10  20
ATOM     20  C   LIG    1       27.426 -18.331   3.872  0.00  0.00    +0.087 C 
ATOM     21  C   LIG    1       28.287 -17.493   4.790  0.00  0.00    +0.027 C 
ATOM     22  C   LIG    1       28.181 -18.967   5.012  0.00  0.00    +0.027 C 
ENDBRANCH  10  20
BRANCH   1  24
ATOM     23  O   LIG    1       22.560 -21.130   5.180  0.00  0.00    -0.245 OA
ATOM     24  C   LIG    1       23.232 -20.774   4.218  0.00  0.00    +0.342 C 
BRANCH  24  25
ATOM     25  O   LIG    1       23.430 -21.572   3.147  0.00  0.00    -0.477 OA
ATOM     26  H   LIG    1       24.118 -21.239   2.520  0.00  0.00    +0.295 HD
ENDBRANCH  24  25
ENDBRANCH   1  24
TORSDOF 4
ENDMDL
MODEL 3
REMARK VINA RESULT:      -0.9      3.735      7.375
REMARK  Name = *****
REMARK                            x       y       z     vdW  Elec       q    Type
REMARK                         _______ _______ _______ _____ _____    ______ ____
ROOT
ATOM      1  C   LIG    1       23.233 -20.050   4.852  0.00  0.00    +0.122 C 
ATOM      2  C   LIG    1       22.885 -18.661   4.494  0.00  0.00    +0.203 C 
ATOM      3  O   LIG    1       21.717 -18.283   4.564  0.00  0.00    -0.286 OA
ATOM      4  C   LIG    1       23.976 -17.744   4.087  0.00  0.00    +0.049 C 
ATOM      5  C   LIG    1       25.307 -18.198   4.090  0.00  0.00    +0.055 C 
ATOM      6  C   LIG    1       26.310 -17.279   3.719  0.00  0.00    +0.052 C 
ATOM      7  C   LIG    1       26.029 -15.940   3.357  0.00  0.00    +0.067 C 
ATOM      8  C   LIG    1       24.679 -15.551   3.385  0.00  0.00    +0.145 C 
ATOM      9  F   LIG    1       24.312 -14.304   3.060  0.00  0.00    -0.203 F 
ATOM     10  N   LIG    1       25.580 -19.547   4.460  0.00  0.00    -0.343 NA
ATOM     11  C   LIG    1       23.660 -16.433   3.734  0.00  0.00    +0.054 C 
ATOM     12  C   LIG    1       24.534 -20.375   4.836  0.00  0.00    +0.105 C 
ENDROOT
BRANCH   7  13
ATOM     13  N   LIG    1       27.095 -15.087   3.056  0.00  0.00    -0.325 NA
ATOM     14  C   LIG    1       26.871 -14.058   2.018  0.00  0.00    +0.120 C 
ATOM     15  C   LIG    1       26.571 -12.674   2.645  0.00  0.00    +0.100 C 
ATOM     16  N   LIG    1       27.594 -12.227   3.612  0.00  0.00    -0.313 NA
ATOM     17  H   LIG    1       28.488 -12.157   3.124  0.00  0.00    +0.122 HD
ATOM     18  C   LIG    1       27.726 -13.257   4.664  0.00  0.00    +0.100 C 
ATOM     19  C   LIG    1       28.039 -14.667   4.113  0.00  0.00    +0.120 C 
ENDBRANCH   7  13
BRANCH  10  20
ATOM     20  C   LIG    1       26.956 -20.059   4.628  0.00  0.00    +0.087 C 
ATOM     21  C   LIG    1       27.956 -19.367   5.529  0.00  0.00    +0.027 C 
ATOM     22  C   LIG    1       27.426 -20.714   5.903  0.00  0.00    +0.027 C 
ENDBRANCH  10  20
BRANCH   1  24
ATOM     23  O   LIG    1       22.175 -21.571   6.344  0.00  0.00    -0.245 OA
ATOM     24  C   LIG    1       22.235 -21.069   5.227  0.00  0.00    +0.342 C 
BRANCH  24  25
ATOM     25  O   LIG    1       21.375 -21.407   4.241  0.00  0.00    -0.477 OA
ATOM     26  H   LIG    1       21.247 -20.702   3.561  0.00  0.00    +0.295 HD
ENDBRANCH  24  25
ENDBRANCH   1  24
TORSDOF 4
ENDMDL
MODEL 4
REMARK VINA RESULT:      -0.5      2.411      3.499
REMARK  Name = *****
REMARK                            x       y       z     vdW  Elec       q    Type
REMARK                         _______ _______ _______ _____ _____    ______ ____
ROOT
ATOM      1  C   LIG    1       24.195 -13.636   3.551  0.00  0.00    +0.122 C 
ATOM      2  C   LIG    1       25.564 -14.188   3.524  0.00  0.00    +0.203 C 
ATOM      3  O   LIG    1       26.525 -13.439   3.365  0.00  0.00    -0.286 OA
ATOM      4  C   LIG    1       25.739 -15.646   3.724  0.00  0.00    +0.049 C 
ATOM      5  C   LIG    1       24.617 -16.457   3.974  0.00  0.00    +0.055 C 
ATOM      6  C   LIG    1       24.841 -17.833   4.183  0.00  0.00    +0.052 C 
ATOM      7  C   LIG    1       26.130 -18.414   4.157  0.00  0.00    +0.067 C 
ATOM      8  C   LIG    1       27.207 -17.545   3.911  0.00  0.00    +0.145 C 
ATOM      9  F   LIG    1       28.467 -18.001   3.868  0.00  0.00    -0.203 F 
ATOM     10  N   LIG    1       23.323 -15.861   4.003  0.00  0.00    -0.343 NA
ATOM     11  C   LIG    1       27.025 -16.183   3.688  0.00  0.00    +0.054 C 
ATOM     12  C   LIG    1       23.198 -14.494   3.813  0.00  0.00    +0.105 C 
ENDROOT
BRANCH   7  13
ATOM     13  N   LIG    1       26.258 -19.780   4.429  0.00  0.00    -0.325 NA
ATOM     14  C   LIG    1       27.150 -20.172   5.541  0.00  0.00    +0.120 C 
ATOM     15  C   LIG    1       26.348 -20.483   6.830  0.00  0.00    +0.100 C 
ATOM     16  N   LIG    1       25.280 -21.485   6.637  0.00  0.00    -0.313 NA
ATOM     17  H   LIG    1       25.711 -22.356   6.324  0.00  0.00    +0.122 HD
ATOM     18  C   LIG    1       24.379 -21.010   5.566  0.00  0.00    +0.100 C 
ATOM     19  C   LIG    1       25.109 -20.690   4.241  0.00  0.00    +0.120 C 
ENDBRANCH   7  13
BRANCH  10  20
ATOM     20  C   LIG    1       22.114 -16.613   4.400  0.00  0.00    +0.087 C 
ATOM     21  C   LIG    1       21.505 -17.668   3.504  0.00  0.00    +0.027 C 
ATOM     22  C   LIG    1       22.158 -18.070   4.787  0.00  0.00    +0.027 C 
ENDBRANCH  10  20
BRANCH   1  24
ATOM     23  O   LIG    1       23.534 -11.447   4.209  0.00  0.00    -0.245 OA
ATOM     24  C   LIG    1       23.886 -12.213   3.318  0.00  0.00    +0.342 C 
BRANCH  24  25
ATOM     25  O   LIG    1       24.029 -11.806   2.039  0.00  0.00    -0.477 OA
ATOM     26  H   LIG    1       23.303 -11.216   1.720  0.00  0.00    +0.295 HD
ENDBRANCH  24  25
ENDBRANCH   1  24
TORSDOF 4
ENDMDL
MODEL 5
REMARK VINA RESULT:       0.3      1.864      3.361
REMARK  Name = *****
REMARK                            x       y       z     vdW  Elec       q    Type
REMARK                         _______ _______ _______ _____ _____    ______ ____
ROOT
ATOM      1  C   LIG    1       27.351 -13.975   4.093  0.00  0.00    +0.122 C 
ATOM      2  C   LIG    1       25.877 -13.972   4.019  0.00  0.00    +0.203 C 
ATOM      3  O   LIG    1       25.269 -12.908   3.920  0.00  0.00    -0.286 OA
ATOM      4  C   LIG    1       25.168 -15.274   4.037  0.00  0.00    +0.049 C 
ATOM      5  C   LIG    1       25.906 -16.470   4.080  0.00  0.00    +0.055 C 
ATOM      6  C   LIG    1       25.185 -17.682   4.068  0.00  0.00    +0.052 C 
ATOM      7  C   LIG    1       23.773 -17.734   4.009  0.00  0.00    +0.067 C 
ATOM      8  C   LIG    1       23.099 -16.501   3.959  0.00  0.00    +0.145 C 
ATOM      9  F   LIG    1       21.761 -16.447   3.901  0.00  0.00    -0.203 F 
ATOM     10  N   LIG    1       27.329 -16.407   4.134  0.00  0.00    -0.343 NA
ATOM     11  C   LIG    1       23.775 -15.285   3.981  0.00  0.00    +0.054 C 
ATOM     12  C   LIG    1       27.957 -15.172   4.115  0.00  0.00    +0.105 C 
ENDROOT
BRANCH   7  13
ATOM     13  N   LIG    1       23.148 -18.983   3.948  0.00  0.00    -0.325 NA
ATOM     14  C   LIG    1       23.859 -20.066   3.234  0.00  0.00    +0.120 C 
ATOM     15  C   LIG    1       24.586 -21.015   4.220  0.00  0.00    +0.100 C 
ATOM     16  N   LIG    1       23.704 -21.570   5.267  0.00  0.00    -0.313 NA
ATOM     17  H   LIG    1       22.964 -22.105   4.813  0.00  0.00    +0.122 HD
ATOM     18  C   LIG    1       23.076 -20.447   5.995  0.00  0.00    +0.100 C 
ATOM     19  C   LIG    1       22.319 -19.461   5.075  0.00  0.00    +0.120 C 
ENDBRANCH   7  13
BRANCH  10  20
ATOM     20  C   LIG    1       28.179 -17.612   4.036  0.00  0.00    +0.087 C 
ATOM     21  C   LIG    1       29.094 -18.032   5.165  0.00  0.00    +0.027 C 
ATOM     22  C   LIG    1       27.901 -18.866   4.827  0.00  0.00    +0.027 C 
ENDBRANCH  10  20
BRANCH   1  24
ATOM     23  O   LIG    1       28.719 -12.340   5.149  0.00  0.00    -0.245 OA
ATOM     24  C   LIG    1       28.168 -12.747   4.132  0.00  0.00    +0.342 C 
BRANCH  24  25
ATOM     25  O   LIG    1       28.275 -12.102   2.951  0.00  0.00    -0.477 OA
ATOM     26  H   LIG    1       28.614 -12.666   2.214  0.00  0.00    +0.295 HD
ENDBRANCH  24  25
ENDBRANCH   1  24
TORSDOF 4
ENDMDL
MODEL 6
REMARK VINA RESULT:       0.9      3.089      4.453
REMARK  Name = *****
REMARK                            x       y       z     vdW  Elec       q    Type
REMARK                         _______ _______ _______ _____ _____    ______ ____
ROOT
ATOM      1  C   LIG    1       24.799 -13.161   3.584  0.00  0.00    +0.122 C 
ATOM      2  C   LIG    1       24.328 -14.558   3.509  0.00  0.00    +0.203 C 
ATOM      3  O   LIG    1       23.168 -14.797   3.180  0.00  0.00    -0.286 OA
ATOM      4  C   LIG    1       25.292 -15.644   3.806  0.00  0.00    +0.049 C 
ATOM      5  C   LIG    1       26.629 -15.328   4.109  0.00  0.00    +0.055 C 
ATOM      6  C   LIG    1       27.511 -16.399   4.358  0.00  0.00    +0.052 C 
ATOM      7  C   LIG    1       27.108 -17.753   4.309  0.00  0.00    +0.067 C 
ATOM      8  C   LIG    1       25.761 -17.998   3.991  0.00  0.00    +0.145 C 
ATOM      9  F   LIG    1       25.284 -19.248   3.919  0.00  0.00    -0.203 F 
ATOM     10  N   LIG    1       27.026 -13.960   4.151  0.00  0.00    -0.343 NA
ATOM     11  C   LIG    1       24.857 -16.967   3.751  0.00  0.00    +0.054 C 
ATOM     12  C   LIG    1       26.097 -12.972   3.867  0.00  0.00    +0.105 C 
ENDROOT
BRANCH   7  13
ATOM     13  N   LIG    1       28.068 -18.749   4.518  0.00  0.00    -0.325 NA
ATOM     14  C   LIG    1       29.378 -18.328   5.061  0.00  0.00    +0.120 C 
ATOM     15  C   LIG    1       29.472 -18.591   6.585  0.00  0.00    +0.100 C 
ATOM     16  N   LIG    1       29.172 -19.986   6.966  0.00  0.00    -0.313 NA
ATOM     17  H   LIG    1       29.848 -20.597   6.505  0.00  0.00    +0.122 HD
ATOM     18  C   LIG    1       27.826 -20.330   6.461  0.00  0.00    +0.100 C 
ATOM     19  C   LIG    1       27.659 -20.105   4.941  0.00  0.00    +0.120 C 
ENDBRANCH   7  13
BRANCH  10  20
ATOM     20  C   LIG    1       28.436 -13.550   4.318  0.00  0.00    +0.087 C 
ATOM     21  C   LIG    1       29.089 -12.554   3.385  0.00  0.00    +0.027 C 
ATOM     22  C   LIG    1       28.828 -12.178   4.808  0.00  0.00    +0.027 C 
ENDBRANCH  10  20
BRANCH   1  24
ATOM     23  O   LIG    1       23.293 -11.447   4.254  0.00  0.00    -0.245 OA
ATOM     24  C   LIG    1       23.927 -11.993   3.359  0.00  0.00    +0.342 C 
BRANCH  24  25
ATOM     25  O   LIG    1       23.886 -11.558   2.081  0.00  0.00    -0.477 OA
ATOM     26  H   LIG    1       23.230 -12.034   1.515  0.00  0.00    +0.295 HD
ENDBRANCH  24  25
ENDBRANCH   1  24
TORSDOF 4
ENDMDL
MODEL 7
REMARK VINA RESULT:       1.4      2.402      3.703
REMARK  Name = *****
REMARK                            x       y       z     vdW  Elec       q    Type
REMARK                         _______ _______ _______ _____ _____    ______ ____
ROOT
ATOM      1  C   LIG    1       25.377 -13.806   3.173  0.00  0.00    +0.122 C 
ATOM      2  C   LIG    1       24.022 -14.356   3.376  0.00  0.00    +0.203 C 
ATOM      3  O   LIG    1       23.038 -13.637   3.213  0.00  0.00    -0.286 OA
ATOM      4  C   LIG    1       23.889 -15.786   3.743  0.00  0.00    +0.049 C 
ATOM      5  C   LIG    1       25.039 -16.589   3.849  0.00  0.00    +0.055 C 
ATOM      6  C   LIG    1       24.856 -17.948   4.175  0.00  0.00    +0.052 C 
ATOM      7  C   LIG    1       23.581 -18.522   4.389  0.00  0.00    +0.067 C 
ATOM      8  C   LIG    1       22.475 -17.664   4.259  0.00  0.00    +0.145 C 
ATOM      9  F   LIG    1       21.226 -18.114   4.441  0.00  0.00    -0.203 F 
ATOM     10  N   LIG    1       26.319 -16.003   3.627  0.00  0.00    -0.343 NA
ATOM     11  C   LIG    1       22.616 -16.315   3.950  0.00  0.00    +0.054 C 
ATOM     12  C   LIG    1       26.403 -14.663   3.284  0.00  0.00    +0.105 C 
ENDROOT
BRANCH   7  13
ATOM     13  N   LIG    1       23.496 -19.892   4.656  0.00  0.00    -0.325 NA
ATOM     14  C   LIG    1       24.729 -20.694   4.499  0.00  0.00    +0.120 C 
ATOM     15  C   LIG    1       25.412 -20.960   5.863  0.00  0.00    +0.100 C 
ATOM     16  N   LIG    1       24.516 -21.571   6.866  0.00  0.00    -0.313 NA
ATOM     17  H   LIG    1       24.191 -22.468   6.502  0.00  0.00    +0.122 HD
ATOM     18  C   LIG    1       23.337 -20.695   7.037  0.00  0.00    +0.100 C 
ATOM     19  C   LIG    1       22.594 -20.393   5.715  0.00  0.00    +0.120 C 
ENDBRANCH   7  13
BRANCH  10  20
ATOM     20  C   LIG    1       27.559 -16.805   3.576  0.00  0.00    +0.087 C 
ATOM     21  C   LIG    1       28.435 -16.990   4.795  0.00  0.00    +0.027 C 
ATOM     22  C   LIG    1       27.678 -18.154   4.241  0.00  0.00    +0.027 C 
ENDBRANCH  10  20
BRANCH   1  24
ATOM     23  O   LIG    1       26.704 -11.998   2.380  0.00  0.00    -0.245 OA
ATOM     24  C   LIG    1       25.643 -12.391   2.853  0.00  0.00    +0.342 C 
BRANCH  24  25
ATOM     25  O   LIG    1       24.619 -11.551   3.113  0.00  0.00    -0.477 OA
ATOM     26  H   LIG    1       24.149 -11.229   2.305  0.00  0.00    +0.295 HD
ENDBRANCH  24  25
ENDBRANCH   1  24
TORSDOF 4
ENDMDL
