MODEL 1
REMARK VINA RESULT:      -8.1      0.000      0.000
REMARK  Name = *****
REMARK                            x       y       z     vdW  Elec       q    Type
REMARK                         _______ _______ _______ _____ _____    ______ ____
ROOT
ATOM      1  C   LIG    1       24.436 -21.633   6.831  0.00  0.00    +0.129 C 
ATOM      2  C   LIG    1       25.058 -21.658   5.402  0.00  0.00    +0.236 C 
ATOM      3  O   LIG    1       24.618 -22.259   4.423  0.00  0.00    -0.274 OA
ATOM      4  N   LIG    1       26.128 -20.818   5.160  0.00  0.00    -0.239 N 
ATOM      5  H   LIG    1       26.501 -20.830   4.211  0.00  0.00    +0.159 HD
ATOM      6  C   LIG    1       26.921 -20.236   6.089  0.00  0.00    +0.312 C 
ATOM      7  O   LIG    1       28.008 -19.726   5.793  0.00  0.00    -0.252 OA
ATOM      8  N   LIG    1       26.486 -20.321   7.372  0.00  0.00    -0.239 N 
ATOM      9  H   LIG    1       27.169 -20.041   8.064  0.00  0.00    +0.159 HD
ATOM     10  C   LIG    1       25.527 -21.174   7.813  0.00  0.00    +0.236 C 
ATOM     11  O   LIG    1       25.578 -21.492   9.017  0.00  0.00    -0.274 OA
ENDROOT
BRANCH   1  12
ATOM     12  C   LIG    1       23.862 -23.086   7.218  0.00  0.00    +0.010 C 
ATOM     13  C   LIG    1       22.465 -23.400   6.658  0.00  0.00    +0.009 C 
BRANCH  12  14
ATOM     14  C   LIG    1       24.774 -24.254   6.750  0.00  0.00    +0.001 C 
ATOM     15  C   LIG    1       24.123 -25.481   6.116  0.00  0.00    +0.004 C 
ENDBRANCH  12  14
ENDBRANCH   1  12
BRANCH   1  16
ATOM     16  C   LIG    1       23.337 -20.513   6.747  0.00  0.00    +0.052 C 
BRANCH  16  18
ATOM     17  C   LIG    1       22.483 -18.938   4.856  0.00  0.00    +0.004 C 
ATOM     18  C   LIG    1       22.593 -20.113   5.488  0.00  0.00    -0.033 C 
ENDBRANCH  16  18
ENDBRANCH   1  16
TORSDOF 4
ENDMDL
MODEL 2
REMARK VINA RESULT:      -7.6      1.451      3.954
REMARK  Name = *****
REMARK                            x       y       z     vdW  Elec       q    Type
REMARK                         _______ _______ _______ _____ _____    ______ ____
ROOT
ATOM      1  C   LIG    1       24.374 -21.321   5.841  0.00  0.00    +0.129 C 
ATOM      2  C   LIG    1       24.097 -21.235   7.372  0.00  0.00    +0.236 C 
ATOM      3  O   LIG    1       23.028 -21.465   7.936  0.00  0.00    -0.274 OA
ATOM      4  N   LIG    1       25.179 -21.015   8.203  0.00  0.00    -0.239 N 
ATOM      5  H   LIG    1       24.978 -20.991   9.203  0.00  0.00    +0.159 HD
ATOM      6  C   LIG    1       26.385 -20.524   7.840  0.00  0.00    +0.312 C 
ATOM      7  O   LIG    1       27.198 -20.106   8.673  0.00  0.00    -0.252 OA
ATOM      8  N   LIG    1       26.612 -20.443   6.504  0.00  0.00    -0.239 N 
ATOM      9  H   LIG    1       27.437 -19.916   6.252  0.00  0.00    +0.159 HD
ATOM     10  C   LIG    1       25.652 -20.517   5.547  0.00  0.00    +0.236 C 
ATOM     11  O   LIG    1       25.904 -19.956   4.464  0.00  0.00    -0.274 OA
ENDROOT
BRANCH   1  12
ATOM     12  C   LIG    1       23.116 -20.758   5.011  0.00  0.00    +0.010 C 
ATOM     13  C   LIG    1       21.861 -21.646   5.055  0.00  0.00    +0.009 C 
BRANCH  12  14
ATOM     14  C   LIG    1       22.650 -19.350   5.476  0.00  0.00    +0.001 C 
ATOM     15  C   LIG    1       22.193 -18.345   4.420  0.00  0.00    +0.004 C 
ENDBRANCH  12  14
ENDBRANCH   1  12
BRANCH   1  16
ATOM     16  C   LIG    1       24.673 -22.843   5.594  0.00  0.00    +0.052 C 
BRANCH  16  18
ATOM     17  C   LIG    1       24.016 -25.272   6.271  0.00  0.00    +0.004 C 
ATOM     18  C   LIG    1       24.252 -23.975   6.511  0.00  0.00    -0.033 C 
ENDBRANCH  16  18
ENDBRANCH   1  16
TORSDOF 4
ENDMDL
MODEL 3
REMARK VINA RESULT:      -7.3      1.192      3.571
REMARK  Name = *****
REMARK                            x       y       z     vdW  Elec       q    Type
REMARK                         _______ _______ _______ _____ _____    ______ ____
ROOT
ATOM      1  C   LIG    1       25.404 -21.413   7.256  0.00  0.00    +0.129 C 
ATOM      2  C   LIG    1       26.230 -20.577   8.279  0.00  0.00    +0.236 C 
ATOM      3  O   LIG    1       25.932 -20.354   9.452  0.00  0.00    -0.274 OA
ATOM      4  N   LIG    1       27.486 -20.154   7.889  0.00  0.00    -0.239 N 
ATOM      5  H   LIG    1       28.019 -19.632   8.585  0.00  0.00    +0.159 HD
ATOM      6  C   LIG    1       27.951 -20.076   6.621  0.00  0.00    +0.312 C 
ATOM      7  O   LIG    1       28.973 -19.440   6.338  0.00  0.00    -0.252 OA
ATOM      8  N   LIG    1       27.181 -20.668   5.673  0.00  0.00    -0.239 N 
ATOM      9  H   LIG    1       27.448 -20.449   4.722  0.00  0.00    +0.159 HD
ATOM     10  C   LIG    1       25.887 -21.041   5.844  0.00  0.00    +0.236 C 
ATOM     11  O   LIG    1       25.186 -21.100   4.816  0.00  0.00    -0.274 OA
ENDROOT
BRANCH   1  12
ATOM     12  C   LIG    1       23.831 -21.128   7.439  0.00  0.00    +0.010 C 
ATOM     13  C   LIG    1       23.185 -20.312   6.308  0.00  0.00    +0.009 C 
BRANCH  12  14
ATOM     14  C   LIG    1       22.980 -22.422   7.563  0.00  0.00    +0.001 C 
ATOM     15  C   LIG    1       22.391 -23.035   6.293  0.00  0.00    +0.004 C 
ENDBRANCH  12  14
ENDBRANCH   1  12
BRANCH   1  16
ATOM     16  C   LIG    1       25.824 -22.897   7.553  0.00  0.00    +0.052 C 
BRANCH  16  18
ATOM     17  C   LIG    1       25.623 -25.313   6.595  0.00  0.00    +0.004 C 
ATOM     18  C   LIG    1       25.904 -24.005   6.520  0.00  0.00    -0.033 C 
ENDBRANCH  16  18
ENDBRANCH   1  16
TORSDOF 4
ENDMDL
MODEL 4
REMARK VINA RESULT:      -6.9      2.351      4.157
REMARK  Name = *****
REMARK                            x       y       z     vdW  Elec       q    Type
REMARK                         _______ _______ _______ _____ _____    ______ ____
ROOT
ATOM      1  C   LIG    1       25.252 -21.329   6.335  0.00  0.00    +0.129 C 
ATOM      2  C   LIG    1       23.743 -21.162   6.687  0.00  0.00    +0.236 C 
ATOM      3  O   LIG    1       23.155 -20.104   6.904  0.00  0.00    -0.274 OA
ATOM      4  N   LIG    1       22.946 -22.289   6.617  0.00  0.00    -0.239 N 
ATOM      5  H   LIG    1       21.956 -22.150   6.824  0.00  0.00    +0.159 HD
ATOM      6  C   LIG    1       23.366 -23.574   6.619  0.00  0.00    +0.312 C 
ATOM      7  O   LIG    1       22.591 -24.515   6.827  0.00  0.00    -0.252 OA
ATOM      8  N   LIG    1       24.702 -23.758   6.463  0.00  0.00    -0.239 N 
ATOM      9  H   LIG    1       25.018 -24.702   6.643  0.00  0.00    +0.159 HD
ATOM     10  C   LIG    1       25.643 -22.791   6.612  0.00  0.00    +0.236 C 
ATOM     11  O   LIG    1       26.787 -23.173   6.925  0.00  0.00    -0.274 OA
ENDROOT
BRANCH   1  12
ATOM     12  C   LIG    1       26.145 -20.303   7.196  0.00  0.00    +0.010 C 
ATOM     13  C   LIG    1       26.179 -20.585   8.707  0.00  0.00    +0.009 C 
BRANCH  12  14
ATOM     14  C   LIG    1       27.631 -20.250   6.745  0.00  0.00    +0.001 C 
ATOM     15  C   LIG    1       28.700 -19.918   7.785  0.00  0.00    +0.004 C 
ENDBRANCH  12  14
ENDBRANCH   1  12
BRANCH   1  16
ATOM     16  C   LIG    1       25.310 -21.082   4.785  0.00  0.00    +0.052 C 
BRANCH  16  18
ATOM     17  C   LIG    1       24.095 -19.088   3.628  0.00  0.00    +0.004 C 
ATOM     18  C   LIG    1       25.167 -19.731   4.111  0.00  0.00    -0.033 C 
ENDBRANCH  16  18
ENDBRANCH   1  16
TORSDOF 4
ENDMDL
MODEL 5
REMARK VINA RESULT:      -6.9      2.016      4.032
REMARK  Name = *****
REMARK                            x       y       z     vdW  Elec       q    Type
REMARK                         _______ _______ _______ _____ _____    ______ ____
ROOT
ATOM      1  C   LIG    1       25.068 -20.910   6.218  0.00  0.00    +0.129 C 
ATOM      2  C   LIG    1       25.239 -20.083   4.908  0.00  0.00    +0.236 C 
ATOM      3  O   LIG    1       26.298 -19.830   4.335  0.00  0.00    -0.274 OA
ATOM      4  N   LIG    1       24.089 -19.709   4.238  0.00  0.00    -0.239 N 
ATOM      5  H   LIG    1       24.226 -19.193   3.369  0.00  0.00    +0.159 HD
ATOM      6  C   LIG    1       22.838 -19.668   4.749  0.00  0.00    +0.312 C 
ATOM      7  O   LIG    1       21.918 -19.070   4.177  0.00  0.00    -0.252 OA
ATOM      8  N   LIG    1       22.676 -20.250   5.964  0.00  0.00    -0.239 N 
ATOM      9  H   LIG    1       21.787 -20.057   6.405  0.00  0.00    +0.159 HD
ATOM     10  C   LIG    1       23.688 -20.578   6.809  0.00  0.00    +0.236 C 
ATOM     11  O   LIG    1       23.402 -20.631   8.021  0.00  0.00    -0.274 OA
ENDROOT
BRANCH   1  12
ATOM     12  C   LIG    1       26.253 -20.570   7.253  0.00  0.00    +0.010 C 
ATOM     13  C   LIG    1       25.887 -20.745   8.736  0.00  0.00    +0.009 C 
BRANCH  12  14
ATOM     14  C   LIG    1       27.530 -21.427   7.031  0.00  0.00    +0.001 C 
ATOM     15  C   LIG    1       28.845 -20.714   6.720  0.00  0.00    +0.004 C 
ENDBRANCH  12  14
ENDBRANCH   1  12
BRANCH   1  16
ATOM     16  C   LIG    1       25.056 -22.402   5.727  0.00  0.00    +0.052 C 
BRANCH  16  18
ATOM     17  C   LIG    1       23.534 -24.325   6.607  0.00  0.00    +0.004 C 
ATOM     18  C   LIG    1       24.657 -23.595   6.573  0.00  0.00    -0.033 C 
ENDBRANCH  16  18
ENDBRANCH   1  16
TORSDOF 4
ENDMDL
MODEL 6
REMARK VINA RESULT:      -6.7      2.060      4.433
REMARK  Name = *****
REMARK                            x       y       z     vdW  Elec       q    Type
REMARK                         _______ _______ _______ _____ _____    ______ ____
ROOT
ATOM      1  C   LIG    1       24.529 -20.826   5.720  0.00  0.00    +0.129 C 
ATOM      2  C   LIG    1       24.367 -22.002   4.711  0.00  0.00    +0.236 C 
ATOM      3  O   LIG    1       24.493 -21.939   3.488  0.00  0.00    -0.274 OA
ATOM      4  N   LIG    1       24.202 -23.271   5.233  0.00  0.00    -0.239 N 
ATOM      5  H   LIG    1       24.126 -24.028   4.554  0.00  0.00    +0.159 HD
ATOM      6  C   LIG    1       23.819 -23.578   6.493  0.00  0.00    +0.312 C 
ATOM      7  O   LIG    1       23.436 -24.713   6.800  0.00  0.00    -0.252 OA
ATOM      8  N   LIG    1       23.805 -22.546   7.375  0.00  0.00    -0.239 N 
ATOM      9  H   LIG    1       23.352 -22.755   8.255  0.00  0.00    +0.159 HD
ATOM     10  C   LIG    1       23.839 -21.233   7.033  0.00  0.00    +0.236 C 
ATOM     11  O   LIG    1       23.338 -20.435   7.849  0.00  0.00    -0.274 OA
ENDROOT
BRANCH   1  12
ATOM     12  C   LIG    1       23.901 -19.475   5.113  0.00  0.00    +0.010 C 
ATOM     13  C   LIG    1       24.564 -18.978   3.818  0.00  0.00    +0.009 C 
BRANCH  12  14
ATOM     14  C   LIG    1       22.385 -19.589   4.793  0.00  0.00    +0.001 C 
ATOM     15  C   LIG    1       21.679 -18.393   4.157  0.00  0.00    +0.004 C 
ENDBRANCH  12  14
ENDBRANCH   1  12
BRANCH   1  16
ATOM     16  C   LIG    1       26.078 -20.754   5.973  0.00  0.00    +0.052 C 
BRANCH  16  18
ATOM     17  C   LIG    1       28.019 -20.315   7.655  0.00  0.00    +0.004 C 
ATOM     18  C   LIG    1       26.732 -20.426   7.301  0.00  0.00    -0.033 C 
ENDBRANCH  16  18
ENDBRANCH   1  16
TORSDOF 4
ENDMDL
MODEL 7
REMARK VINA RESULT:      -6.7      2.037      3.770
REMARK  Name = *****
REMARK                            x       y       z     vdW  Elec       q    Type
REMARK                         _______ _______ _______ _____ _____    ______ ____
ROOT
ATOM      1  C   LIG    1       24.587 -21.628   6.277  0.00  0.00    +0.129 C 
ATOM      2  C   LIG    1       23.530 -20.688   6.931  0.00  0.00    +0.236 C 
ATOM      3  O   LIG    1       23.292 -20.579   8.133  0.00  0.00    -0.274 OA
ATOM      4  N   LIG    1       22.887 -19.784   6.107  0.00  0.00    -0.239 N 
ATOM      5  H   LIG    1       22.220 -19.160   6.561  0.00  0.00    +0.159 HD
ATOM      6  C   LIG    1       22.804 -19.842   4.759  0.00  0.00    +0.312 C 
ATOM      7  O   LIG    1       21.993 -19.157   4.124  0.00  0.00    -0.252 OA
ATOM      8  N   LIG    1       23.606 -20.757   4.156  0.00  0.00    -0.239 N 
ATOM      9  H   LIG    1       23.404 -20.909   3.177  0.00  0.00    +0.159 HD
ATOM     10  C   LIG    1       24.224 -21.786   4.791  0.00  0.00    +0.236 C 
ATOM     11  O   LIG    1       24.496 -22.783   4.096  0.00  0.00    -0.274 OA
ENDROOT
BRANCH   1  12
ATOM     12  C   LIG    1       24.619 -23.048   7.034  0.00  0.00    +0.010 C 
ATOM     13  C   LIG    1       23.444 -23.984   6.704  0.00  0.00    +0.009 C 
BRANCH  12  14
ATOM     14  C   LIG    1       25.905 -23.872   6.748  0.00  0.00    +0.001 C 
ATOM     15  C   LIG    1       25.772 -25.371   6.490  0.00  0.00    +0.004 C 
ENDBRANCH  12  14
ENDBRANCH   1  12
BRANCH   1  16
ATOM     16  C   LIG    1       25.930 -20.819   6.380  0.00  0.00    +0.052 C 
BRANCH  16  18
ATOM     17  C   LIG    1       27.947 -20.209   7.912  0.00  0.00    +0.004 C 
ATOM     18  C   LIG    1       26.664 -20.507   7.669  0.00  0.00    -0.033 C 
ENDBRANCH  16  18
ENDBRANCH   1  16
TORSDOF 4
ENDMDL
MODEL 8
REMARK VINA RESULT:      -6.7      1.920      3.982
REMARK  Name = *****
REMARK                            x       y       z     vdW  Elec       q    Type
REMARK                         _______ _______ _______ _____ _____    ______ ____
ROOT
ATOM      1  C   LIG    1       25.215 -21.502   6.611  0.00  0.00    +0.129 C 
ATOM      2  C   LIG    1       25.500 -22.890   7.259  0.00  0.00    +0.236 C 
ATOM      3  O   LIG    1       25.884 -23.096   8.409  0.00  0.00    -0.274 OA
ATOM      4  N   LIG    1       25.162 -24.014   6.529  0.00  0.00    -0.239 N 
ATOM      5  H   LIG    1       25.332 -24.911   6.984  0.00  0.00    +0.159 HD
ATOM      6  C   LIG    1       24.938 -24.070   5.196  0.00  0.00    +0.312 C 
ATOM      7  O   LIG    1       24.909 -25.144   4.584  0.00  0.00    -0.252 OA
ATOM      8  N   LIG    1       24.830 -22.874   4.564  0.00  0.00    -0.239 N 
ATOM      9  H   LIG    1       24.840 -22.932   3.555  0.00  0.00    +0.159 HD
ATOM     10  C   LIG    1       25.224 -21.683   5.084  0.00  0.00    +0.236 C 
ATOM     11  O   LIG    1       25.524 -20.793   4.265  0.00  0.00    -0.274 OA
ENDROOT
BRANCH   1  12
ATOM     12  C   LIG    1       26.313 -20.426   7.087  0.00  0.00    +0.010 C 
ATOM     13  C   LIG    1       26.423 -20.243   8.609  0.00  0.00    +0.009 C 
BRANCH  12  14
ATOM     14  C   LIG    1       27.751 -20.754   6.598  0.00  0.00    +0.001 C 
ATOM     15  C   LIG    1       28.803 -21.152   7.632  0.00  0.00    +0.004 C 
ENDBRANCH  12  14
ENDBRANCH   1  12
BRANCH   1  16
ATOM     16  C   LIG    1       23.751 -21.164   7.066  0.00  0.00    +0.052 C 
BRANCH  16  18
ATOM     17  C   LIG    1       22.554 -19.532   5.424  0.00  0.00    +0.004 C 
ATOM     18  C   LIG    1       22.651 -20.650   6.157  0.00  0.00    -0.033 C 
ENDBRANCH  16  18
ENDBRANCH   1  16
TORSDOF 4
ENDMDL
MODEL 9
REMARK VINA RESULT:      -6.6      2.156      4.274
REMARK  Name = *****
REMARK                            x       y       z     vdW  Elec       q    Type
REMARK                         _______ _______ _______ _____ _____    ______ ____
ROOT
ATOM      1  C   LIG    1       23.899 -22.496   6.644  0.00  0.00    +0.129 C 
ATOM      2  C   LIG    1       24.892 -22.449   5.445  0.00  0.00    +0.236 C 
ATOM      3  O   LIG    1       25.386 -21.440   4.943  0.00  0.00    -0.274 OA
ATOM      4  N   LIG    1       25.383 -23.653   4.977  0.00  0.00    -0.239 N 
ATOM      5  H   LIG    1       26.053 -23.596   4.210  0.00  0.00    +0.159 HD
ATOM      6  C   LIG    1       24.852 -24.877   5.196  0.00  0.00    +0.312 C 
ATOM      7  O   LIG    1       25.186 -25.863   4.528  0.00  0.00    -0.252 OA
ATOM      8  N   LIG    1       23.873 -24.937   6.135  0.00  0.00    -0.239 N 
ATOM      9  H   LIG    1       23.371 -25.815   6.159  0.00  0.00    +0.159 HD
ATOM     10  C   LIG    1       23.198 -23.865   6.623  0.00  0.00    +0.236 C 
ATOM     11  O   LIG    1       22.056 -24.085   7.068  0.00  0.00    -0.274 OA
ENDROOT
BRANCH   1  12
ATOM     12  C   LIG    1       22.841 -21.287   6.544  0.00  0.00    +0.010 C 
ATOM     13  C   LIG    1       23.292 -19.976   7.209  0.00  0.00    +0.009 C 
BRANCH  12  14
ATOM     14  C   LIG    1       22.469 -20.912   5.083  0.00  0.00    +0.001 C 
ATOM     15  C   LIG    1       22.408 -19.435   4.700  0.00  0.00    +0.004 C 
ENDBRANCH  12  14
ENDBRANCH   1  12
BRANCH   1  16
ATOM     16  C   LIG    1       24.827 -22.430   7.909  0.00  0.00    +0.052 C 
BRANCH  16  18
ATOM     17  C   LIG    1       26.711 -20.655   8.208  0.00  0.00    +0.004 C 
ATOM     18  C   LIG    1       26.239 -21.876   7.928  0.00  0.00    -0.033 C 
ENDBRANCH  16  18
ENDBRANCH   1  16
TORSDOF 4
ENDMDL
