MODEL 1
REMARK VINA RESULT:      -9.9      0.000      0.000
REMARK  Name = *****
REMARK                            x       y       z     vdW  Elec       q    Type
REMARK                         _______ _______ _______ _____ _____    ______ ____
ROOT
ATOM      1  C   LIG    1       29.123 -19.847   7.891  0.00  0.00    +0.171 C 
ATOM      2  O   LIG    1       29.682 -20.748   8.507  0.00  0.00    -0.292 OA
ENDROOT
BRANCH   1   3
ATOM      3  C   LIG    1       27.763 -20.086   7.315  0.00  0.00    +0.018 A 
ATOM      4  C   LIG    1       26.733 -20.433   8.196  0.00  0.00    +0.012 A 
ATOM      5  C   LIG    1       25.466 -20.776   7.709  0.00  0.00    +0.005 A 
ATOM      6  C   LIG    1       25.188 -20.772   6.334  0.00  0.00    -0.042 A 
ATOM      7  C   LIG    1       26.220 -20.353   5.470  0.00  0.00    +0.005 A 
ATOM      8  C   LIG    1       27.491 -20.010   5.952  0.00  0.00    +0.012 A 
BRANCH   6   9
ATOM      9  C   LIG    1       23.833 -21.232   5.763  0.00  0.00    -0.013 C 
ATOM     10  C   LIG    1       23.202 -22.409   6.541  0.00  0.00    +0.015 C 
ATOM     11  C   LIG    1       24.017 -21.701   4.302  0.00  0.00    +0.015 C 
ATOM     12  C   LIG    1       22.825 -20.065   5.792  0.00  0.00    +0.015 C 
ENDBRANCH   6   9
ENDBRANCH   1   3
BRANCH   1  13
ATOM     13  C   LIG    1       29.806 -18.512   7.699  0.00  0.00    +0.159 C 
BRANCH  13  14
ATOM     14  C   LIG    1       31.224 -18.349   8.204  0.00  0.00    +0.171 C 
ATOM     15  O   LIG    1       32.161 -18.817   7.574  0.00  0.00    -0.292 OA
BRANCH  14  19
ATOM     16  C   LIG    1       32.198 -16.107  11.745  0.00  0.00    +0.120 A 
ATOM     17  C   LIG    1       32.826 -15.849  10.526  0.00  0.00    +0.046 A 
ATOM     18  C   LIG    1       32.487 -16.575   9.383  0.00  0.00    +0.015 A 
ATOM     19  C   LIG    1       31.517 -17.581   9.450  0.00  0.00    +0.018 A 
ATOM     20  C   LIG    1       30.854 -17.812  10.654  0.00  0.00    +0.015 A 
ATOM     21  C   LIG    1       31.202 -17.085  11.801  0.00  0.00    +0.046 A 
BRANCH  16  23
ATOM     22  C   LIG    1       32.433 -16.280  14.087  0.00  0.00    +0.277 C 
ATOM     23  O   LIG    1       32.486 -15.461  12.919  0.00  0.00    -0.495 OA
ENDBRANCH  16  23
ENDBRANCH  14  19
ENDBRANCH  13  14
ENDBRANCH   1  13
TORSDOF 6
ENDMDL
MODEL 2
REMARK VINA RESULT:      -9.8      3.438      5.907
REMARK  Name = *****
REMARK                            x       y       z     vdW  Elec       q    Type
REMARK                         _______ _______ _______ _____ _____    ______ ____
ROOT
ATOM      1  C   LIG    1       24.181 -21.544   6.972  0.00  0.00    +0.171 C 
ATOM      2  O   LIG    1       23.041 -21.110   6.863  0.00  0.00    -0.292 OA
ENDROOT
BRANCH   1   3
ATOM      3  C   LIG    1       24.419 -23.018   6.858  0.00  0.00    +0.018 A 
ATOM      4  C   LIG    1       25.717 -23.488   7.081  0.00  0.00    +0.012 A 
ATOM      5  C   LIG    1       26.028 -24.839   6.884  0.00  0.00    +0.005 A 
ATOM      6  C   LIG    1       25.053 -25.758   6.470  0.00  0.00    -0.042 A 
ATOM      7  C   LIG    1       23.737 -25.276   6.318  0.00  0.00    +0.005 A 
ATOM      8  C   LIG    1       23.420 -23.924   6.513  0.00  0.00    +0.012 A 
BRANCH   6   9
ATOM      9  C   LIG    1       25.384 -27.230   6.156  0.00  0.00    -0.013 C 
ATOM     10  C   LIG    1       24.161 -28.051   5.687  0.00  0.00    +0.015 C 
ATOM     11  C   LIG    1       25.933 -27.920   7.425  0.00  0.00    +0.015 C 
ATOM     12  C   LIG    1       26.448 -27.307   5.043  0.00  0.00    +0.015 C 
ENDBRANCH   6   9
ENDBRANCH   1   3
BRANCH   1  13
ATOM     13  C   LIG    1       25.337 -20.607   7.238  0.00  0.00    +0.159 C 
BRANCH  13  14
ATOM     14  C   LIG    1       26.353 -20.387   6.137  0.00  0.00    +0.171 C 
ATOM     15  O   LIG    1       26.003 -20.382   4.966  0.00  0.00    -0.292 OA
BRANCH  14  19
ATOM     16  C   LIG    1       30.469 -19.687   7.177  0.00  0.00    +0.120 A 
ATOM     17  C   LIG    1       29.696 -20.625   7.862  0.00  0.00    +0.046 A 
ATOM     18  C   LIG    1       28.367 -20.851   7.501  0.00  0.00    +0.015 A 
ATOM     19  C   LIG    1       27.789 -20.129   6.452  0.00  0.00    +0.018 A 
ATOM     20  C   LIG    1       28.570 -19.223   5.736  0.00  0.00    +0.015 A 
ATOM     21  C   LIG    1       29.902 -18.994   6.105  0.00  0.00    +0.046 A 
BRANCH  16  23
ATOM     22  C   LIG    1       31.942 -18.302   8.393  0.00  0.00    +0.277 C 
ATOM     23  O   LIG    1       31.772 -19.385   7.480  0.00  0.00    -0.495 OA
ENDBRANCH  16  23
ENDBRANCH  14  19
ENDBRANCH  13  14
ENDBRANCH   1  13
TORSDOF 6
ENDMDL
MODEL 3
REMARK VINA RESULT:      -9.8      3.487      5.935
REMARK  Name = *****
REMARK                            x       y       z     vdW  Elec       q    Type
REMARK                         _______ _______ _______ _____ _____    ______ ____
ROOT
ATOM      1  C   LIG    1       24.208 -21.765   7.510  0.00  0.00    +0.171 C 
ATOM      2  O   LIG    1       23.044 -21.500   7.786  0.00  0.00    -0.292 OA
ENDROOT
BRANCH   1   3
ATOM      3  C   LIG    1       24.560 -23.151   7.067  0.00  0.00    +0.018 A 
ATOM      4  C   LIG    1       23.523 -23.972   6.611  0.00  0.00    +0.012 A 
ATOM      5  C   LIG    1       23.767 -25.312   6.285  0.00  0.00    +0.005 A 
ATOM      6  C   LIG    1       25.051 -25.866   6.395  0.00  0.00    -0.042 A 
ATOM      7  C   LIG    1       26.093 -25.002   6.791  0.00  0.00    +0.005 A 
ATOM      8  C   LIG    1       25.854 -23.660   7.119  0.00  0.00    +0.012 A 
BRANCH   6   9
ATOM      9  C   LIG    1       25.333 -27.357   6.132  0.00  0.00    -0.013 C 
ATOM     10  C   LIG    1       25.720 -28.146   7.404  0.00  0.00    +0.015 C 
ATOM     11  C   LIG    1       26.508 -27.496   5.138  0.00  0.00    +0.015 C 
ATOM     12  C   LIG    1       24.085 -28.033   5.531  0.00  0.00    +0.015 C 
ENDBRANCH   6   9
ENDBRANCH   1   3
BRANCH   1  13
ATOM     13  C   LIG    1       25.285 -20.711   7.632  0.00  0.00    +0.159 C 
BRANCH  13  14
ATOM     14  C   LIG    1       26.196 -20.471   6.447  0.00  0.00    +0.171 C 
ATOM     15  O   LIG    1       25.740 -20.442   5.313  0.00  0.00    -0.292 OA
BRANCH  14  19
ATOM     16  C   LIG    1       30.394 -19.805   7.116  0.00  0.00    +0.120 A 
ATOM     17  C   LIG    1       29.682 -20.751   7.854  0.00  0.00    +0.046 A 
ATOM     18  C   LIG    1       28.324 -20.966   7.613  0.00  0.00    +0.015 A 
ATOM     19  C   LIG    1       27.657 -20.225   6.632  0.00  0.00    +0.018 A 
ATOM     20  C   LIG    1       28.373 -19.311   5.861  0.00  0.00    +0.015 A 
ATOM     21  C   LIG    1       29.735 -19.094   6.110  0.00  0.00    +0.046 A 
BRANCH  16  23
ATOM     22  C   LIG    1       31.979 -18.425   8.188  0.00  0.00    +0.277 C 
ATOM     23  O   LIG    1       31.720 -19.514   7.302  0.00  0.00    -0.495 OA
ENDBRANCH  16  23
ENDBRANCH  14  19
ENDBRANCH  13  14
ENDBRANCH   1  13
TORSDOF 6
ENDMDL
MODEL 4
REMARK VINA RESULT:      -9.4      3.969      9.006
REMARK  Name = *****
REMARK                            x       y       z     vdW  Elec       q    Type
REMARK                         _______ _______ _______ _____ _____    ______ ____
ROOT
ATOM      1  C   LIG    1       25.097 -20.708   5.487  0.00  0.00    +0.171 C 
ATOM      2  O   LIG    1       25.127 -20.983   4.293  0.00  0.00    -0.292 OA
ENDROOT
BRANCH   1   3
ATOM      3  C   LIG    1       26.367 -20.331   6.185  0.00  0.00    +0.018 A 
ATOM      4  C   LIG    1       27.450 -19.933   5.396  0.00  0.00    +0.012 A 
ATOM      5  C   LIG    1       28.697 -19.673   5.979  0.00  0.00    +0.005 A 
ATOM      6  C   LIG    1       28.894 -19.793   7.362  0.00  0.00    -0.042 A 
ATOM      7  C   LIG    1       27.770 -20.128   8.145  0.00  0.00    +0.005 A 
ATOM      8  C   LIG    1       26.520 -20.391   7.567  0.00  0.00    +0.012 A 
BRANCH   6   9
ATOM      9  C   LIG    1       30.273 -19.603   8.021  0.00  0.00    -0.013 C 
ATOM     10  C   LIG    1       30.290 -18.512   9.116  0.00  0.00    +0.015 C 
ATOM     11  C   LIG    1       31.307 -19.185   6.951  0.00  0.00    +0.015 C 
ATOM     12  C   LIG    1       30.733 -20.922   8.674  0.00  0.00    +0.015 C 
ENDBRANCH   6   9
ENDBRANCH   1   3
BRANCH   1  13
ATOM     13  C   LIG    1       23.796 -20.766   6.255  0.00  0.00    +0.159 C 
BRANCH  13  14
ATOM     14  C   LIG    1       23.563 -21.933   7.191  0.00  0.00    +0.171 C 
ATOM     15  O   LIG    1       22.895 -21.787   8.204  0.00  0.00    -0.292 OA
BRANCH  14  19
ATOM     16  C   LIG    1       25.246 -25.789   6.289  0.00  0.00    +0.120 A 
ATOM     17  C   LIG    1       26.019 -24.771   6.849  0.00  0.00    +0.046 A 
ATOM     18  C   LIG    1       25.454 -23.531   7.149  0.00  0.00    +0.015 A 
ATOM     19  C   LIG    1       24.102 -23.290   6.883  0.00  0.00    +0.018 A 
ATOM     20  C   LIG    1       23.314 -24.318   6.365  0.00  0.00    +0.015 A 
ATOM     21  C   LIG    1       23.887 -25.559   6.059  0.00  0.00    +0.046 A 
BRANCH  16  23
ATOM     22  C   LIG    1       24.732 -28.047   5.834  0.00  0.00    +0.277 C 
ATOM     23  O   LIG    1       25.724 -27.025   5.940  0.00  0.00    -0.495 OA
ENDBRANCH  16  23
ENDBRANCH  14  19
ENDBRANCH  13  14
ENDBRANCH   1  13
TORSDOF 6
ENDMDL
MODEL 5
REMARK VINA RESULT:      -9.1      4.204      9.601
REMARK  Name = *****
REMARK                            x       y       z     vdW  Elec       q    Type
REMARK                         _______ _______ _______ _____ _____    ______ ____
ROOT
ATOM      1  C   LIG    1       24.220 -21.306   6.849  0.00  0.00    +0.171 C 
ATOM      2  O   LIG    1       23.325 -20.522   6.552  0.00  0.00    -0.292 OA
ENDROOT
BRANCH   1   3
ATOM      3  C   LIG    1       25.595 -20.780   7.122  0.00  0.00    +0.018 A 
ATOM      4  C   LIG    1       26.396 -20.452   6.024  0.00  0.00    +0.012 A 
ATOM      5  C   LIG    1       27.728 -20.059   6.207  0.00  0.00    +0.005 A 
ATOM      6  C   LIG    1       28.292 -19.973   7.489  0.00  0.00    -0.042 A 
ATOM      7  C   LIG    1       27.445 -20.241   8.583  0.00  0.00    +0.005 A 
ATOM      8  C   LIG    1       26.112 -20.636   8.406  0.00  0.00    +0.012 A 
BRANCH   6   9
ATOM      9  C   LIG    1       29.777 -19.633   7.717  0.00  0.00    -0.013 C 
ATOM     10  C   LIG    1       30.602 -20.813   8.278  0.00  0.00    +0.015 C 
ATOM     11  C   LIG    1       29.894 -18.475   8.734  0.00  0.00    +0.015 C 
ATOM     12  C   LIG    1       30.430 -19.201   6.389  0.00  0.00    +0.015 C 
ENDBRANCH   6   9
ENDBRANCH   1   3
BRANCH   1  13
ATOM     13  C   LIG    1       23.946 -22.790   6.924  0.00  0.00    +0.159 C 
BRANCH  13  14
ATOM     14  C   LIG    1       24.533 -23.686   5.854  0.00  0.00    +0.171 C 
ATOM     15  O   LIG    1       24.808 -23.233   4.752  0.00  0.00    -0.292 OA
BRANCH  14  19
ATOM     16  C   LIG    1       25.252 -27.861   6.606  0.00  0.00    +0.120 A 
ATOM     17  C   LIG    1       24.248 -27.442   5.732  0.00  0.00    +0.046 A 
ATOM     18  C   LIG    1       24.039 -26.084   5.487  0.00  0.00    +0.015 A 
ATOM     19  C   LIG    1       24.829 -25.123   6.126  0.00  0.00    +0.018 A 
ATOM     20  C   LIG    1       25.862 -25.537   6.966  0.00  0.00    +0.015 A 
ATOM     21  C   LIG    1       26.065 -26.902   7.214  0.00  0.00    +0.046 A 
BRANCH  16  23
ATOM     22  C   LIG    1       25.005 -30.125   5.990  0.00  0.00    +0.277 C 
ATOM     23  O   LIG    1       25.510 -29.169   6.922  0.00  0.00    -0.495 OA
ENDBRANCH  16  23
ENDBRANCH  14  19
ENDBRANCH  13  14
ENDBRANCH   1  13
TORSDOF 6
ENDMDL
MODEL 6
REMARK VINA RESULT:      -9.0      1.156      1.829
REMARK  Name = *****
REMARK                            x       y       z     vdW  Elec       q    Type
REMARK                         _______ _______ _______ _____ _____    ______ ____
ROOT
ATOM      1  C   LIG    1       30.054 -19.175   6.965  0.00  0.00    +0.171 C 
ATOM      2  O   LIG    1       30.949 -19.296   6.136  0.00  0.00    -0.292 OA
ENDROOT
BRANCH   1   3
ATOM      3  C   LIG    1       28.770 -19.919   6.772  0.00  0.00    +0.018 A 
ATOM      4  C   LIG    1       28.009 -19.622   5.636  0.00  0.00    +0.012 A 
ATOM      5  C   LIG    1       26.748 -20.203   5.452  0.00  0.00    +0.005 A 
ATOM      6  C   LIG    1       26.216 -21.100   6.390  0.00  0.00    -0.042 A 
ATOM      7  C   LIG    1       27.029 -21.437   7.492  0.00  0.00    +0.005 A 
ATOM      8  C   LIG    1       28.292 -20.858   7.681  0.00  0.00    +0.012 A 
BRANCH   6   9
ATOM      9  C   LIG    1       24.796 -21.683   6.263  0.00  0.00    -0.013 C 
ATOM     10  C   LIG    1       24.351 -21.911   4.800  0.00  0.00    +0.015 C 
ATOM     11  C   LIG    1       23.776 -20.713   6.900  0.00  0.00    +0.015 C 
ATOM     12  C   LIG    1       24.716 -23.042   6.988  0.00  0.00    +0.015 C 
ENDBRANCH   6   9
ENDBRANCH   1   3
BRANCH   1  13
ATOM     13  C   LIG    1       30.236 -18.272   8.163  0.00  0.00    +0.159 C 
BRANCH  13  14
ATOM     14  C   LIG    1       31.302 -18.625   9.178  0.00  0.00    +0.171 C 
ATOM     15  O   LIG    1       31.910 -19.682   9.091  0.00  0.00    -0.292 OA
BRANCH  14  19
ATOM     16  C   LIG    1       32.477 -15.890  12.284  0.00  0.00    +0.120 A 
ATOM     17  C   LIG    1       33.024 -15.813  11.003  0.00  0.00    +0.046 A 
ATOM     18  C   LIG    1       32.620 -16.698  10.003  0.00  0.00    +0.015 A 
ATOM     19  C   LIG    1       31.666 -17.684  10.277  0.00  0.00    +0.018 A 
ATOM     20  C   LIG    1       31.083 -17.736  11.543  0.00  0.00    +0.015 A 
ATOM     21  C   LIG    1       31.496 -16.850  12.546  0.00  0.00    +0.046 A 
BRANCH  16  23
ATOM     22  C   LIG    1       32.650 -15.651  14.626  0.00  0.00    +0.277 C 
ATOM     23  O   LIG    1       32.833 -15.079  13.330  0.00  0.00    -0.495 OA
ENDBRANCH  16  23
ENDBRANCH  14  19
ENDBRANCH  13  14
ENDBRANCH   1  13
TORSDOF 6
ENDMDL
MODEL 7
REMARK VINA RESULT:      -8.9      1.381      2.174
REMARK  Name = *****
REMARK                            x       y       z     vdW  Elec       q    Type
REMARK                         _______ _______ _______ _____ _____    ______ ____
ROOT
ATOM      1  C   LIG    1       28.177 -20.724   7.575  0.00  0.00    +0.171 C 
ATOM      2  O   LIG    1       28.194 -21.177   8.713  0.00  0.00    -0.292 OA
ENDROOT
BRANCH   1   3
ATOM      3  C   LIG    1       26.879 -20.658   6.831  0.00  0.00    +0.018 A 
ATOM      4  C   LIG    1       26.915 -20.254   5.492  0.00  0.00    +0.012 A 
ATOM      5  C   LIG    1       25.728 -20.067   4.773  0.00  0.00    +0.005 A 
ATOM      6  C   LIG    1       24.476 -20.286   5.366  0.00  0.00    -0.042 A 
ATOM      7  C   LIG    1       24.466 -20.758   6.694  0.00  0.00    +0.005 A 
ATOM      8  C   LIG    1       25.651 -20.947   7.419  0.00  0.00    +0.012 A 
BRANCH   6   9
ATOM      9  C   LIG    1       23.152 -20.001   4.630  0.00  0.00    -0.013 C 
ATOM     10  C   LIG    1       22.504 -18.654   5.024  0.00  0.00    +0.015 C 
ATOM     11  C   LIG    1       22.127 -21.110   4.958  0.00  0.00    +0.015 C 
ATOM     12  C   LIG    1       23.390 -19.973   3.107  0.00  0.00    +0.015 C 
ENDBRANCH   6   9
ENDBRANCH   1   3
BRANCH   1  13
ATOM     13  C   LIG    1       29.453 -20.252   6.918  0.00  0.00    +0.159 C 
BRANCH  13  14
ATOM     14  C   LIG    1       29.837 -18.794   7.052  0.00  0.00    +0.171 C 
ATOM     15  O   LIG    1       29.582 -18.004   6.154  0.00  0.00    -0.292 OA
BRANCH  14  19
ATOM     16  C   LIG    1       31.851 -17.348  10.569  0.00  0.00    +0.120 A 
ATOM     17  C   LIG    1       32.514 -17.464   9.347  0.00  0.00    +0.046 A 
ATOM     18  C   LIG    1       31.842 -17.920   8.212  0.00  0.00    +0.015 A 
ATOM     19  C   LIG    1       30.492 -18.277   8.290  0.00  0.00    +0.018 A 
ATOM     20  C   LIG    1       29.812 -18.121   9.497  0.00  0.00    +0.015 A 
ATOM     21  C   LIG    1       30.493 -17.669  10.635  0.00  0.00    +0.046 A 
BRANCH  16  23
ATOM     22  C   LIG    1       31.686 -15.978  12.483  0.00  0.00    +0.277 C 
ATOM     23  O   LIG    1       32.439 -16.934  11.735  0.00  0.00    -0.495 OA
ENDBRANCH  16  23
ENDBRANCH  14  19
ENDBRANCH  13  14
ENDBRANCH   1  13
TORSDOF 6
ENDMDL
MODEL 8
REMARK VINA RESULT:      -8.6      6.680     10.324
REMARK  Name = *****
REMARK                            x       y       z     vdW  Elec       q    Type
REMARK                         _______ _______ _______ _____ _____    ______ ____
ROOT
ATOM      1  C   LIG    1       24.878 -27.161   5.796  0.00  0.00    +0.171 C 
ATOM      2  O   LIG    1       25.588 -27.494   4.854  0.00  0.00    -0.292 OA
ENDROOT
BRANCH   1   3
ATOM      3  C   LIG    1       24.909 -25.742   6.272  0.00  0.00    +0.018 A 
ATOM      4  C   LIG    1       23.701 -25.038   6.298  0.00  0.00    +0.012 A 
ATOM      5  C   LIG    1       23.678 -23.677   6.629  0.00  0.00    +0.005 A 
ATOM      6  C   LIG    1       24.855 -22.986   6.951  0.00  0.00    -0.042 A 
ATOM      7  C   LIG    1       26.051 -23.732   6.986  0.00  0.00    +0.005 A 
ATOM      8  C   LIG    1       26.080 -25.095   6.654  0.00  0.00    +0.012 A 
BRANCH   6   9
ATOM      9  C   LIG    1       24.875 -21.471   7.230  0.00  0.00    -0.013 C 
ATOM     10  C   LIG    1       23.466 -20.853   7.380  0.00  0.00    +0.015 C 
ATOM     11  C   LIG    1       25.569 -20.737   6.061  0.00  0.00    +0.015 C 
ATOM     12  C   LIG    1       25.647 -21.183   8.533  0.00  0.00    +0.015 C 
ENDBRANCH   6   9
ENDBRANCH   1   3
BRANCH   1  13
ATOM     13  C   LIG    1       23.993 -28.175   6.484  0.00  0.00    +0.159 C 
BRANCH  13  14
ATOM     14  C   LIG    1       24.577 -29.529   6.823  0.00  0.00    +0.171 C 
ATOM     15  O   LIG    1       24.307 -30.507   6.141  0.00  0.00    -0.292 OA
BRANCH  14  19
ATOM     16  C   LIG    1       27.352 -29.884  10.093  0.00  0.00    +0.120 A 
ATOM     17  C   LIG    1       26.832 -28.647   9.712  0.00  0.00    +0.046 A 
ATOM     18  C   LIG    1       25.921 -28.551   8.659  0.00  0.00    +0.015 A 
ATOM     19  C   LIG    1       25.525 -29.699   7.965  0.00  0.00    +0.018 A 
ATOM     20  C   LIG    1       26.005 -30.943   8.371  0.00  0.00    +0.015 A 
ATOM     21  C   LIG    1       26.925 -31.034   9.424  0.00  0.00    +0.046 A 
BRANCH  16  23
ATOM     22  C   LIG    1       28.023 -29.305  12.280  0.00  0.00    +0.277 C 
ATOM     23  O   LIG    1       28.267 -30.066  11.097  0.00  0.00    -0.495 OA
ENDBRANCH  16  23
ENDBRANCH  14  19
ENDBRANCH  13  14
ENDBRANCH   1  13
TORSDOF 6
ENDMDL
MODEL 9
REMARK VINA RESULT:      -8.4      4.323      9.605
REMARK  Name = *****
REMARK                            x       y       z     vdW  Elec       q    Type
REMARK                         _______ _______ _______ _____ _____    ______ ____
ROOT
ATOM      1  C   LIG    1       24.513 -21.697   6.734  0.00  0.00    +0.171 C 
ATOM      2  O   LIG    1       23.647 -20.872   6.468  0.00  0.00    -0.292 OA
ENDROOT
BRANCH   1   3
ATOM      3  C   LIG    1       25.931 -21.247   6.897  0.00  0.00    +0.018 A 
ATOM      4  C   LIG    1       26.630 -21.691   8.024  0.00  0.00    +0.012 A 
ATOM      5  C   LIG    1       27.922 -21.220   8.291  0.00  0.00    +0.005 A 
ATOM      6  C   LIG    1       28.553 -20.303   7.438  0.00  0.00    -0.042 A 
ATOM      7  C   LIG    1       27.857 -19.923   6.273  0.00  0.00    +0.005 A 
ATOM      8  C   LIG    1       26.563 -20.390   6.001  0.00  0.00    +0.012 A 
BRANCH   6   9
ATOM      9  C   LIG    1       29.935 -19.697   7.752  0.00  0.00    -0.013 C 
ATOM     10  C   LIG    1       29.878 -18.511   8.742  0.00  0.00    +0.015 C 
ATOM     11  C   LIG    1       30.579 -19.170   6.450  0.00  0.00    +0.015 C 
ATOM     12  C   LIG    1       30.854 -20.771   8.368  0.00  0.00    +0.015 C 
ENDBRANCH   6   9
ENDBRANCH   1   3
BRANCH   1  13
ATOM     13  C   LIG    1       24.158 -23.159   6.881  0.00  0.00    +0.159 C 
BRANCH  13  14
ATOM     14  C   LIG    1       24.658 -24.130   5.832  0.00  0.00    +0.171 C 
ATOM     15  O   LIG    1       24.970 -23.731   4.719  0.00  0.00    -0.292 OA
BRANCH  14  19
ATOM     16  C   LIG    1       25.269 -28.288   6.757  0.00  0.00    +0.120 A 
ATOM     17  C   LIG    1       26.006 -27.286   7.390  0.00  0.00    +0.046 A 
ATOM     18  C   LIG    1       25.785 -25.942   7.090  0.00  0.00    +0.015 A 
ATOM     19  C   LIG    1       24.824 -25.582   6.139  0.00  0.00    +0.018 A 
ATOM     20  C   LIG    1       24.053 -26.575   5.537  0.00  0.00    +0.015 A 
ATOM     21  C   LIG    1       24.283 -27.925   5.837  0.00  0.00    +0.046 A 
BRANCH  16  23
ATOM     22  C   LIG    1       25.572 -30.008   8.344  0.00  0.00    +0.277 C 
ATOM     23  O   LIG    1       25.438 -29.631   6.974  0.00  0.00    -0.495 OA
ENDBRANCH  16  23
ENDBRANCH  14  19
ENDBRANCH  13  14
ENDBRANCH   1  13
TORSDOF 6
ENDMDL
