MODEL 1
REMARK VINA RESULT:       4.6      0.000      0.000
REMARK  Name = *****
REMARK                            x       y       z     vdW  Elec       q    Type
REMARK                         _______ _______ _______ _____ _____    ______ ____
ROOT
ATOM      1  O   LIG    1       25.138 -16.986   3.832  0.00  0.00    -0.340 OA
ENDROOT
BRANCH   1   4
ATOM      2  C   LIG    1       24.474 -20.003   4.645  0.00  0.00    +0.241 C 
ATOM      3  C   LIG    1       25.784 -19.180   4.926  0.00  0.00    +0.219 C 
ATOM      4  C   LIG    1       26.082 -18.082   3.839  0.00  0.00    +0.181 C 
ATOM      5  C   LIG    1       26.122 -18.768   2.470  0.00  0.00    +0.197 C 
ATOM      6  O   LIG    1       25.529 -20.059   2.418  0.00  0.00    -0.346 OA
ATOM      7  C   LIG    1       24.309 -20.197   3.130  0.00  0.00    +0.281 C 
BRANCH   7   8
ATOM      8  O   LIG    1       23.800 -21.504   2.903  0.00  0.00    -0.365 OA
ATOM      9  H   LIG    1       22.852 -21.422   3.127  0.00  0.00    +0.213 HD
ENDBRANCH   7   8
BRANCH   3  10
ATOM     10  O   LIG    1       26.976 -20.052   5.124  0.00  0.00    -0.207 OA
BRANCH  10  11
ATOM     11  S   LIG    1       28.377 -19.719   5.928  0.00  0.00    +0.208 S 
ATOM     12  O   LIG    1       29.156 -20.920   6.143  0.00  0.00    -0.118 OA
ATOM     13  O   LIG    1       28.112 -18.852   7.049  0.00  0.00    -0.118 OA
BRANCH  11  14
ATOM     14  O   LIG    1       29.196 -18.738   4.928  0.00  0.00    -0.231 OA
ATOM     15  H   LIG    1       29.682 -18.045   5.418  0.00  0.00    +0.247 HD
ENDBRANCH  11  14
ENDBRANCH  10  11
ENDBRANCH   3  10
BRANCH   2  16
ATOM     16  O   LIG    1       23.219 -19.709   5.309  0.00  0.00    -0.205 OA
BRANCH  16  18
ATOM     17  O   LIG    1       21.877 -17.555   5.523  0.00  0.00    -0.118 OA
ATOM     18  S   LIG    1       22.058 -18.734   4.728  0.00  0.00    +0.208 S 
ATOM     19  O   LIG    1       20.946 -19.606   4.422  0.00  0.00    -0.118 OA
BRANCH  18  20
ATOM     20  O   LIG    1       22.570 -18.247   3.275  0.00  0.00    -0.231 OA
ATOM     21  H   LIG    1       23.391 -17.721   3.401  0.00  0.00    +0.247 HD
ENDBRANCH  18  20
ENDBRANCH  16  18
ENDBRANCH   2  16
ENDBRANCH   1   4
BRANCH   1  22
ATOM     22  C   LIG    1       25.477 -15.860   2.968  0.00  0.00    +0.284 C 
ATOM     23  C   LIG    1       24.916 -14.545   3.584  0.00  0.00    +0.241 C 
ATOM     24  C   LIG    1       26.029 -13.599   4.134  0.00  0.00    +0.218 C 
ATOM     25  C   LIG    1       27.262 -13.461   3.226  0.00  0.00    +0.174 C 
ATOM     26  C   LIG    1       27.234 -14.490   2.105  0.00  0.00    +0.197 C 
ATOM     27  O   LIG    1       26.864 -15.776   2.635  0.00  0.00    -0.346 OA
BRANCH  25  28
ATOM     28  O   LIG    1       27.409 -12.130   2.727  0.00  0.00    -0.387 OA
ATOM     29  H   LIG    1       26.572 -11.643   2.841  0.00  0.00    +0.210 HD
ENDBRANCH  25  28
BRANCH  23  30
ATOM     30  O   LIG    1       24.235 -13.743   2.583  0.00  0.00    -0.205 OA
BRANCH  30  31
ATOM     31  S   LIG    1       24.135 -12.122   2.714  0.00  0.00    +0.208 S 
ATOM     32  O   LIG    1       25.282 -11.511   2.094  0.00  0.00    -0.118 OA
ATOM     33  O   LIG    1       23.713 -11.785   4.053  0.00  0.00    -0.118 OA
BRANCH  31  34
ATOM     34  O   LIG    1       22.856 -11.759   1.812  0.00  0.00    -0.231 OA
ATOM     35  H   LIG    1       23.183 -11.174   1.095  0.00  0.00    +0.247 HD
ENDBRANCH  31  34
ENDBRANCH  30  31
ENDBRANCH  23  30
BRANCH  24  36
ATOM     36  O   LIG    1       26.601 -13.952   5.382  0.00  0.00    -0.207 OA
BRANCH  36  37
ATOM     37  S   LIG    1       28.090 -13.466   5.713  0.00  0.00    +0.208 S 
ATOM     38  O   LIG    1       28.906 -13.912   4.587  0.00  0.00    -0.118 OA
ATOM     39  O   LIG    1       28.428 -13.753   7.061  0.00  0.00    -0.118 OA
BRANCH  37  40
ATOM     40  O   LIG    1       28.039 -11.880   5.529  0.00  0.00    -0.231 OA
ATOM     41  H   LIG    1       28.963 -11.576   5.645  0.00  0.00    +0.247 HD
ENDBRANCH  37  40
ENDBRANCH  36  37
ENDBRANCH  24  36
ENDBRANCH   1  22
TORSDOF 16
ENDMDL
MODEL 2
REMARK VINA RESULT:       5.6      1.509      7.616
REMARK  Name = *****
REMARK                            x       y       z     vdW  Elec       q    Type
REMARK                         _______ _______ _______ _____ _____    ______ ____
ROOT
ATOM      1  O   LIG    1       26.445 -16.350   3.752  0.00  0.00    -0.340 OA
ENDROOT
BRANCH   1   4
ATOM      2  C   LIG    1       25.484 -13.381   4.436  0.00  0.00    +0.241 C 
ATOM      3  C   LIG    1       24.761 -14.741   4.753  0.00  0.00    +0.219 C 
ATOM      4  C   LIG    1       25.079 -15.878   3.713  0.00  0.00    +0.181 C 
ATOM      5  C   LIG    1       24.727 -15.357   2.317  0.00  0.00    +0.197 C 
ATOM      6  O   LIG    1       24.591 -13.947   2.210  0.00  0.00    -0.346 OA
ATOM      7  C   LIG    1       25.561 -13.186   2.914  0.00  0.00    +0.281 C 
BRANCH   7   8
ATOM      8  O   LIG    1       25.348 -11.810   2.632  0.00  0.00    -0.365 OA
ATOM      9  H   LIG    1       24.376 -11.716   2.672  0.00  0.00    +0.213 HD
ENDBRANCH   7   8
BRANCH   3  10
ATOM     10  O   LIG    1       23.289 -14.581   4.914  0.00  0.00    -0.207 OA
BRANCH  10  11
ATOM     11  S   LIG    1       22.205 -15.624   5.592  0.00  0.00    +0.208 S 
ATOM     12  O   LIG    1       21.202 -14.913   6.358  0.00  0.00    -0.118 OA
ATOM     13  O   LIG    1       22.898 -16.727   6.209  0.00  0.00    -0.118 OA
BRANCH  11  14
ATOM     14  O   LIG    1       21.485 -16.341   4.328  0.00  0.00    -0.231 OA
ATOM     15  H   LIG    1       20.512 -16.260   4.371  0.00  0.00    +0.247 HD
ENDBRANCH  11  14
ENDBRANCH  10  11
ENDBRANCH   3  10
BRANCH   2  16
ATOM     16  O   LIG    1       26.703 -12.978   5.111  0.00  0.00    -0.205 OA
BRANCH  16  18
ATOM     17  O   LIG    1       28.635 -14.286   4.088  0.00  0.00    -0.118 OA
ATOM     18  S   LIG    1       28.185 -12.973   4.446  0.00  0.00    +0.208 S 
ATOM     19  O   LIG    1       28.981 -12.116   5.296  0.00  0.00    -0.118 OA
BRANCH  18  20
ATOM     20  O   LIG    1       28.054 -12.131   3.073  0.00  0.00    -0.231 OA
ATOM     21  H   LIG    1       27.364 -11.442   3.202  0.00  0.00    +0.247 HD
ENDBRANCH  18  20
ENDBRANCH  16  18
ENDBRANCH   2  16
ENDBRANCH   1   4
BRANCH   1  22
ATOM     22  C   LIG    1       26.649 -17.744   3.372  0.00  0.00    +0.284 C 
ATOM     23  C   LIG    1       26.390 -18.662   4.603  0.00  0.00    +0.241 C 
ATOM     24  C   LIG    1       25.087 -19.510   4.475  0.00  0.00    +0.218 C 
ATOM     25  C   LIG    1       24.862 -20.139   3.090  0.00  0.00    +0.174 C 
ATOM     26  C   LIG    1       25.839 -19.574   2.068  0.00  0.00    +0.197 C 
ATOM     27  O   LIG    1       25.918 -18.144   2.210  0.00  0.00    -0.346 OA
BRANCH  25  28
ATOM     28  O   LIG    1       24.906 -21.567   3.140  0.00  0.00    -0.387 OA
ATOM     29  H   LIG    1       24.780 -21.930   2.243  0.00  0.00    +0.210 HD
ENDBRANCH  25  28
BRANCH  23  30
ATOM     30  O   LIG    1       27.442 -19.651   4.751  0.00  0.00    -0.205 OA
BRANCH  30  31
ATOM     31  S   LIG    1       28.068 -20.016   6.210  0.00  0.00    +0.208 S 
ATOM     32  O   LIG    1       27.039 -20.554   7.062  0.00  0.00    -0.118 OA
ATOM     33  O   LIG    1       28.932 -18.939   6.633  0.00  0.00    -0.118 OA
BRANCH  31  34
ATOM     34  O   LIG    1       29.089 -21.213   5.884  0.00  0.00    -0.231 OA
ATOM     35  H   LIG    1       29.934 -20.983   6.327  0.00  0.00    +0.247 HD
ENDBRANCH  31  34
ENDBRANCH  30  31
ENDBRANCH  23  30
BRANCH  24  36
ATOM     36  O   LIG    1       23.864 -18.833   4.710  0.00  0.00    -0.207 OA
BRANCH  36  37
ATOM     37  S   LIG    1       22.564 -19.692   5.077  0.00  0.00    +0.208 S 
ATOM     38  O   LIG    1       22.937 -21.084   4.842  0.00  0.00    -0.118 OA
ATOM     39  O   LIG    1       21.398 -19.110   4.518  0.00  0.00    -0.118 OA
BRANCH  37  40
ATOM     40  O   LIG    1       22.464 -19.599   6.668  0.00  0.00    -0.231 OA
ATOM     41  H   LIG    1       21.540 -19.335   6.856  0.00  0.00    +0.247 HD
ENDBRANCH  37  40
ENDBRANCH  36  37
ENDBRANCH  24  36
ENDBRANCH   1  22
TORSDOF 16
ENDMDL
MODEL 3
REMARK VINA RESULT:       6.0      1.347      7.572
REMARK  Name = *****
REMARK                            x       y       z     vdW  Elec       q    Type
REMARK                         _______ _______ _______ _____ _____    ______ ____
ROOT
ATOM      1  O   LIG    1       26.329 -16.427   2.991  0.00  0.00    -0.340 OA
ENDROOT
BRANCH   1   4
ATOM      2  C   LIG    1       26.156 -13.260   3.380  0.00  0.00    +0.241 C 
ATOM      3  C   LIG    1       25.829 -14.393   4.420  0.00  0.00    +0.219 C 
ATOM      4  C   LIG    1       25.322 -15.727   3.758  0.00  0.00    +0.181 C 
ATOM      5  C   LIG    1       24.112 -15.392   2.882  0.00  0.00    +0.197 C 
ATOM      6  O   LIG    1       23.963 -14.018   2.549  0.00  0.00    -0.346 OA
ATOM      7  C   LIG    1       25.163 -13.341   2.210  0.00  0.00    +0.281 C 
BRANCH   7   8
ATOM      8  O   LIG    1       24.837 -12.016   1.813  0.00  0.00    -0.365 OA
ATOM      9  H   LIG    1       25.079 -11.994   0.867  0.00  0.00    +0.213 HD
ENDBRANCH   7   8
BRANCH   3  10
ATOM     10  O   LIG    1       24.879 -13.942   5.476  0.00  0.00    -0.207 OA
BRANCH  10  11
ATOM     11  S   LIG    1       24.125 -12.484   5.632  0.00  0.00    +0.208 S 
ATOM     12  O   LIG    1       24.976 -11.523   6.304  0.00  0.00    -0.118 OA
ATOM     13  O   LIG    1       22.778 -12.670   6.107  0.00  0.00    -0.118 OA
BRANCH  11  14
ATOM     14  O   LIG    1       23.881 -11.987   4.107  0.00  0.00    -0.231 OA
ATOM     15  H   LIG    1       24.707 -11.668   3.693  0.00  0.00    +0.247 HD
ENDBRANCH  11  14
ENDBRANCH  10  11
ENDBRANCH   3  10
BRANCH   2  16
ATOM     16  O   LIG    1       27.509 -12.979   2.942  0.00  0.00    -0.205 OA
BRANCH  16  18
ATOM     17  O   LIG    1       29.472 -11.502   3.616  0.00  0.00    -0.118 OA
ATOM     18  S   LIG    1       28.777 -12.718   3.923  0.00  0.00    +0.208 S 
ATOM     19  O   LIG    1       29.475 -13.982   3.988  0.00  0.00    -0.118 OA
BRANCH  18  20
ATOM     20  O   LIG    1       28.163 -12.547   5.407  0.00  0.00    -0.231 OA
ATOM     21  H   LIG    1       28.740 -13.038   6.035  0.00  0.00    +0.247 HD
ENDBRANCH  18  20
ENDBRANCH  16  18
ENDBRANCH   2  16
ENDBRANCH   1   4
BRANCH   1  22
ATOM     22  C   LIG    1       26.442 -17.859   3.246  0.00  0.00    +0.284 C 
ATOM     23  C   LIG    1       25.606 -18.230   4.506  0.00  0.00    +0.241 C 
ATOM     24  C   LIG    1       24.330 -19.065   4.175  0.00  0.00    +0.218 C 
ATOM     25  C   LIG    1       24.543 -20.180   3.138  0.00  0.00    +0.174 C 
ATOM     26  C   LIG    1       25.904 -20.053   2.468  0.00  0.00    +0.197 C 
ATOM     27  O   LIG    1       26.144 -18.678   2.114  0.00  0.00    -0.346 OA
BRANCH  25  28
ATOM     28  O   LIG    1       24.344 -21.478   3.704  0.00  0.00    -0.387 OA
ATOM     29  H   LIG    1       24.167 -22.122   2.993  0.00  0.00    +0.210 HD
ENDBRANCH  25  28
BRANCH  23  30
ATOM     30  O   LIG    1       26.362 -19.084   5.406  0.00  0.00    -0.205 OA
BRANCH  30  31
ATOM     31  S   LIG    1       27.987 -19.002   5.493  0.00  0.00    +0.208 S 
ATOM     32  O   LIG    1       28.409 -19.130   6.863  0.00  0.00    -0.118 OA
ATOM     33  O   LIG    1       28.449 -17.930   4.642  0.00  0.00    -0.118 OA
BRANCH  31  34
ATOM     34  O   LIG    1       28.464 -20.328   4.722  0.00  0.00    -0.231 OA
ATOM     35  H   LIG    1       29.109 -20.035   4.043  0.00  0.00    +0.247 HD
ENDBRANCH  31  34
ENDBRANCH  30  31
ENDBRANCH  23  30
BRANCH  24  36
ATOM     36  O   LIG    1       23.227 -18.352   3.640  0.00  0.00    -0.207 OA
BRANCH  36  37
ATOM     37  S   LIG    1       21.942 -18.114   4.563  0.00  0.00    +0.208 S 
ATOM     38  O   LIG    1       20.794 -18.476   3.735  0.00  0.00    -0.118 OA
ATOM     39  O   LIG    1       22.030 -16.872   5.243  0.00  0.00    -0.118 OA
BRANCH  37  40
ATOM     40  O   LIG    1       22.005 -19.289   5.643  0.00  0.00    -0.231 OA
ATOM     41  H   LIG    1       21.804 -18.864   6.502  0.00  0.00    +0.247 HD
ENDBRANCH  37  40
ENDBRANCH  36  37
ENDBRANCH  24  36
ENDBRANCH   1  22
TORSDOF 16
ENDMDL
