MODEL 1
REMARK VINA RESULT:      -6.5      0.000      0.000
REMARK  Name = *****
REMARK                            x       y       z     vdW  Elec       q    Type
REMARK                         _______ _______ _______ _____ _____    ______ ____
ROOT
ATOM      1  C   LIG    1       25.658 -28.968   5.304  0.00  0.00    +0.007 C 
ENDROOT
BRANCH   1   2
ATOM      2  C   LIG    1       25.325 -30.453   5.369  0.00  0.00    +0.041 C 
BRANCH   2   3
ATOM      3  C   LIG    1       25.007 -30.830   6.800  0.00  0.00    +0.232 C 
BRANCH   3   4
ATOM      4  O   LIG    1       23.666 -31.301   6.944  0.00  0.00    -0.465 OA
BRANCH   4   5
ATOM      5  C   LIG    1       23.572 -32.626   7.142  0.00  0.00    +0.312 C 
ATOM      6  O   LIG    1       23.646 -33.488   6.240  0.00  0.00    -0.251 OA
BRANCH   5   7
ATOM      7  C   LIG    1       23.480 -32.994   8.584  0.00  0.00    +0.171 C 
BRANCH   7   8
ATOM      8  C   LIG    1       22.851 -31.881   9.406  0.00  0.00    +0.145 C 
BRANCH   8   9
ATOM      9  N   LIG    1       22.086 -32.361  10.679  0.00  0.00    +0.247 N 
ATOM     10  C   LIG    1       20.698 -32.840  10.249  0.00  0.00    +0.193 C 
ATOM     11  C   LIG    1       22.047 -31.194  11.802  0.00  0.00    +0.102 C 
ATOM     12  C   LIG    1       23.486 -30.865  12.242  0.00  0.00    +0.008 A 
ATOM     13  C   LIG    1       24.418 -31.888  12.359  0.00  0.00    -0.030 A 
ATOM     14  C   LIG    1       25.695 -31.766  12.904  0.00  0.00    +0.053 A 
ATOM     15  C   LIG    1       26.189 -30.529  13.173  0.00  0.00    +0.162 A 
ATOM     16  C   LIG    1       25.396 -29.437  12.813  0.00  0.00    +0.162 A 
ATOM     17  C   LIG    1       24.107 -33.274  12.040  0.00  0.00    +0.086 C 
ATOM     18  C   LIG    1       24.036 -29.604  12.415  0.00  0.00    +0.059 A 
ATOM     19  C   LIG    1       22.891 -33.598  11.159  0.00  0.00    +0.138 C 
BRANCH  15  20
ATOM     20  O   LIG    1       27.454 -30.568  13.660  0.00  0.00    -0.491 OA
ATOM     21  C   LIG    1       27.567 -31.207  14.918  0.00  0.00    +0.277 C 
ENDBRANCH  15  20
BRANCH  16  22
ATOM     22  O   LIG    1       25.816 -28.135  12.773  0.00  0.00    -0.491 OA
ATOM     23  C   LIG    1       26.673 -27.779  11.683  0.00  0.00    +0.277 C 
ENDBRANCH  16  22
BRANCH  11  24
ATOM     24  C   LIG    1       20.899 -31.386  12.959  0.00  0.00    +0.095 C 
BRANCH  24  25
ATOM     25  C   LIG    1       20.026 -30.248  13.501  0.00  0.00    -0.038 A 
ATOM     26  C   LIG    1       20.640 -29.087  13.931  0.00  0.00    +0.053 A 
ATOM     27  C   LIG    1       20.164 -27.929  14.550  0.00  0.00    +0.162 A 
ATOM     28  C   LIG    1       18.788 -27.901  14.601  0.00  0.00    +0.162 A 
ATOM     29  C   LIG    1       18.064 -29.010  14.077  0.00  0.00    +0.050 A 
ATOM     30  C   LIG    1       18.663 -30.176  13.551  0.00  0.00    +0.007 A 
BRANCH  28  31
ATOM     31  O   LIG    1       18.187 -26.797  15.149  0.00  0.00    -0.491 OA
ATOM     32  C   LIG    1       16.957 -26.431  14.531  0.00  0.00    +0.277 C 
ENDBRANCH  28  31
BRANCH  27  33
ATOM     33  O   LIG    1       20.903 -26.815  14.881  0.00  0.00    -0.491 OA
ATOM     34  C   LIG    1       22.086 -26.394  14.194  0.00  0.00    +0.277 C 
ENDBRANCH  27  33
ENDBRANCH  24  25
ENDBRANCH  11  24
ENDBRANCH   8   9
ENDBRANCH   7   8
ENDBRANCH   5   7
ENDBRANCH   4   5
ENDBRANCH   3   4
ENDBRANCH   2   3
ENDBRANCH   1   2
BRANCH   1  35
ATOM     35  C   LIG    1       24.855 -28.141   6.298  0.00  0.00    +0.041 C 
BRANCH  35  36
ATOM     36  C   LIG    1       24.020 -27.111   5.563  0.00  0.00    +0.232 C 
BRANCH  36  37
ATOM     37  O   LIG    1       24.834 -26.218   4.818  0.00  0.00    -0.465 OA
BRANCH  37  38
ATOM     38  C   LIG    1       25.171 -25.110   5.471  0.00  0.00    +0.312 C 
ATOM     39  O   LIG    1       26.347 -24.853   5.953  0.00  0.00    -0.251 OA
BRANCH  38  40
ATOM     40  C   LIG    1       24.096 -24.125   5.508  0.00  0.00    +0.171 C 
BRANCH  40  41
ATOM     41  C   LIG    1       24.616 -22.795   4.980  0.00  0.00    +0.145 C 
BRANCH  41  43
ATOM     42  C   LIG    1       25.223 -20.385   5.673  0.00  0.00    +0.102 C 
ATOM     43  N   LIG    1       24.258 -21.618   5.908  0.00  0.00    +0.247 N 
ATOM     44  C   LIG    1       22.781 -21.252   5.732  0.00  0.00    +0.193 C 
ATOM     45  C   LIG    1       24.371 -21.952   7.431  0.00  0.00    +0.138 C 
ATOM     46  C   LIG    1       25.735 -22.446   7.844  0.00  0.00    +0.086 C 
ATOM     47  C   LIG    1       26.782 -21.463   7.459  0.00  0.00    -0.030 A 
ATOM     48  C   LIG    1       27.978 -21.468   8.204  0.00  0.00    +0.053 A 
ATOM     49  C   LIG    1       29.082 -20.665   7.891  0.00  0.00    +0.162 A 
ATOM     50  C   LIG    1       28.982 -19.908   6.715  0.00  0.00    +0.162 A 
ATOM     51  C   LIG    1       27.754 -19.951   5.972  0.00  0.00    +0.059 A 
ATOM     52  C   LIG    1       26.611 -20.642   6.345  0.00  0.00    +0.008 A 
BRANCH  50  53
ATOM     53  O   LIG    1       30.009 -19.116   6.233  0.00  0.00    -0.491 OA
ATOM     54  C   LIG    1       29.560 -18.042   5.371  0.00  0.00    +0.277 C 
ENDBRANCH  50  53
BRANCH  49  55
ATOM     55  O   LIG    1       30.034 -20.876   8.840  0.00  0.00    -0.491 OA
ATOM     56  C   LIG    1       31.349 -21.339   8.608  0.00  0.00    +0.277 C 
ENDBRANCH  49  55
BRANCH  42  57
ATOM     57  C   LIG    1       25.240 -19.700   4.215  0.00  0.00    +0.095 C 
BRANCH  57  61
ATOM     58  C   LIG    1       24.880 -15.339   3.550  0.00  0.00    +0.162 A 
ATOM     59  C   LIG    1       26.115 -15.988   3.476  0.00  0.00    +0.162 A 
ATOM     60  C   LIG    1       26.178 -17.397   3.609  0.00  0.00    +0.053 A 
ATOM     61  C   LIG    1       25.066 -18.204   3.901  0.00  0.00    -0.038 A 
ATOM     62  C   LIG    1       23.844 -17.522   4.047  0.00  0.00    +0.007 A 
ATOM     63  C   LIG    1       23.750 -16.116   3.855  0.00  0.00    +0.050 A 
BRANCH  58  65
ATOM     64  C   LIG    1       24.521 -13.589   1.975  0.00  0.00    +0.277 C 
ATOM     65  O   LIG    1       24.827 -13.993   3.311  0.00  0.00    -0.491 OA
ENDBRANCH  58  65
BRANCH  59  66
ATOM     66  O   LIG    1       27.336 -15.451   3.158  0.00  0.00    -0.491 OA
ATOM     67  C   LIG    1       27.717 -14.192   3.703  0.00  0.00    +0.277 C 
ENDBRANCH  59  66
ENDBRANCH  57  61
ENDBRANCH  42  57
ENDBRANCH  41  43
ENDBRANCH  40  41
ENDBRANCH  38  40
ENDBRANCH  37  38
ENDBRANCH  36  37
ENDBRANCH  35  36
ENDBRANCH   1  35
TORSDOF 26
ENDMDL
MODEL 2
REMARK VINA RESULT:      -6.4      1.759     13.037
REMARK  Name = *****
REMARK                            x       y       z     vdW  Elec       q    Type
REMARK                         _______ _______ _______ _____ _____    ______ ____
ROOT
ATOM      1  C   LIG    1       24.361 -27.815   6.084  0.00  0.00    +0.007 C 
ENDROOT
BRANCH   1   2
ATOM      2  C   LIG    1       25.593 -27.437   6.895  0.00  0.00    +0.041 C 
BRANCH   2   3
ATOM      3  C   LIG    1       26.518 -26.601   6.037  0.00  0.00    +0.232 C 
BRANCH   3   4
ATOM      4  O   LIG    1       25.829 -25.529   5.393  0.00  0.00    -0.465 OA
BRANCH   4   5
ATOM      5  C   LIG    1       25.486 -24.527   6.220  0.00  0.00    +0.312 C 
ATOM      6  O   LIG    1       26.285 -23.903   6.951  0.00  0.00    -0.251 OA
BRANCH   5   7
ATOM      7  C   LIG    1       24.051 -24.141   6.103  0.00  0.00    +0.171 C 
BRANCH   7   8
ATOM      8  C   LIG    1       23.846 -23.062   5.052  0.00  0.00    +0.145 C 
BRANCH   8   9
ATOM      9  N   LIG    1       22.965 -21.860   5.513  0.00  0.00    +0.247 N 
ATOM     10  C   LIG    1       21.550 -22.070   4.970  0.00  0.00    +0.193 C 
ATOM     11  C   LIG    1       23.628 -20.453   5.060  0.00  0.00    +0.102 C 
ATOM     12  C   LIG    1       24.997 -20.292   5.745  0.00  0.00    +0.008 A 
ATOM     13  C   LIG    1       25.164 -20.731   7.053  0.00  0.00    -0.030 A 
ATOM     14  C   LIG    1       26.284 -20.501   7.850  0.00  0.00    +0.053 A 
ATOM     15  C   LIG    1       27.408 -19.984   7.289  0.00  0.00    +0.162 A 
ATOM     16  C   LIG    1       27.390 -19.781   5.906  0.00  0.00    +0.162 A 
ATOM     17  C   LIG    1       24.102 -21.384   7.804  0.00  0.00    +0.086 C 
ATOM     18  C   LIG    1       26.179 -19.870   5.157  0.00  0.00    +0.059 A 
ATOM     19  C   LIG    1       22.910 -22.001   7.057  0.00  0.00    +0.138 C 
BRANCH  15  20
ATOM     20  O   LIG    1       28.423 -19.855   8.179  0.00  0.00    -0.491 OA
ATOM     21  C   LIG    1       29.150 -21.049   8.399  0.00  0.00    +0.277 C 
ENDBRANCH  15  20
BRANCH  16  22
ATOM     22  O   LIG    1       28.486 -19.510   5.134  0.00  0.00    -0.491 OA
ATOM     23  C   LIG    1       29.350 -18.469   5.603  0.00  0.00    +0.277 C 
ENDBRANCH  16  22
BRANCH  11  24
ATOM     24  C   LIG    1       22.599 -19.173   5.056  0.00  0.00    +0.095 C 
BRANCH  24  25
ATOM     25  C   LIG    1       23.021 -17.732   4.747  0.00  0.00    -0.038 A 
ATOM     26  C   LIG    1       24.218 -17.516   4.091  0.00  0.00    +0.053 A 
ATOM     27  C   LIG    1       24.925 -16.361   3.752  0.00  0.00    +0.162 A 
ATOM     28  C   LIG    1       24.196 -15.219   4.002  0.00  0.00    +0.162 A 
ATOM     29  C   LIG    1       22.900 -15.351   4.576  0.00  0.00    +0.050 A 
ATOM     30  C   LIG    1       22.320 -16.580   4.963  0.00  0.00    +0.007 A 
BRANCH  28  31
ATOM     31  O   LIG    1       24.759 -14.013   3.675  0.00  0.00    -0.491 OA
ATOM     32  C   LIG    1       24.480 -13.575   2.349  0.00  0.00    +0.277 C 
ENDBRANCH  28  31
BRANCH  27  33
ATOM     33  O   LIG    1       26.104 -16.301   3.043  0.00  0.00    -0.491 OA
ATOM     34  C   LIG    1       27.367 -16.765   3.531  0.00  0.00    +0.277 C 
ENDBRANCH  27  33
ENDBRANCH  24  25
ENDBRANCH  11  24
ENDBRANCH   8   9
ENDBRANCH   7   8
ENDBRANCH   5   7
ENDBRANCH   4   5
ENDBRANCH   3   4
ENDBRANCH   2   3
ENDBRANCH   1   2
BRANCH   1  35
ATOM     35  C   LIG    1       24.631 -28.935   5.089  0.00  0.00    +0.041 C 
BRANCH  35  36
ATOM     36  C   LIG    1       24.939 -30.222   5.828  0.00  0.00    +0.232 C 
BRANCH  36  37
ATOM     37  O   LIG    1       23.834 -30.649   6.612  0.00  0.00    -0.465 OA
BRANCH  37  38
ATOM     38  C   LIG    1       23.667 -31.968   6.648  0.00  0.00    +0.312 C 
ATOM     39  O   LIG    1       23.191 -32.689   5.682  0.00  0.00    -0.251 OA
BRANCH  38  40
ATOM     40  C   LIG    1       24.183 -32.571   7.872  0.00  0.00    +0.171 C 
BRANCH  40  41
ATOM     41  C   LIG    1       24.477 -31.474   8.886  0.00  0.00    +0.145 C 
BRANCH  41  43
ATOM     42  C   LIG    1       25.215 -31.471  11.358  0.00  0.00    +0.102 C 
ATOM     43  N   LIG    1       25.590 -31.876   9.874  0.00  0.00    +0.247 N 
ATOM     44  C   LIG    1       25.894 -33.370   9.729  0.00  0.00    +0.193 C 
ATOM     45  C   LIG    1       26.968 -31.195   9.590  0.00  0.00    +0.138 C 
ATOM     46  C   LIG    1       26.908 -29.688   9.576  0.00  0.00    +0.086 C 
ATOM     47  C   LIG    1       26.340 -29.178  10.852  0.00  0.00    -0.030 A 
ATOM     48  C   LIG    1       26.697 -27.871  11.242  0.00  0.00    +0.053 A 
ATOM     49  C   LIG    1       26.162 -27.232  12.367  0.00  0.00    +0.162 A 
ATOM     50  C   LIG    1       25.155 -27.926  13.052  0.00  0.00    +0.162 A 
ATOM     51  C   LIG    1       24.804 -29.246  12.607  0.00  0.00    +0.059 A 
ATOM     52  C   LIG    1       25.419 -29.937  11.574  0.00  0.00    +0.008 A 
BRANCH  50  53
ATOM     53  O   LIG    1       24.481 -27.405  14.142  0.00  0.00    -0.491 OA
ATOM     54  C   LIG    1       23.063 -27.216  13.914  0.00  0.00    +0.277 C 
ENDBRANCH  50  53
BRANCH  49  55
ATOM     55  O   LIG    1       26.761 -26.016  12.480  0.00  0.00    -0.491 OA
ATOM     56  C   LIG    1       27.192 -25.410  13.682  0.00  0.00    +0.277 C 
ENDBRANCH  49  55
BRANCH  42  57
ATOM     57  C   LIG    1       23.898 -32.126  12.015  0.00  0.00    +0.095 C 
BRANCH  57  61
ATOM     58  C   LIG    1       19.617 -31.461  11.109  0.00  0.00    +0.162 A 
ATOM     59  C   LIG    1       20.232 -30.856  12.208  0.00  0.00    +0.162 A 
ATOM     60  C   LIG    1       21.623 -31.024  12.416  0.00  0.00    +0.053 A 
ATOM     61  C   LIG    1       22.438 -31.846  11.620  0.00  0.00    -0.038 A 
ATOM     62  C   LIG    1       21.784 -32.506  10.564  0.00  0.00    +0.007 A 
ATOM     63  C   LIG    1       20.401 -32.301  10.301  0.00  0.00    +0.050 A 
BRANCH  58  65
ATOM     64  C   LIG    1       17.343 -32.055  11.497  0.00  0.00    +0.277 C 
ATOM     65  O   LIG    1       18.296 -31.199  10.865  0.00  0.00    -0.491 OA
ENDBRANCH  58  65
BRANCH  59  66
ATOM     66  O   LIG    1       19.685 -29.975  13.105  0.00  0.00    -0.491 OA
ATOM     67  C   LIG    1       19.957 -30.123  14.494  0.00  0.00    +0.277 C 
ENDBRANCH  59  66
ENDBRANCH  57  61
ENDBRANCH  42  57
ENDBRANCH  41  43
ENDBRANCH  40  41
ENDBRANCH  38  40
ENDBRANCH  37  38
ENDBRANCH  36  37
ENDBRANCH  35  36
ENDBRANCH   1  35
TORSDOF 26
ENDMDL
MODEL 3
REMARK VINA RESULT:      -6.3      1.479     12.915
REMARK  Name = *****
REMARK                            x       y       z     vdW  Elec       q    Type
REMARK                         _______ _______ _______ _____ _____    ______ ____
ROOT
ATOM      1  C   LIG    1       25.087 -28.735   5.338  0.00  0.00    +0.007 C 
ENDROOT
BRANCH   1   2
ATOM      2  C   LIG    1       25.124 -27.674   6.430  0.00  0.00    +0.041 C 
BRANCH   2   3
ATOM      3  C   LIG    1       26.293 -26.745   6.184  0.00  0.00    +0.232 C 
BRANCH   3   4
ATOM      4  O   LIG    1       25.884 -25.519   5.576  0.00  0.00    -0.465 OA
BRANCH   4   5
ATOM      5  C   LIG    1       25.457 -24.593   6.449  0.00  0.00    +0.312 C 
ATOM      6  O   LIG    1       26.181 -24.024   7.294  0.00  0.00    -0.251 OA
BRANCH   5   7
ATOM      7  C   LIG    1       24.030 -24.213   6.244  0.00  0.00    +0.171 C 
BRANCH   7   8
ATOM      8  C   LIG    1       23.883 -23.163   5.155  0.00  0.00    +0.145 C 
BRANCH   8   9
ATOM      9  N   LIG    1       22.990 -21.942   5.540  0.00  0.00    +0.247 N 
ATOM     10  C   LIG    1       21.583 -22.190   4.992  0.00  0.00    +0.193 C 
ATOM     11  C   LIG    1       23.651 -20.558   5.020  0.00  0.00    +0.102 C 
ATOM     12  C   LIG    1       25.011 -20.352   5.712  0.00  0.00    +0.008 A 
ATOM     13  C   LIG    1       25.164 -20.719   7.043  0.00  0.00    -0.030 A 
ATOM     14  C   LIG    1       26.273 -20.440   7.840  0.00  0.00    +0.053 A 
ATOM     15  C   LIG    1       27.401 -19.947   7.265  0.00  0.00    +0.162 A 
ATOM     16  C   LIG    1       27.399 -19.819   5.873  0.00  0.00    +0.162 A 
ATOM     17  C   LIG    1       24.097 -21.338   7.815  0.00  0.00    +0.086 C 
ATOM     18  C   LIG    1       26.198 -19.955   5.115  0.00  0.00    +0.059 A 
ATOM     19  C   LIG    1       22.917 -22.001   7.089  0.00  0.00    +0.138 C 
BRANCH  15  20
ATOM     20  O   LIG    1       28.405 -19.764   8.158  0.00  0.00    -0.491 OA
ATOM     21  C   LIG    1       29.403 -20.766   8.115  0.00  0.00    +0.277 C 
ENDBRANCH  15  20
BRANCH  16  22
ATOM     22  O   LIG    1       28.503 -19.583   5.100  0.00  0.00    -0.491 OA
ATOM     23  C   LIG    1       29.186 -18.346   5.333  0.00  0.00    +0.277 C 
ENDBRANCH  16  22
BRANCH  11  24
ATOM     24  C   LIG    1       22.615 -19.286   4.934  0.00  0.00    +0.095 C 
BRANCH  24  25
ATOM     25  C   LIG    1       23.049 -17.840   4.672  0.00  0.00    -0.038 A 
ATOM     26  C   LIG    1       24.256 -17.614   4.036  0.00  0.00    +0.053 A 
ATOM     27  C   LIG    1       24.974 -16.453   3.738  0.00  0.00    +0.162 A 
ATOM     28  C   LIG    1       24.249 -15.314   4.013  0.00  0.00    +0.162 A 
ATOM     29  C   LIG    1       22.946 -15.454   4.568  0.00  0.00    +0.050 A 
ATOM     30  C   LIG    1       22.354 -16.690   4.913  0.00  0.00    +0.007 A 
BRANCH  28  31
ATOM     31  O   LIG    1       24.824 -14.103   3.727  0.00  0.00    -0.491 OA
ATOM     32  C   LIG    1       24.475 -13.575   2.450  0.00  0.00    +0.277 C 
ENDBRANCH  28  31
BRANCH  27  33
ATOM     33  O   LIG    1       26.161 -16.381   3.044  0.00  0.00    -0.491 OA
ATOM     34  C   LIG    1       27.317 -15.665   3.488  0.00  0.00    +0.277 C 
ENDBRANCH  27  33
ENDBRANCH  24  25
ENDBRANCH  11  24
ENDBRANCH   8   9
ENDBRANCH   7   8
ENDBRANCH   5   7
ENDBRANCH   4   5
ENDBRANCH   3   4
ENDBRANCH   2   3
ENDBRANCH   1   2
BRANCH   1  35
ATOM     35  C   LIG    1       25.180 -30.151   5.891  0.00  0.00    +0.041 C 
BRANCH  35  36
ATOM     36  C   LIG    1       24.038 -30.410   6.852  0.00  0.00    +0.232 C 
BRANCH  36  37
ATOM     37  O   LIG    1       24.486 -31.073   8.026  0.00  0.00    -0.465 OA
BRANCH  37  38
ATOM     38  C   LIG    1       24.618 -30.280   9.084  0.00  0.00    +0.312 C 
ATOM     39  O   LIG    1       25.638 -29.516   9.324  0.00  0.00    -0.251 OA
BRANCH  38  40
ATOM     40  C   LIG    1       23.430 -30.259   9.930  0.00  0.00    +0.171 C 
BRANCH  40  41
ATOM     41  C   LIG    1       23.191 -31.653  10.493  0.00  0.00    +0.145 C 
BRANCH  41  43
ATOM     42  C   LIG    1       23.055 -30.166  12.597  0.00  0.00    +0.102 C 
ATOM     43  N   LIG    1       23.005 -31.640  12.023  0.00  0.00    +0.247 N 
ATOM     44  C   LIG    1       21.710 -32.372  12.390  0.00  0.00    +0.193 C 
ATOM     45  C   LIG    1       24.103 -32.432  12.804  0.00  0.00    +0.138 C 
ATOM     46  C   LIG    1       25.507 -31.956  12.523  0.00  0.00    +0.086 C 
ATOM     47  C   LIG    1       25.629 -30.501  12.805  0.00  0.00    -0.030 A 
ATOM     48  C   LIG    1       26.911 -30.011  13.125  0.00  0.00    +0.053 A 
ATOM     49  C   LIG    1       27.187 -28.651  13.318  0.00  0.00    +0.162 A 
ATOM     50  C   LIG    1       26.129 -27.765  13.074  0.00  0.00    +0.162 A 
ATOM     51  C   LIG    1       24.845 -28.306  12.725  0.00  0.00    +0.059 A 
ATOM     52  C   LIG    1       24.531 -29.654  12.659  0.00  0.00    +0.008 A 
BRANCH  50  53
ATOM     53  O   LIG    1       26.258 -26.389  13.155  0.00  0.00    -0.491 OA
ATOM     54  C   LIG    1       25.266 -25.762  14.004  0.00  0.00    +0.277 C 
ENDBRANCH  50  53
BRANCH  49  55
ATOM     55  O   LIG    1       28.498 -28.537  13.667  0.00  0.00    -0.491 OA
ATOM     56  C   LIG    1       29.079 -28.991  14.872  0.00  0.00    +0.277 C 
ENDBRANCH  49  55
BRANCH  42  57
ATOM     57  C   LIG    1       21.944 -29.114  12.092  0.00  0.00    +0.095 C 
BRANCH  57  61
ATOM     58  C   LIG    1       18.624 -27.279  14.372  0.00  0.00    +0.162 A 
ATOM     59  C   LIG    1       18.773 -28.666  14.290  0.00  0.00    +0.162 A 
ATOM     60  C   LIG    1       19.897 -29.214  13.624  0.00  0.00    +0.053 A 
ATOM     61  C   LIG    1       20.857 -28.444  12.949  0.00  0.00    -0.038 A 
ATOM     62  C   LIG    1       20.647 -27.053  12.979  0.00  0.00    +0.007 A 
ATOM     63  C   LIG    1       19.561 -26.480  13.695  0.00  0.00    +0.050 A 
BRANCH  58  65
ATOM     64  C   LIG    1       16.405 -26.416  14.402  0.00  0.00    +0.277 C 
ATOM     65  O   LIG    1       17.593 -26.769  15.112  0.00  0.00    -0.491 OA
ENDBRANCH  58  65
BRANCH  59  66
ATOM     66  O   LIG    1       18.015 -29.635  14.894  0.00  0.00    -0.491 OA
ATOM     67  C   LIG    1       16.783 -30.036  14.305  0.00  0.00    +0.277 C 
ENDBRANCH  59  66
ENDBRANCH  57  61
ENDBRANCH  42  57
ENDBRANCH  41  43
ENDBRANCH  40  41
ENDBRANCH  38  40
ENDBRANCH  37  38
ENDBRANCH  36  37
ENDBRANCH  35  36
ENDBRANCH   1  35
TORSDOF 26
ENDMDL
MODEL 4
REMARK VINA RESULT:      -6.0      2.129     13.008
REMARK  Name = *****
REMARK                            x       y       z     vdW  Elec       q    Type
REMARK                         _______ _______ _______ _____ _____    ______ ____
ROOT
ATOM      1  C   LIG    1       25.154 -29.260   6.315  0.00  0.00    +0.007 C 
ENDROOT
BRANCH   1   2
ATOM      2  C   LIG    1       25.114 -28.335   5.106  0.00  0.00    +0.041 C 
BRANCH   2   3
ATOM      3  C   LIG    1       24.114 -27.227   5.358  0.00  0.00    +0.232 C 
BRANCH   3   4
ATOM      4  O   LIG    1       24.517 -26.377   6.433  0.00  0.00    -0.465 OA
BRANCH   4   5
ATOM      5  C   LIG    1       25.279 -25.339   6.051  0.00  0.00    +0.312 C 
ATOM      6  O   LIG    1       26.481 -25.423   5.718  0.00  0.00    -0.251 OA
BRANCH   5   7
ATOM      7  C   LIG    1       24.515 -24.062   5.949  0.00  0.00    +0.171 C 
BRANCH   7   8
ATOM      8  C   LIG    1       25.338 -22.970   5.285  0.00  0.00    +0.145 C 
BRANCH   8   9
ATOM      9  N   LIG    1       24.596 -21.610   5.107  0.00  0.00    +0.247 N 
ATOM     10  C   LIG    1       23.436 -21.823   4.132  0.00  0.00    +0.193 C 
ATOM     11  C   LIG    1       25.624 -20.448   4.643  0.00  0.00    +0.102 C 
ATOM     12  C   LIG    1       26.684 -20.239   5.741  0.00  0.00    +0.008 A 
ATOM     13  C   LIG    1       26.311 -20.321   7.076  0.00  0.00    -0.030 A 
ATOM     14  C   LIG    1       27.116 -19.991   8.166  0.00  0.00    +0.053 A 
ATOM     15  C   LIG    1       28.439 -19.756   7.971  0.00  0.00    +0.162 A 
ATOM     16  C   LIG    1       28.931 -19.934   6.675  0.00  0.00    +0.162 A 
ATOM     17  C   LIG    1       24.955 -20.642   7.495  0.00  0.00    +0.086 C 
ATOM     18  C   LIG    1       28.052 -20.107   5.563  0.00  0.00    +0.059 A 
ATOM     19  C   LIG    1       23.994 -21.321   6.508  0.00  0.00    +0.138 C 
BRANCH  15  20
ATOM     20  O   LIG    1       29.097 -19.488   9.126  0.00  0.00    -0.491 OA
ATOM     21  C   LIG    1       29.955 -18.365   9.051  0.00  0.00    +0.277 C 
ENDBRANCH  15  20
BRANCH  16  22
ATOM     22  O   LIG    1       30.254 -19.988   6.332  0.00  0.00    -0.491 OA
ATOM     23  C   LIG    1       31.129 -19.106   7.044  0.00  0.00    +0.277 C 
ENDBRANCH  16  22
BRANCH  11  24
ATOM     24  C   LIG    1       24.918 -19.125   3.974  0.00  0.00    +0.095 C 
BRANCH  24  25
ATOM     25  C   LIG    1       25.619 -17.773   3.797  0.00  0.00    -0.038 A 
ATOM     26  C   LIG    1       24.847 -16.627   3.754  0.00  0.00    +0.053 A 
ATOM     27  C   LIG    1       25.147 -15.284   3.515  0.00  0.00    +0.162 A 
ATOM     28  C   LIG    1       26.506 -15.062   3.457  0.00  0.00    +0.162 A 
ATOM     29  C   LIG    1       27.384 -16.173   3.604  0.00  0.00    +0.050 A 
ATOM     30  C   LIG    1       26.958 -17.512   3.754  0.00  0.00    +0.007 A 
BRANCH  28  31
ATOM     31  O   LIG    1       26.940 -13.776   3.267  0.00  0.00    -0.491 OA
ATOM     32  C   LIG    1       28.339 -13.593   3.465  0.00  0.00    +0.277 C 
ENDBRANCH  28  31
BRANCH  27  33
ATOM     33  O   LIG    1       24.264 -14.228   3.552  0.00  0.00    -0.491 OA
ATOM     34  C   LIG    1       23.717 -13.672   4.753  0.00  0.00    +0.277 C 
ENDBRANCH  27  33
ENDBRANCH  24  25
ENDBRANCH  11  24
ENDBRANCH   8   9
ENDBRANCH   7   8
ENDBRANCH   5   7
ENDBRANCH   4   5
ENDBRANCH   3   4
ENDBRANCH   2   3
ENDBRANCH   1   2
BRANCH   1  35
ATOM     35  C   LIG    1       24.006 -30.260   6.329  0.00  0.00    +0.041 C 
BRANCH  35  36
ATOM     36  C   LIG    1       24.009 -31.036   7.631  0.00  0.00    +0.232 C 
BRANCH  36  37
ATOM     37  O   LIG    1       24.636 -30.302   8.673  0.00  0.00    -0.465 OA
BRANCH  37  38
ATOM     38  C   LIG    1       25.537 -30.995   9.363  0.00  0.00    +0.312 C 
ATOM     39  O   LIG    1       26.692 -31.376   8.915  0.00  0.00    -0.251 OA
BRANCH  38  40
ATOM     40  C   LIG    1       25.147 -31.204  10.753  0.00  0.00    +0.171 C 
BRANCH  40  41
ATOM     41  C   LIG    1       26.057 -30.385  11.658  0.00  0.00    +0.145 C 
BRANCH  41  43
ATOM     42  C   LIG    1       25.146 -28.894  13.556  0.00  0.00    +0.102 C 
ATOM     43  N   LIG    1       25.559 -30.358  13.116  0.00  0.00    +0.247 N 
ATOM     44  C   LIG    1       24.422 -31.369  13.292  0.00  0.00    +0.193 C 
ATOM     45  C   LIG    1       26.624 -30.824  14.161  0.00  0.00    +0.138 C 
ATOM     46  C   LIG    1       27.907 -30.031  14.113  0.00  0.00    +0.086 C 
ATOM     47  C   LIG    1       27.627 -28.580  14.282  0.00  0.00    -0.030 A 
ATOM     48  C   LIG    1       28.665 -27.777  14.797  0.00  0.00    +0.053 A 
ATOM     49  C   LIG    1       28.572 -26.385  14.918  0.00  0.00    +0.162 A 
ATOM     50  C   LIG    1       27.412 -25.796  14.397  0.00  0.00    +0.162 A 
ATOM     51  C   LIG    1       26.390 -26.648  13.858  0.00  0.00    +0.059 A 
ATOM     52  C   LIG    1       26.417 -28.034  13.853  0.00  0.00    +0.008 A 
BRANCH  50  53
ATOM     53  O   LIG    1       27.198 -24.429  14.379  0.00  0.00    -0.491 OA
ATOM     54  C   LIG    1       25.799 -24.059  14.312  0.00  0.00    +0.277 C 
ENDBRANCH  50  53
BRANCH  49  55
ATOM     55  O   LIG    1       29.719 -25.940  15.500  0.00  0.00    -0.491 OA
ATOM     56  C   LIG    1       30.964 -26.606  15.500  0.00  0.00    +0.277 C 
ENDBRANCH  49  55
BRANCH  42  57
ATOM     57  C   LIG    1       23.952 -28.168  12.755  0.00  0.00    +0.095 C 
BRANCH  57  61
ATOM     58  C   LIG    1       19.649 -27.912  13.760  0.00  0.00    +0.162 A 
ATOM     59  C   LIG    1       20.243 -29.125  13.404  0.00  0.00    +0.162 A 
ATOM     60  C   LIG    1       21.640 -29.183  13.173  0.00  0.00    +0.053 A 
ATOM     61  C   LIG    1       22.482 -28.060  13.197  0.00  0.00    -0.038 A 
ATOM     62  C   LIG    1       21.851 -26.836  13.484  0.00  0.00    +0.007 A 
ATOM     63  C   LIG    1       20.462 -26.767  13.779  0.00  0.00    +0.050 A 
BRANCH  58  65
ATOM     64  C   LIG    1       17.834 -26.739  14.762  0.00  0.00    +0.277 C 
ATOM     65  O   LIG    1       18.319 -27.899  14.084  0.00  0.00    -0.491 OA
ENDBRANCH  58  65
BRANCH  59  66
ATOM     66  O   LIG    1       19.666 -30.368  13.354  0.00  0.00    -0.491 OA
ATOM     67  C   LIG    1       19.821 -31.173  12.190  0.00  0.00    +0.277 C 
ENDBRANCH  59  66
ENDBRANCH  57  61
ENDBRANCH  42  57
ENDBRANCH  41  43
ENDBRANCH  40  41
ENDBRANCH  38  40
ENDBRANCH  37  38
ENDBRANCH  36  37
ENDBRANCH  35  36
ENDBRANCH   1  35
TORSDOF 26
ENDMDL
MODEL 5
REMARK VINA RESULT:      -5.8      1.711     13.949
REMARK  Name = *****
REMARK                            x       y       z     vdW  Elec       q    Type
REMARK                         _______ _______ _______ _____ _____    ______ ____
ROOT
ATOM      1  C   LIG    1       25.075 -29.449   7.555  0.00  0.00    +0.007 C 
ENDROOT
BRANCH   1   2
ATOM      2  C   LIG    1       25.532 -28.026   7.260  0.00  0.00    +0.041 C 
BRANCH   2   3
ATOM      3  C   LIG    1       24.491 -27.335   6.406  0.00  0.00    +0.232 C 
BRANCH   3   4
ATOM      4  O   LIG    1       24.739 -25.933   6.290  0.00  0.00    -0.465 OA
BRANCH   4   5
ATOM      5  C   LIG    1       25.190 -25.558   5.083  0.00  0.00    +0.312 C 
ATOM      6  O   LIG    1       25.959 -26.236   4.368  0.00  0.00    -0.251 OA
BRANCH   5   7
ATOM      7  C   LIG    1       24.591 -24.277   4.609  0.00  0.00    +0.171 C 
BRANCH   7   8
ATOM      8  C   LIG    1       25.182 -23.081   5.337  0.00  0.00    +0.145 C 
BRANCH   8   9
ATOM      9  N   LIG    1       24.445 -21.730   5.080  0.00  0.00    +0.247 N 
ATOM     10  C   LIG    1       23.322 -21.984   4.073  0.00  0.00    +0.193 C 
ATOM     11  C   LIG    1       25.489 -20.585   4.607  0.00  0.00    +0.102 C 
ATOM     12  C   LIG    1       26.508 -20.330   5.732  0.00  0.00    +0.008 A 
ATOM     13  C   LIG    1       26.089 -20.361   7.056  0.00  0.00    -0.030 A 
ATOM     14  C   LIG    1       26.853 -19.986   8.160  0.00  0.00    +0.053 A 
ATOM     15  C   LIG    1       28.183 -19.755   8.003  0.00  0.00    +0.162 A 
ATOM     16  C   LIG    1       28.720 -19.983   6.733  0.00  0.00    +0.162 A 
ATOM     17  C   LIG    1       24.718 -20.668   7.439  0.00  0.00    +0.086 C 
ATOM     18  C   LIG    1       27.882 -20.202   5.599  0.00  0.00    +0.059 A 
ATOM     19  C   LIG    1       23.794 -21.388   6.446  0.00  0.00    +0.138 C 
BRANCH  15  20
ATOM     20  O   LIG    1       28.799 -19.440   9.169  0.00  0.00    -0.491 OA
ATOM     21  C   LIG    1       29.798 -18.446   9.041  0.00  0.00    +0.277 C 
ENDBRANCH  15  20
BRANCH  16  22
ATOM     22  O   LIG    1       30.055 -20.047   6.440  0.00  0.00    -0.491 OA
ATOM     23  C   LIG    1       30.566 -19.019   5.585  0.00  0.00    +0.277 C 
ENDBRANCH  16  22
BRANCH  11  24
ATOM     24  C   LIG    1       24.806 -19.291   3.862  0.00  0.00    +0.095 C 
BRANCH  24  25
ATOM     25  C   LIG    1       25.487 -17.926   3.711  0.00  0.00    -0.038 A 
ATOM     26  C   LIG    1       24.710 -16.785   3.780  0.00  0.00    +0.053 A 
ATOM     27  C   LIG    1       24.989 -15.429   3.593  0.00  0.00    +0.162 A 
ATOM     28  C   LIG    1       26.339 -15.194   3.457  0.00  0.00    +0.162 A 
ATOM     29  C   LIG    1       27.229 -16.305   3.486  0.00  0.00    +0.050 A 
ATOM     30  C   LIG    1       26.820 -17.653   3.593  0.00  0.00    +0.007 A 
BRANCH  28  31
ATOM     31  O   LIG    1       26.754 -13.897   3.308  0.00  0.00    -0.491 OA
ATOM     32  C   LIG    1       28.152 -13.701   3.506  0.00  0.00    +0.277 C 
ENDBRANCH  28  31
BRANCH  27  33
ATOM     33  O   LIG    1       24.105 -14.384   3.746  0.00  0.00    -0.491 OA
ATOM     34  C   LIG    1       23.309 -14.159   4.914  0.00  0.00    +0.277 C 
ENDBRANCH  27  33
ENDBRANCH  24  25
ENDBRANCH  11  24
ENDBRANCH   8   9
ENDBRANCH   7   8
ENDBRANCH   5   7
ENDBRANCH   4   5
ENDBRANCH   3   4
ENDBRANCH   2   3
ENDBRANCH   1   2
BRANCH   1  35
ATOM     35  C   LIG    1       25.692 -30.014   8.827  0.00  0.00    +0.041 C 
BRANCH  35  36
ATOM     36  C   LIG    1       24.798 -29.717  10.014  0.00  0.00    +0.232 C 
BRANCH  36  37
ATOM     37  O   LIG    1       25.505 -29.833  11.241  0.00  0.00    -0.465 OA
BRANCH  37  38
ATOM     38  C   LIG    1       26.199 -28.750  11.576  0.00  0.00    +0.312 C 
ATOM     39  O   LIG    1       27.394 -28.467  11.159  0.00  0.00    -0.251 OA
BRANCH  38  40
ATOM     40  C   LIG    1       25.434 -27.819  12.398  0.00  0.00    +0.171 C 
BRANCH  40  41
ATOM     41  C   LIG    1       24.151 -28.495  12.860  0.00  0.00    +0.145 C 
BRANCH  41  43
ATOM     42  C   LIG    1       22.808 -29.417  14.861  0.00  0.00    +0.102 C 
ATOM     43  N   LIG    1       24.015 -28.504  14.395  0.00  0.00    +0.247 N 
ATOM     44  C   LIG    1       25.346 -28.917  15.029  0.00  0.00    +0.193 C 
ATOM     45  C   LIG    1       23.738 -27.096  15.017  0.00  0.00    +0.138 C 
ATOM     46  C   LIG    1       22.507 -26.422  14.464  0.00  0.00    +0.086 C 
ATOM     47  C   LIG    1       21.316 -27.296  14.630  0.00  0.00    -0.030 A 
ATOM     48  C   LIG    1       20.056 -26.667  14.689  0.00  0.00    +0.053 A 
ATOM     49  C   LIG    1       18.847 -27.372  14.748  0.00  0.00    +0.162 A 
ATOM     50  C   LIG    1       18.939 -28.766  14.640  0.00  0.00    +0.162 A 
ATOM     51  C   LIG    1       20.242 -29.365  14.557  0.00  0.00    +0.059 A 
ATOM     52  C   LIG    1       21.447 -28.684  14.629  0.00  0.00    +0.008 A 
BRANCH  50  53
ATOM     53  O   LIG    1       17.835 -29.600  14.614  0.00  0.00    -0.491 OA
ATOM     54  C   LIG    1       17.691 -30.336  13.375  0.00  0.00    +0.277 C 
ENDBRANCH  50  53
BRANCH  49  55
ATOM     55  O   LIG    1       17.839 -26.464  14.852  0.00  0.00    -0.491 OA
ATOM     56  C   LIG    1       16.529 -26.615  14.346  0.00  0.00    +0.277 C 
ENDBRANCH  49  55
BRANCH  42  57
ATOM     57  C   LIG    1       22.858 -30.985  14.496  0.00  0.00    +0.095 C 
BRANCH  57  61
ATOM     58  C   LIG    1       22.644 -32.859  10.491  0.00  0.00    +0.162 A 
ATOM     59  C   LIG    1       21.823 -31.782  10.837  0.00  0.00    +0.162 A 
ATOM     60  C   LIG    1       21.981 -31.154  12.097  0.00  0.00    +0.053 A 
ATOM     61  C   LIG    1       22.873 -31.600  13.086  0.00  0.00    -0.038 A 
ATOM     62  C   LIG    1       23.636 -32.733  12.746  0.00  0.00    +0.007 A 
ATOM     63  C   LIG    1       23.537 -33.338  11.464  0.00  0.00    +0.050 A 
BRANCH  58  65
ATOM     64  C   LIG    1       23.259 -32.695   8.196  0.00  0.00    +0.277 C 
ATOM     65  O   LIG    1       22.551 -33.381   9.230  0.00  0.00    -0.491 OA
ENDBRANCH  58  65
BRANCH  59  66
ATOM     66  O   LIG    1       20.913 -31.125  10.050  0.00  0.00    -0.491 OA
ATOM     67  C   LIG    1       19.529 -31.181  10.375  0.00  0.00    +0.277 C 
ENDBRANCH  59  66
ENDBRANCH  57  61
ENDBRANCH  42  57
ENDBRANCH  41  43
ENDBRANCH  40  41
ENDBRANCH  38  40
ENDBRANCH  37  38
ENDBRANCH  36  37
ENDBRANCH  35  36
ENDBRANCH   1  35
TORSDOF 26
ENDMDL
MODEL 6
REMARK VINA RESULT:      -5.6      2.025     13.175
REMARK  Name = *****
REMARK                            x       y       z     vdW  Elec       q    Type
REMARK                         _______ _______ _______ _____ _____    ______ ____
ROOT
ATOM      1  C   LIG    1       25.500 -29.990   5.537  0.00  0.00    +0.007 C 
ENDROOT
BRANCH   1   2
ATOM      2  C   LIG    1       24.416 -28.934   5.361  0.00  0.00    +0.041 C 
BRANCH   2   3
ATOM      3  C   LIG    1       24.400 -28.029   6.573  0.00  0.00    +0.232 C 
BRANCH   3   4
ATOM      4  O   LIG    1       25.534 -27.161   6.609  0.00  0.00    -0.465 OA
BRANCH   4   5
ATOM      5  C   LIG    1       25.420 -26.082   5.818  0.00  0.00    +0.312 C 
ATOM      6  O   LIG    1       25.897 -25.989   4.666  0.00  0.00    -0.251 OA
BRANCH   5   7
ATOM      7  C   LIG    1       24.556 -25.018   6.406  0.00  0.00    +0.171 C 
BRANCH   7   8
ATOM      8  C   LIG    1       24.701 -23.703   5.657  0.00  0.00    +0.145 C 
BRANCH   8   9
ATOM      9  N   LIG    1       23.664 -22.607   6.054  0.00  0.00    +0.247 N 
ATOM     10  C   LIG    1       22.279 -23.075   5.599  0.00  0.00    +0.193 C 
ATOM     11  C   LIG    1       24.088 -21.166   5.451  0.00  0.00    +0.102 C 
ATOM     12  C   LIG    1       25.440 -20.740   6.053  0.00  0.00    +0.008 A 
ATOM     13  C   LIG    1       25.716 -21.027   7.384  0.00  0.00    -0.030 A 
ATOM     14  C   LIG    1       26.815 -20.560   8.104  0.00  0.00    +0.053 A 
ATOM     15  C   LIG    1       27.827 -19.937   7.448  0.00  0.00    +0.162 A 
ATOM     16  C   LIG    1       27.731 -19.867   6.055  0.00  0.00    +0.162 A 
ATOM     17  C   LIG    1       24.793 -21.759   8.239  0.00  0.00    +0.086 C 
ATOM     18  C   LIG    1       26.523 -20.203   5.375  0.00  0.00    +0.059 A 
ATOM     19  C   LIG    1       23.683 -22.612   7.605  0.00  0.00    +0.138 C 
BRANCH  15  20
ATOM     20  O   LIG    1       28.841 -19.576   8.273  0.00  0.00    -0.491 OA
ATOM     21  C   LIG    1       29.922 -20.490   8.289  0.00  0.00    +0.277 C 
ENDBRANCH  15  20
BRANCH  16  22
ATOM     22  O   LIG    1       28.746 -19.508   5.211  0.00  0.00    -0.491 OA
ATOM     23  C   LIG    1       29.667 -18.531   5.707  0.00  0.00    +0.277 C 
ENDBRANCH  16  22
BRANCH  11  24
ATOM     24  C   LIG    1       22.877 -20.059   5.385  0.00  0.00    +0.095 C 
BRANCH  24  25
ATOM     25  C   LIG    1       23.061 -18.609   4.921  0.00  0.00    -0.038 A 
ATOM     26  C   LIG    1       24.207 -18.276   4.224  0.00  0.00    +0.053 A 
ATOM     27  C   LIG    1       24.718 -17.064   3.754  0.00  0.00    +0.162 A 
ATOM     28  C   LIG    1       23.815 -16.033   3.897  0.00  0.00    +0.162 A 
ATOM     29  C   LIG    1       22.558 -16.310   4.505  0.00  0.00    +0.050 A 
ATOM     30  C   LIG    1       22.184 -17.568   5.028  0.00  0.00    +0.007 A 
BRANCH  28  31
ATOM     31  O   LIG    1       24.176 -14.794   3.437  0.00  0.00    -0.491 OA
ATOM     32  C   LIG    1       24.573 -13.882   4.456  0.00  0.00    +0.277 C 
ENDBRANCH  28  31
BRANCH  27  33
ATOM     33  O   LIG    1       25.872 -16.892   3.021  0.00  0.00    -0.491 OA
ATOM     34  C   LIG    1       27.170 -16.694   3.589  0.00  0.00    +0.277 C 
ENDBRANCH  27  33
ENDBRANCH  24  25
ENDBRANCH  11  24
ENDBRANCH   8   9
ENDBRANCH   7   8
ENDBRANCH   5   7
ENDBRANCH   4   5
ENDBRANCH   3   4
ENDBRANCH   2   3
ENDBRANCH   1   2
BRANCH   1  35
ATOM     35  C   LIG    1       25.014 -31.210   6.305  0.00  0.00    +0.041 C 
BRANCH  35  36
ATOM     36  C   LIG    1       26.196 -31.999   6.831  0.00  0.00    +0.232 C 
BRANCH  36  37
ATOM     37  O   LIG    1       26.564 -31.578   8.137  0.00  0.00    -0.465 OA
BRANCH  37  38
ATOM     38  C   LIG    1       26.438 -32.516   9.070  0.00  0.00    +0.312 C 
ATOM     39  O   LIG    1       27.388 -33.298   9.478  0.00  0.00    -0.251 OA
BRANCH  38  40
ATOM     40  C   LIG    1       25.120 -32.521   9.694  0.00  0.00    +0.171 C 
BRANCH  40  41
ATOM     41  C   LIG    1       25.204 -31.831  11.048  0.00  0.00    +0.145 C 
BRANCH  41  43
ATOM     42  C   LIG    1       23.843 -29.968  12.203  0.00  0.00    +0.102 C 
ATOM     43  N   LIG    1       24.771 -30.354  10.979  0.00  0.00    +0.247 N 
ATOM     44  C   LIG    1       26.009 -29.458  10.873  0.00  0.00    +0.193 C 
ATOM     45  C   LIG    1       23.949 -29.991   9.700  0.00  0.00    +0.138 C 
ATOM     46  C   LIG    1       22.707 -30.828   9.521  0.00  0.00    +0.086 C 
ATOM     47  C   LIG    1       21.841 -30.738  10.726  0.00  0.00    -0.030 A 
ATOM     48  C   LIG    1       20.463 -30.977  10.551  0.00  0.00    +0.053 A 
ATOM     49  C   LIG    1       19.549 -31.018  11.611  0.00  0.00    +0.162 A 
ATOM     50  C   LIG    1       20.092 -30.911  12.900  0.00  0.00    +0.162 A 
ATOM     51  C   LIG    1       21.506 -30.694  13.034  0.00  0.00    +0.059 A 
ATOM     52  C   LIG    1       22.397 -30.521  11.987  0.00  0.00    +0.008 A 
BRANCH  50  53
ATOM     53  O   LIG    1       19.333 -31.000  14.053  0.00  0.00    -0.491 OA
ATOM     54  C   LIG    1       18.915 -29.715  14.575  0.00  0.00    +0.277 C 
ENDBRANCH  50  53
BRANCH  49  55
ATOM     55  O   LIG    1       18.309 -31.210  11.087  0.00  0.00    -0.491 OA
ATOM     56  C   LIG    1       17.995 -31.314   9.713  0.00  0.00    +0.277 C 
ENDBRANCH  49  55
BRANCH  42  57
ATOM     57  C   LIG    1       24.452 -30.094  13.689  0.00  0.00    +0.095 C 
BRANCH  57  61
ATOM     58  C   LIG    1       28.641 -29.055  14.672  0.00  0.00    +0.162 A 
ATOM     59  C   LIG    1       27.691 -28.068  14.396  0.00  0.00    +0.162 A 
ATOM     60  C   LIG    1       26.341 -28.435  14.171  0.00  0.00    +0.053 A 
ATOM     61  C   LIG    1       25.892 -29.765  14.122  0.00  0.00    -0.038 A 
ATOM     62  C   LIG    1       26.879 -30.746  14.327  0.00  0.00    +0.007 A 
ATOM     63  C   LIG    1       28.226 -30.396  14.617  0.00  0.00    +0.050 A 
BRANCH  58  65
ATOM     64  C   LIG    1       30.970 -29.223  14.206  0.00  0.00    +0.277 C 
ATOM     65  O   LIG    1       29.914 -28.672  14.995  0.00  0.00    -0.491 OA
ENDBRANCH  58  65
BRANCH  59  66
ATOM     66  O   LIG    1       27.850 -26.707  14.428  0.00  0.00    -0.491 OA
ATOM     67  C   LIG    1       27.036 -25.882  13.602  0.00  0.00    +0.277 C 
ENDBRANCH  59  66
ENDBRANCH  57  61
ENDBRANCH  42  57
ENDBRANCH  41  43
ENDBRANCH  40  41
ENDBRANCH  38  40
ENDBRANCH  37  38
ENDBRANCH  36  37
ENDBRANCH  35  36
ENDBRANCH   1  35
TORSDOF 26
ENDMDL
MODEL 7
REMARK VINA RESULT:      -5.4      1.686      2.329
REMARK  Name = *****
REMARK                            x       y       z     vdW  Elec       q    Type
REMARK                         _______ _______ _______ _____ _____    ______ ____
ROOT
ATOM      1  C   LIG    1       25.529 -29.501   5.647  0.00  0.00    +0.007 C 
ENDROOT
BRANCH   1   2
ATOM      2  C   LIG    1       25.461 -31.021   5.565  0.00  0.00    +0.041 C 
BRANCH   2   3
ATOM      3  C   LIG    1       25.236 -31.586   6.951  0.00  0.00    +0.232 C 
BRANCH   3   4
ATOM      4  O   LIG    1       23.876 -31.460   7.366  0.00  0.00    -0.465 OA
BRANCH   4   5
ATOM      5  C   LIG    1       23.259 -32.635   7.573  0.00  0.00    +0.312 C 
ATOM      6  O   LIG    1       22.931 -33.436   6.671  0.00  0.00    -0.251 OA
BRANCH   5   7
ATOM      7  C   LIG    1       23.094 -32.959   9.019  0.00  0.00    +0.171 C 
BRANCH   7   8
ATOM      8  C   LIG    1       22.172 -31.969   9.712  0.00  0.00    +0.145 C 
BRANCH   8   9
ATOM      9  N   LIG    1       21.426 -32.534  10.961  0.00  0.00    +0.247 N 
ATOM     10  C   LIG    1       20.262 -33.397  10.470  0.00  0.00    +0.193 C 
ATOM     11  C   LIG    1       20.969 -31.336  11.950  0.00  0.00    +0.102 C 
ATOM     12  C   LIG    1       22.218 -30.601  12.471  0.00  0.00    +0.008 A 
ATOM     13  C   LIG    1       23.365 -31.327  12.769  0.00  0.00    -0.030 A 
ATOM     14  C   LIG    1       24.502 -30.827  13.401  0.00  0.00    +0.053 A 
ATOM     15  C   LIG    1       24.629 -29.487  13.581  0.00  0.00    +0.162 A 
ATOM     16  C   LIG    1       23.625 -28.676  13.045  0.00  0.00    +0.162 A 
ATOM     17  C   LIG    1       23.457 -32.766  12.570  0.00  0.00    +0.086 C 
ATOM     18  C   LIG    1       22.403 -29.230  12.557  0.00  0.00    +0.059 A 
ATOM     19  C   LIG    1       22.466 -33.470  11.631  0.00  0.00    +0.138 C 
BRANCH  15  20
ATOM     20  O   LIG    1       25.803 -29.149  14.172  0.00  0.00    -0.491 OA
ATOM     21  C   LIG    1       26.540 -30.254  14.658  0.00  0.00    +0.277 C 
ENDBRANCH  15  20
BRANCH  16  22
ATOM     22  O   LIG    1       23.696 -27.317  12.906  0.00  0.00    -0.491 OA
ATOM     23  C   LIG    1       24.556 -26.631  13.823  0.00  0.00    +0.277 C 
ENDBRANCH  16  22
BRANCH  11  24
ATOM     24  C   LIG    1       19.792 -31.735  13.023  0.00  0.00    +0.095 C 
BRANCH  24  25
ATOM     25  C   LIG    1       18.646 -30.802  13.429  0.00  0.00    -0.038 A 
ATOM     26  C   LIG    1       18.948 -29.630  14.097  0.00  0.00    +0.053 A 
ATOM     27  C   LIG    1       18.162 -28.633  14.678  0.00  0.00    +0.162 A 
ATOM     28  C   LIG    1       16.825 -28.798  14.389  0.00  0.00    +0.162 A 
ATOM     29  C   LIG    1       16.431 -29.921  13.608  0.00  0.00    +0.050 A 
ATOM     30  C   LIG    1       17.315 -30.922  13.146  0.00  0.00    +0.007 A 
BRANCH  28  31
ATOM     31  O   LIG    1       15.944 -27.862  14.866  0.00  0.00    -0.491 OA
ATOM     32  C   LIG    1       15.776 -26.729  14.018  0.00  0.00    +0.277 C 
ENDBRANCH  28  31
BRANCH  27  33
ATOM     33  O   LIG    1       18.615 -27.479  15.278  0.00  0.00    -0.491 OA
ATOM     34  C   LIG    1       19.355 -26.454  14.607  0.00  0.00    +0.277 C 
ENDBRANCH  27  33
ENDBRANCH  24  25
ENDBRANCH  11  24
ENDBRANCH   8   9
ENDBRANCH   7   8
ENDBRANCH   5   7
ENDBRANCH   4   5
ENDBRANCH   3   4
ENDBRANCH   2   3
ENDBRANCH   1   2
BRANCH   1  35
ATOM     35  C   LIG    1       24.176 -28.839   5.426  0.00  0.00    +0.041 C 
BRANCH  35  36
ATOM     36  C   LIG    1       24.366 -27.387   5.034  0.00  0.00    +0.232 C 
BRANCH  36  37
ATOM     37  O   LIG    1       25.622 -26.890   5.472  0.00  0.00    -0.465 OA
BRANCH  37  38
ATOM     38  C   LIG    1       25.547 -26.028   6.481  0.00  0.00    +0.312 C 
ATOM     39  O   LIG    1       26.239 -26.094   7.575  0.00  0.00    -0.251 OA
BRANCH  38  40
ATOM     40  C   LIG    1       24.667 -24.900   6.198  0.00  0.00    +0.171 C 
BRANCH  40  41
ATOM     41  C   LIG    1       25.506 -23.645   6.000  0.00  0.00    +0.145 C 
BRANCH  41  43
ATOM     42  C   LIG    1       25.501 -21.081   6.280  0.00  0.00    +0.102 C 
ATOM     43  N   LIG    1       25.012 -22.469   6.864  0.00  0.00    +0.247 N 
ATOM     44  C   LIG    1       23.489 -22.542   7.014  0.00  0.00    +0.193 C 
ATOM     45  C   LIG    1       25.524 -22.505   8.341  0.00  0.00    +0.138 C 
ATOM     46  C   LIG    1       27.027 -22.544   8.460  0.00  0.00    +0.086 C 
ATOM     47  C   LIG    1       27.636 -21.396   7.737  0.00  0.00    -0.030 A 
ATOM     48  C   LIG    1       28.905 -20.961   8.168  0.00  0.00    +0.053 A 
ATOM     49  C   LIG    1       29.634 -19.957   7.519  0.00  0.00    +0.162 A 
ATOM     50  C   LIG    1       29.079 -19.459   6.332  0.00  0.00    +0.162 A 
ATOM     51  C   LIG    1       27.795 -19.948   5.915  0.00  0.00    +0.059 A 
ATOM     52  C   LIG    1       27.008 -20.846   6.620  0.00  0.00    +0.008 A 
BRANCH  50  53
ATOM     53  O   LIG    1       29.706 -18.513   5.539  0.00  0.00    -0.491 OA
ATOM     54  C   LIG    1       28.787 -17.652   4.824  0.00  0.00    +0.277 C 
ENDBRANCH  50  53
BRANCH  49  55
ATOM     55  O   LIG    1       30.778 -19.748   8.226  0.00  0.00    -0.491 OA
ATOM     56  C   LIG    1       31.489 -18.531   8.315  0.00  0.00    +0.277 C 
ENDBRANCH  49  55
BRANCH  42  57
ATOM     57  C   LIG    1       25.018 -20.667   4.800  0.00  0.00    +0.095 C 
BRANCH  57  61
ATOM     58  C   LIG    1       21.195 -18.598   3.967  0.00  0.00    +0.162 A 
ATOM     59  C   LIG    1       22.399 -17.895   4.059  0.00  0.00    +0.162 A 
ATOM     60  C   LIG    1       23.613 -18.601   4.241  0.00  0.00    +0.053 A 
ATOM     61  C   LIG    1       23.688 -19.992   4.423  0.00  0.00    -0.038 A 
ATOM     62  C   LIG    1       22.456 -20.672   4.402  0.00  0.00    +0.007 A 
ATOM     63  C   LIG    1       21.234 -19.989   4.158  0.00  0.00    +0.050 A 
BRANCH  58  65
ATOM     64  C   LIG    1       19.200 -18.457   2.674  0.00  0.00    +0.277 C 
ATOM     65  O   LIG    1       20.048 -17.907   3.683  0.00  0.00    -0.491 OA
ENDBRANCH  58  65
BRANCH  59  66
ATOM     66  O   LIG    1       22.613 -16.553   3.872  0.00  0.00    -0.491 OA
ATOM     67  C   LIG    1       22.906 -15.723   4.990  0.00  0.00    +0.277 C 
ENDBRANCH  59  66
ENDBRANCH  57  61
ENDBRANCH  42  57
ENDBRANCH  41  43
ENDBRANCH  40  41
ENDBRANCH  38  40
ENDBRANCH  37  38
ENDBRANCH  36  37
ENDBRANCH  35  36
ENDBRANCH   1  35
TORSDOF 26
ENDMDL
MODEL 8
REMARK VINA RESULT:      -5.3      1.686      4.660
REMARK  Name = *****
REMARK                            x       y       z     vdW  Elec       q    Type
REMARK                         _______ _______ _______ _____ _____    ______ ____
ROOT
ATOM      1  C   LIG    1       25.061 -26.884   6.648  0.00  0.00    +0.007 C 
ENDROOT
BRANCH   1   2
ATOM      2  C   LIG    1       24.728 -27.510   5.300  0.00  0.00    +0.041 C 
BRANCH   2   3
ATOM      3  C   LIG    1       24.462 -28.987   5.488  0.00  0.00    +0.232 C 
BRANCH   3   4
ATOM      4  O   LIG    1       23.829 -29.263   6.738  0.00  0.00    -0.465 OA
BRANCH   4   5
ATOM      5  C   LIG    1       24.068 -30.497   7.210  0.00  0.00    +0.312 C 
ATOM      6  O   LIG    1       23.723 -31.556   6.642  0.00  0.00    -0.251 OA
BRANCH   5   7
ATOM      7  C   LIG    1       24.901 -30.497   8.447  0.00  0.00    +0.171 C 
BRANCH   7   8
ATOM      8  C   LIG    1       24.273 -29.650   9.543  0.00  0.00    +0.145 C 
BRANCH   8   9
ATOM      9  N   LIG    1       23.506 -30.458  10.635  0.00  0.00    +0.247 N 
ATOM     10  C   LIG    1       22.243 -31.041   9.997  0.00  0.00    +0.193 C 
ATOM     11  C   LIG    1       23.207 -29.536  11.932  0.00  0.00    +0.102 C 
ATOM     12  C   LIG    1       24.542 -29.094  12.559  0.00  0.00    +0.008 A 
ATOM     13  C   LIG    1       25.612 -29.979  12.588  0.00  0.00    -0.030 A 
ATOM     14  C   LIG    1       26.813 -29.780  13.267  0.00  0.00    +0.053 A 
ATOM     15  C   LIG    1       27.089 -28.558  13.790  0.00  0.00    +0.162 A 
ATOM     16  C   LIG    1       26.162 -27.540  13.548  0.00  0.00    +0.162 A 
ATOM     17  C   LIG    1       25.544 -31.312  12.008  0.00  0.00    +0.086 C 
ATOM     18  C   LIG    1       24.876 -27.821  12.998  0.00  0.00    +0.059 A 
ATOM     19  C   LIG    1       24.458 -31.637  10.972  0.00  0.00    +0.138 C 
BRANCH  15  20
ATOM     20  O   LIG    1       28.308 -28.507  14.383  0.00  0.00    -0.491 OA
ATOM     21  C   LIG    1       28.616 -29.647  15.163  0.00  0.00    +0.277 C 
ENDBRANCH  15  20
BRANCH  16  22
ATOM     22  O   LIG    1       26.375 -26.207  13.773  0.00  0.00    -0.491 OA
ATOM     23  C   LIG    1       25.790 -25.664  14.961  0.00  0.00    +0.277 C 
ENDBRANCH  16  22
BRANCH  11  24
ATOM     24  C   LIG    1       22.025 -30.097  12.923  0.00  0.00    +0.095 C 
BRANCH  24  25
ATOM     25  C   LIG    1       20.971 -29.209  13.594  0.00  0.00    -0.038 A 
ATOM     26  C   LIG    1       19.677 -29.683  13.707  0.00  0.00    +0.053 A 
ATOM     27  C   LIG    1       18.488 -29.111  14.164  0.00  0.00    +0.162 A 
ATOM     28  C   LIG    1       18.699 -27.879  14.745  0.00  0.00    +0.162 A 
ATOM     29  C   LIG    1       20.024 -27.358  14.774  0.00  0.00    +0.050 A 
ATOM     30  C   LIG    1       21.145 -27.995  14.195  0.00  0.00    +0.007 A 
BRANCH  28  31
ATOM     31  O   LIG    1       17.618 -27.224  15.273  0.00  0.00    -0.491 OA
ATOM     32  C   LIG    1       17.116 -26.168  14.459  0.00  0.00    +0.277 C 
ENDBRANCH  28  31
BRANCH  27  33
ATOM     33  O   LIG    1       17.265 -29.735  14.263  0.00  0.00    -0.491 OA
ATOM     34  C   LIG    1       16.856 -30.849  13.464  0.00  0.00    +0.277 C 
ENDBRANCH  27  33
ENDBRANCH  24  25
ENDBRANCH  11  24
ENDBRANCH   8   9
ENDBRANCH   7   8
ENDBRANCH   5   7
ENDBRANCH   4   5
ENDBRANCH   3   4
ENDBRANCH   2   3
ENDBRANCH   1   2
BRANCH   1  35
ATOM     35  C   LIG    1       25.204 -25.370   6.574  0.00  0.00    +0.041 C 
BRANCH  35  36
ATOM     36  C   LIG    1       23.893 -24.745   6.140  0.00  0.00    +0.232 C 
BRANCH  36  37
ATOM     37  O   LIG    1       23.494 -23.707   7.024  0.00  0.00    -0.465 OA
BRANCH  37  38
ATOM     38  C   LIG    1       23.359 -22.518   6.445  0.00  0.00    +0.312 C 
ATOM     39  O   LIG    1       22.229 -21.957   6.140  0.00  0.00    -0.251 OA
BRANCH  38  40
ATOM     40  C   LIG    1       24.629 -21.824   6.271  0.00  0.00    +0.171 C 
BRANCH  40  41
ATOM     41  C   LIG    1       24.369 -20.431   5.714  0.00  0.00    +0.145 C 
BRANCH  41  43
ATOM     42  C   LIG    1       25.762 -19.635   3.694  0.00  0.00    +0.102 C 
ATOM     43  N   LIG    1       24.457 -20.391   4.176  0.00  0.00    +0.247 N 
ATOM     44  C   LIG    1       24.359 -21.813   3.616  0.00  0.00    +0.193 C 
ATOM     45  C   LIG    1       23.266 -19.647   3.490  0.00  0.00    +0.138 C 
ATOM     46  C   LIG    1       23.086 -18.226   3.963  0.00  0.00    +0.086 C 
ATOM     47  C   LIG    1       24.343 -17.454   3.779  0.00  0.00    -0.030 A 
ATOM     48  C   LIG    1       24.229 -16.056   3.643  0.00  0.00    +0.053 A 
ATOM     49  C   LIG    1       25.333 -15.198   3.559  0.00  0.00    +0.162 A 
ATOM     50  C   LIG    1       26.591 -15.794   3.724  0.00  0.00    +0.162 A 
ATOM     51  C   LIG    1       26.662 -17.219   3.886  0.00  0.00    +0.059 A 
ATOM     52  C   LIG    1       25.583 -18.089   3.839  0.00  0.00    +0.008 A 
BRANCH  50  53
ATOM     53  O   LIG    1       27.775 -15.077   3.734  0.00  0.00    -0.491 OA
ATOM     54  C   LIG    1       27.694 -13.832   4.470  0.00  0.00    +0.277 C 
ENDBRANCH  50  53
BRANCH  49  55
ATOM     55  O   LIG    1       24.867 -13.933   3.377  0.00  0.00    -0.491 OA
ATOM     56  C   LIG    1       23.544 -13.577   3.030  0.00  0.00    +0.277 C 
ENDBRANCH  49  55
BRANCH  42  57
ATOM     57  C   LIG    1       27.193 -20.241   4.121  0.00  0.00    +0.095 C 
BRANCH  57  61
ATOM     58  C   LIG    1       29.228 -19.183   7.906  0.00  0.00    +0.162 A 
ATOM     59  C   LIG    1       28.009 -19.866   7.901  0.00  0.00    +0.162 A 
ATOM     60  C   LIG    1       27.432 -20.263   6.669  0.00  0.00    +0.053 A 
ATOM     61  C   LIG    1       27.970 -19.938   5.413  0.00  0.00    -0.038 A 
ATOM     62  C   LIG    1       29.158 -19.184   5.441  0.00  0.00    +0.007 A 
ATOM     63  C   LIG    1       29.786 -18.830   6.666  0.00  0.00    +0.050 A 
BRANCH  58  65
ATOM     64  C   LIG    1       31.071 -18.212   9.061  0.00  0.00    +0.277 C 
ATOM     65  O   LIG    1       29.822 -18.904   9.107  0.00  0.00    -0.491 OA
ENDBRANCH  58  65
BRANCH  59  66
ATOM     66  O   LIG    1       27.302 -20.344   8.973  0.00  0.00    -0.491 OA
ATOM     67  C   LIG    1       25.908 -20.601   8.841  0.00  0.00    +0.277 C 
ENDBRANCH  59  66
ENDBRANCH  57  61
ENDBRANCH  42  57
ENDBRANCH  41  43
ENDBRANCH  40  41
ENDBRANCH  38  40
ENDBRANCH  37  38
ENDBRANCH  36  37
ENDBRANCH  35  36
ENDBRANCH   1  35
TORSDOF 26
ENDMDL
MODEL 9
REMARK VINA RESULT:      -4.9      2.580     13.426
REMARK  Name = *****
REMARK                            x       y       z     vdW  Elec       q    Type
REMARK                         _______ _______ _______ _____ _____    ______ ____
ROOT
ATOM      1  C   LIG    1       25.238 -27.897   6.742  0.00  0.00    +0.007 C 
ENDROOT
BRANCH   1   2
ATOM      2  C   LIG    1       24.513 -26.784   5.998  0.00  0.00    +0.041 C 
BRANCH   2   3
ATOM      3  C   LIG    1       25.517 -25.979   5.201  0.00  0.00    +0.232 C 
BRANCH   3   4
ATOM      4  O   LIG    1       26.337 -25.166   6.041  0.00  0.00    -0.465 OA
BRANCH   4   5
ATOM      5  C   LIG    1       25.864 -23.922   6.224  0.00  0.00    +0.312 C 
ATOM      6  O   LIG    1       24.875 -23.441   5.630  0.00  0.00    -0.251 OA
BRANCH   5   7
ATOM      7  C   LIG    1       26.574 -23.183   7.307  0.00  0.00    +0.171 C 
BRANCH   7   8
ATOM      8  C   LIG    1       27.999 -22.835   6.906  0.00  0.00    +0.145 C 
BRANCH   8   9
ATOM      9  N   LIG    1       28.494 -21.439   7.396  0.00  0.00    +0.247 N 
ATOM     10  C   LIG    1       29.653 -21.660   8.370  0.00  0.00    +0.193 C 
ATOM     11  C   LIG    1       27.273 -20.584   8.030  0.00  0.00    +0.102 C 
ATOM     12  C   LIG    1       26.214 -20.326   6.942  0.00  0.00    +0.008 A 
ATOM     13  C   LIG    1       26.621 -20.065   5.639  0.00  0.00    -0.030 A 
ATOM     14  C   LIG    1       25.794 -19.650   4.597  0.00  0.00    +0.053 A 
ATOM     15  C   LIG    1       24.446 -19.681   4.764  0.00  0.00    +0.162 A 
ATOM     16  C   LIG    1       23.967 -20.204   5.968  0.00  0.00    +0.162 A 
ATOM     17  C   LIG    1       28.021 -20.065   5.238  0.00  0.00    +0.086 C 
ATOM     18  C   LIG    1       24.840 -20.459   7.067  0.00  0.00    +0.059 A 
ATOM     19  C   LIG    1       29.064 -20.770   6.118  0.00  0.00    +0.138 C 
BRANCH  15  20
ATOM     20  O   LIG    1       23.774 -19.288   3.653  0.00  0.00    -0.491 OA
ATOM     21  C   LIG    1       22.749 -18.345   3.904  0.00  0.00    +0.277 C 
ENDBRANCH  15  20
BRANCH  16  22
ATOM     22  O   LIG    1       22.666 -20.544   6.219  0.00  0.00    -0.491 OA
ATOM     23  C   LIG    1       22.136 -21.632   5.455  0.00  0.00    +0.277 C 
ENDBRANCH  16  22
BRANCH  11  24
ATOM     24  C   LIG    1       27.729 -19.334   8.991  0.00  0.00    +0.095 C 
BRANCH  24  25
ATOM     25  C   LIG    1       29.141 -18.737   9.014  0.00  0.00    -0.038 A 
ATOM     26  C   LIG    1       29.733 -18.482  10.237  0.00  0.00    +0.053 A 
ATOM     27  C   LIG    1       30.935 -17.872  10.606  0.00  0.00    +0.162 A 
ATOM     28  C   LIG    1       31.736 -17.611   9.516  0.00  0.00    +0.162 A 
ATOM     29  C   LIG    1       31.251 -17.945   8.220  0.00  0.00    +0.050 A 
ATOM     30  C   LIG    1       29.971 -18.483   7.960  0.00  0.00    +0.007 A 
BRANCH  28  31
ATOM     31  O   LIG    1       32.965 -17.049   9.742  0.00  0.00    -0.491 OA
ATOM     32  C   LIG    1       33.005 -15.636   9.566  0.00  0.00    +0.277 C 
ENDBRANCH  28  31
BRANCH  27  33
ATOM     33  O   LIG    1       31.421 -17.731  11.887  0.00  0.00    -0.491 OA
ATOM     34  C   LIG    1       31.711 -16.475  12.509  0.00  0.00    +0.277 C 
ENDBRANCH  27  33
ENDBRANCH  24  25
ENDBRANCH  11  24
ENDBRANCH   8   9
ENDBRANCH   7   8
ENDBRANCH   5   7
ENDBRANCH   4   5
ENDBRANCH   3   4
ENDBRANCH   2   3
ENDBRANCH   1   2
BRANCH   1  35
ATOM     35  C   LIG    1       24.306 -29.020   7.175  0.00  0.00    +0.041 C 
BRANCH  35  36
ATOM     36  C   LIG    1       24.088 -29.986   6.028  0.00  0.00    +0.232 C 
BRANCH  36  37
ATOM     37  O   LIG    1       23.429 -31.168   6.460  0.00  0.00    -0.465 OA
BRANCH  37  38
ATOM     38  C   LIG    1       24.244 -32.109   6.927  0.00  0.00    +0.312 C 
ATOM     39  O   LIG    1       25.341 -32.499   6.356  0.00  0.00    -0.251 OA
BRANCH  38  40
ATOM     40  C   LIG    1       23.841 -32.609   8.236  0.00  0.00    +0.171 C 
BRANCH  40  41
ATOM     41  C   LIG    1       24.156 -31.559   9.292  0.00  0.00    +0.145 C 
BRANCH  41  43
ATOM     42  C   LIG    1       25.162 -31.563  11.668  0.00  0.00    +0.102 C 
ATOM     43  N   LIG    1       25.382 -31.937  10.145  0.00  0.00    +0.247 N 
ATOM     44  C   LIG    1       25.713 -33.419   9.945  0.00  0.00    +0.193 C 
ATOM     45  C   LIG    1       26.700 -31.210   9.722  0.00  0.00    +0.138 C 
ATOM     46  C   LIG    1       26.593 -29.706   9.738  0.00  0.00    +0.086 C 
ATOM     47  C   LIG    1       26.156 -29.230  11.077  0.00  0.00    -0.030 A 
ATOM     48  C   LIG    1       26.513 -27.917  11.445  0.00  0.00    +0.053 A 
ATOM     49  C   LIG    1       26.088 -27.309  12.633  0.00  0.00    +0.162 A 
ATOM     50  C   LIG    1       25.184 -28.043  13.414  0.00  0.00    +0.162 A 
ATOM     51  C   LIG    1       24.826 -29.367  12.989  0.00  0.00    +0.059 A 
ATOM     52  C   LIG    1       25.343 -30.026  11.884  0.00  0.00    +0.008 A 
BRANCH  50  53
ATOM     53  O   LIG    1       24.619 -27.556  14.579  0.00  0.00    -0.491 OA
ATOM     54  C   LIG    1       23.212 -27.236  14.455  0.00  0.00    +0.277 C 
ENDBRANCH  50  53
BRANCH  49  55
ATOM     55  O   LIG    1       26.660 -26.076  12.698  0.00  0.00    -0.491 OA
ATOM     56  C   LIG    1       27.466 -25.589  13.751  0.00  0.00    +0.277 C 
ENDBRANCH  49  55
BRANCH  42  57
ATOM     57  C   LIG    1       23.946 -32.268  12.456  0.00  0.00    +0.095 C 
BRANCH  57  61
ATOM     58  C   LIG    1       19.580 -31.924  11.816  0.00  0.00    +0.162 A 
ATOM     59  C   LIG    1       20.293 -30.947  12.515  0.00  0.00    +0.162 A 
ATOM     60  C   LIG    1       21.702 -31.048  12.624  0.00  0.00    +0.053 A 
ATOM     61  C   LIG    1       22.447 -32.135  12.137  0.00  0.00    -0.038 A 
ATOM     62  C   LIG    1       21.700 -33.145  11.504  0.00  0.00    +0.007 A 
ATOM     63  C   LIG    1       20.294 -33.031  11.329  0.00  0.00    +0.050 A 
BRANCH  58  65
ATOM     64  C   LIG    1       17.460 -32.931  11.407  0.00  0.00    +0.277 C 
ATOM     65  O   LIG    1       18.236 -31.752  11.628  0.00  0.00    -0.491 OA
ENDBRANCH  58  65
BRANCH  59  66
ATOM     66  O   LIG    1       19.824 -29.771  13.042  0.00  0.00    -0.491 OA
ATOM     67  C   LIG    1       20.081 -29.458  14.407  0.00  0.00    +0.277 C 
ENDBRANCH  59  66
ENDBRANCH  57  61
ENDBRANCH  42  57
ENDBRANCH  41  43
ENDBRANCH  40  41
ENDBRANCH  38  40
ENDBRANCH  37  38
ENDBRANCH  36  37
ENDBRANCH  35  36
ENDBRANCH   1  35
TORSDOF 26
ENDMDL
