MODEL 1
REMARK VINA RESULT:      45.5      0.000      0.000
REMARK  Name = *****
REMARK                            x       y       z     vdW  Elec       q    Type
REMARK                         _______ _______ _______ _____ _____    ______ ____
ROOT
ATOM      1  CA  LIG    1       20.650 -16.556   4.449  0.00  0.00    +0.191 C 
ATOM      2  C   LIG    1       21.699 -15.909   5.407  0.00  0.00    +0.169 C 
ATOM      3  N   LIG    1       22.061 -15.037   4.310  0.00  0.00    -0.249 N 
ATOM      4  CA  LIG    1       23.118 -14.166   4.311  0.00  0.00    +0.126 C 
ATOM      5  C   LIG    1       24.095 -14.275   5.248  0.00  0.00    -0.009 C 
ATOM      6  C   LIG    1       24.148 -15.380   6.295  0.00  0.00    +0.108 C 
ATOM      7  S   LIG    1       23.169 -16.859   5.866  0.00  0.00    -0.131 S 
ATOM      8  C   LIG    1       21.168 -15.512   3.418  0.00  0.00    +0.244 C 
ATOM      9  O   LIG    1       20.958 -15.288   2.240  0.00  0.00    -0.273 OA
ENDROOT
BRANCH   1  11
ATOM     10  C   LIG    1       21.642 -18.852   4.723  0.00  0.00    +0.268 C 
ATOM     11  N   LIG    1       20.799 -17.984   4.057  0.00  0.00    -0.296 N 
ATOM     12  H   LIG    1       20.366 -18.350   3.209  0.00  0.00    +0.150 HD
ATOM     13  O   LIG    1       22.233 -18.536   5.748  0.00  0.00    -0.268 OA
BRANCH  10  15
ATOM     14  N   LIG    1       20.815 -21.141   4.076  0.00  0.00    -0.078 NA
ATOM     15  C   LIG    1       21.790 -20.271   4.130  0.00  0.00    +0.190 C 
BRANCH  15  16
ATOM     16  C   LIG    1       23.076 -20.726   3.578  0.00  0.00    +0.107 A 
ATOM     17  N   LIG    1       24.188 -20.912   4.408  0.00  0.00    -0.223 NA
ATOM     18  C   LIG    1       25.225 -21.318   3.722  0.00  0.00    +0.156 A 
ATOM     19  S   LIG    1       24.951 -21.544   2.047  0.00  0.00    -0.060 S 
ATOM     20  C   LIG    1       23.330 -21.028   2.251  0.00  0.00    +0.078 A 
BRANCH  18  21
ATOM     21  N   LIG    1       26.420 -21.560   4.280  0.00  0.00    -0.338 N 
ATOM     22  H   LIG    1       26.422 -22.260   5.013  0.00  0.00    +0.144 HD
ATOM     23  H   LIG    1       27.235 -21.581   3.680  0.00  0.00    +0.144 HD
ENDBRANCH  18  21
ENDBRANCH  15  16
BRANCH  14  25
ATOM     24  C   LIG    1       19.374 -19.347   4.160  0.00  0.00    +0.313 C 
ATOM     25  O   LIG    1       19.608 -20.678   4.606  0.00  0.00    -0.396 OA
ENDBRANCH  14  25
ENDBRANCH  10  15
ENDBRANCH   1  11
BRANCH   4  26
ATOM     26  C   LIG    1       23.154 -13.094   3.255  0.00  0.00    +0.352 C 
ATOM     27  O   LIG    1       23.547 -13.196   2.106  0.00  0.00    -0.244 OA
BRANCH  26  28
ATOM     28  OXT LIG    1       22.735 -11.906   3.724  0.00  0.00    -0.476 OA
ATOM     29  HXT LIG    1       22.753 -11.311   2.947  0.00  0.00    +0.295 HD
ENDBRANCH  26  28
ENDBRANCH   4  26
BRANCH   5  30
ATOM     30  C   LIG    1       25.254 -13.375   5.299  0.00  0.00    +0.007 C 
ATOM     31  C   LIG    1       26.529 -13.771   5.153  0.00  0.00    +0.017 C 
BRANCH  31  32
ATOM     32  C   LIG    1       27.648 -12.889   5.291  0.00  0.00    +0.035 A 
ATOM     33  C   LIG    1       28.393 -12.261   4.290  0.00  0.00    +0.052 A 
ATOM     34  C   LIG    1       28.206 -12.400   2.819  0.00  0.00    +0.067 C 
ATOM     35  N   LIG    1       29.430 -11.448   4.724  0.00  0.00    -0.252 NA
ATOM     36  C   LIG    1       29.473 -11.453   6.035  0.00  0.00    +0.156 A 
ATOM     37  S   LIG    1       28.286 -12.394   6.822  0.00  0.00    -0.076 S 
ENDBRANCH  31  32
ENDBRANCH   5  30
TORSDOF 9
ENDMDL
