MODEL 1
REMARK VINA RESULT:      -4.9      0.000      0.000
REMARK  Name = *****
REMARK                            x       y       z     vdW  Elec       q    Type
REMARK                         _______ _______ _______ _____ _____    ______ ____
ROOT
ATOM      1  C   LIG    1       27.111 -17.149   3.627  0.00  0.00    +0.162 C 
ENDROOT
BRANCH   1   2
ATOM      2  C   LIG    1       27.678 -18.136   4.645  0.00  0.00    -0.007 A 
ATOM      3  C   LIG    1       26.926 -19.256   5.117  0.00  0.00    +0.009 A 
ATOM      4  C   LIG    1       27.555 -20.107   6.058  0.00  0.00    +0.071 A 
ATOM      5  C   LIG    1       26.879 -21.220   6.530  0.00  0.00    +0.032 A 
ATOM      6  C   LIG    1       25.585 -21.536   6.114  0.00  0.00    +0.048 A 
ATOM      7  C   LIG    1       24.934 -20.712   5.207  0.00  0.00    +0.121 A 
ATOM      8  N   LIG    1       28.787 -19.898   6.540  0.00  0.00    -0.255 NA
ATOM      9  C   LIG    1       29.462 -18.822   6.098  0.00  0.00    +0.112 A 
ATOM     10  C   LIG    1       25.600 -19.580   4.721  0.00  0.00    +0.056 A 
ATOM     11  C   LIG    1       28.958 -17.927   5.177  0.00  0.00    +0.026 A 
BRANCH   7  12
ATOM     12  O   LIG    1       23.670 -20.901   4.722  0.00  0.00    -0.495 OA
ATOM     13  C   LIG    1       22.670 -19.997   5.189  0.00  0.00    +0.277 C 
ENDBRANCH   7  12
ENDBRANCH   1   2
BRANCH   1  17
ATOM     14  C   LIG    1       25.632 -12.983   4.242  0.00  0.00    +0.028 C 
ATOM     15  C   LIG    1       25.489 -13.842   2.961  0.00  0.00    -0.000 C 
ATOM     16  C   LIG    1       25.300 -15.332   3.310  0.00  0.00    +0.026 C 
ATOM     17  C   LIG    1       26.480 -15.823   4.194  0.00  0.00    +0.090 C 
ATOM     18  N   LIG    1       27.451 -14.712   4.431  0.00  0.00    -0.296 NA
ATOM     19  C   LIG    1       27.966 -14.192   3.146  0.00  0.00    +0.085 C 
ATOM     20  C   LIG    1       26.831 -13.752   2.209  0.00  0.00    +0.019 C 
ATOM     21  C   LIG    1       26.734 -13.616   5.131  0.00  0.00    +0.092 C 
BRANCH  14  23
ATOM     22  C   LIG    1       23.715 -11.625   5.146  0.00  0.00    +0.004 C 
ATOM     23  C   LIG    1       24.339 -12.801   5.003  0.00  0.00    -0.029 C 
ENDBRANCH  14  23
ENDBRANCH   1  17
BRANCH   1  24
ATOM     24  O   LIG    1       26.108 -17.826   2.854  0.00  0.00    -0.386 OA
ATOM     25  H   LIG    1       26.192 -17.531   1.931  0.00  0.00    +0.210 HD
ENDBRANCH   1  24
TORSDOF 5
ENDMDL
MODEL 2
REMARK VINA RESULT:      -3.1      1.150      2.054
REMARK  Name = *****
REMARK                            x       y       z     vdW  Elec       q    Type
REMARK                         _______ _______ _______ _____ _____    ______ ____
ROOT
ATOM      1  C   LIG    1       26.569 -17.302   3.349  0.00  0.00    +0.162 C 
ENDROOT
BRANCH   1   2
ATOM      2  C   LIG    1       27.171 -18.275   4.360  0.00  0.00    -0.007 A 
ATOM      3  C   LIG    1       26.419 -19.359   4.910  0.00  0.00    +0.009 A 
ATOM      4  C   LIG    1       27.082 -20.201   5.836  0.00  0.00    +0.071 A 
ATOM      5  C   LIG    1       26.406 -21.281   6.381  0.00  0.00    +0.032 A 
ATOM      6  C   LIG    1       25.081 -21.572   6.054  0.00  0.00    +0.048 A 
ATOM      7  C   LIG    1       24.398 -20.755   5.164  0.00  0.00    +0.121 A 
ATOM      8  N   LIG    1       28.346 -20.014   6.236  0.00  0.00    -0.255 NA
ATOM      9  C   LIG    1       29.021 -18.971   5.722  0.00  0.00    +0.112 A 
ATOM     10  C   LIG    1       25.063 -19.657   4.605  0.00  0.00    +0.056 A 
ATOM     11  C   LIG    1       28.486 -18.088   4.807  0.00  0.00    +0.026 A 
BRANCH   7  12
ATOM     12  O   LIG    1       23.102 -20.921   4.762  0.00  0.00    -0.495 OA
ATOM     13  C   LIG    1       22.268 -19.765   4.815  0.00  0.00    +0.277 C 
ENDBRANCH   7  12
ENDBRANCH   1   2
BRANCH   1  17
ATOM     14  C   LIG    1       27.334 -12.927   3.801  0.00  0.00    +0.028 C 
ATOM     15  C   LIG    1       26.773 -13.891   4.877  0.00  0.00    -0.000 C 
ATOM     16  C   LIG    1       27.400 -15.293   4.749  0.00  0.00    +0.026 C 
ATOM     17  C   LIG    1       27.170 -15.848   3.315  0.00  0.00    +0.090 C 
ATOM     18  N   LIG    1       26.399 -14.865   2.494  0.00  0.00    -0.296 NA
ATOM     19  C   LIG    1       25.100 -14.563   3.133  0.00  0.00    +0.085 C 
ATOM     20  C   LIG    1       25.272 -14.071   4.578  0.00  0.00    +0.019 C 
ATOM     21  C   LIG    1       27.190 -13.610   2.416  0.00  0.00    +0.092 C 
BRANCH  14  23
ATOM     22  C   LIG    1       29.153 -11.859   5.173  0.00  0.00    +0.004 C 
ATOM     23  C   LIG    1       28.756 -12.485   4.059  0.00  0.00    -0.029 C 
ENDBRANCH  14  23
ENDBRANCH   1  17
BRANCH   1  24
ATOM     24  O   LIG    1       25.161 -17.197   3.608  0.00  0.00    -0.386 OA
ATOM     25  H   LIG    1       24.710 -17.893   3.099  0.00  0.00    +0.210 HD
ENDBRANCH   1  24
TORSDOF 5
ENDMDL
