MODEL 1
REMARK VINA RESULT:       2.6      0.000      0.000
REMARK  Name = *****
REMARK                            x       y       z     vdW  Elec       q    Type
REMARK                         _______ _______ _______ _____ _____    ______ ____
ROOT
ATOM      1  C   LIG    1       25.722 -17.110   2.996  0.00  0.00    +0.086 C 
ENDROOT
BRANCH   1   2
ATOM      2  N   LIG    1       26.739 -16.094   3.327  0.00  0.00    -0.302 NA
ATOM      3  C   LIG    1       26.954 -15.086   2.288  0.00  0.00    +0.086 C 
ATOM      4  C   LIG    1       25.783 -14.124   2.113  0.00  0.00    +0.047 C 
ATOM      5  C   LIG    1       25.332 -13.384   3.409  0.00  0.00    +0.101 C 
ATOM      6  C   LIG    1       25.281 -14.458   4.552  0.00  0.00    +0.047 C 
ATOM      7  C   LIG    1       26.471 -15.412   4.601  0.00  0.00    +0.086 C 
BRANCH   5   8
ATOM      8  N   LIG    1       26.220 -12.243   3.827  0.00  0.00    -0.289 NA
ATOM      9  C   LIG    1       26.648 -12.103   5.223  0.00  0.00    +0.085 C 
ATOM     10  C   LIG    1       27.900 -12.894   5.607  0.00  0.00    +0.015 C 
ATOM     11  C   LIG    1       29.066 -12.627   4.662  0.00  0.00    +0.002 C 
ATOM     12  C   LIG    1       28.644 -12.686   3.201  0.00  0.00    +0.015 C 
ATOM     13  C   LIG    1       27.350 -11.910   2.936  0.00  0.00    +0.085 C 
ENDBRANCH   5   8
BRANCH   5  14
ATOM     14  C   LIG    1       23.844 -12.939   3.216  0.00  0.00    +0.231 C 
ATOM     15  O   LIG    1       22.892 -13.721   3.241  0.00  0.00    -0.274 OA
ATOM     16  N   LIG    1       23.576 -11.613   3.038  0.00  0.00    -0.328 N 
ATOM     17  H   LIG    1       22.614 -11.373   2.835  0.00  0.00    +0.145 HD
ATOM     18  H   LIG    1       24.283 -10.907   2.903  0.00  0.00    +0.145 HD
ENDBRANCH   5  14
ENDBRANCH   1   2
BRANCH   1  19
ATOM     19  C   LIG    1       25.240 -17.871   4.264  0.00  0.00    +0.046 C 
BRANCH  19  20
ATOM     20  C   LIG    1       25.572 -19.398   4.356  0.00  0.00    +0.108 C 
BRANCH  20  21
ATOM     21  C   LIG    1       26.959 -19.499   5.090  0.00  0.00    -0.023 A 
ATOM     22  C   LIG    1       27.237 -20.552   5.998  0.00  0.00    +0.005 A 
ATOM     23  C   LIG    1       28.454 -20.630   6.687  0.00  0.00    +0.000 A 
ATOM     24  C   LIG    1       29.431 -19.664   6.482  0.00  0.00    +0.000 A 
ATOM     25  C   LIG    1       29.209 -18.653   5.552  0.00  0.00    +0.000 A 
ATOM     26  C   LIG    1       27.998 -18.583   4.847  0.00  0.00    +0.005 A 
ENDBRANCH  20  21
BRANCH  20  27
ATOM     27  C   LIG    1       24.454 -20.226   5.050  0.00  0.00    -0.023 A 
ATOM     28  C   LIG    1       24.614 -20.802   6.326  0.00  0.00    +0.005 A 
ATOM     29  C   LIG    1       23.559 -21.426   6.994  0.00  0.00    +0.000 A 
ATOM     30  C   LIG    1       22.333 -21.571   6.364  0.00  0.00    +0.000 A 
ATOM     31  C   LIG    1       22.164 -21.085   5.070  0.00  0.00    +0.000 A 
ATOM     32  C   LIG    1       23.208 -20.413   4.420  0.00  0.00    +0.005 A 
ENDBRANCH  20  27
BRANCH  20  34
ATOM     33  N   LIG    1       25.777 -20.288   1.857  0.00  0.00    -0.195 NA
ATOM     34  C   LIG    1       25.728 -19.887   2.937  0.00  0.00    +0.079 C 
ENDBRANCH  20  34
ENDBRANCH  19  20
ENDBRANCH   1  19
TORSDOF 8
ENDMDL
MODEL 2
REMARK VINA RESULT:       3.0      1.613      2.925
REMARK  Name = *****
REMARK                            x       y       z     vdW  Elec       q    Type
REMARK                         _______ _______ _______ _____ _____    ______ ____
ROOT
ATOM      1  C   LIG    1       25.701 -16.812   3.317  0.00  0.00    +0.086 C 
ENDROOT
BRANCH   1   2
ATOM      2  N   LIG    1       24.950 -15.549   3.173  0.00  0.00    -0.302 NA
ATOM      3  C   LIG    1       24.760 -14.809   4.422  0.00  0.00    +0.086 C 
ATOM      4  C   LIG    1       26.044 -14.199   4.975  0.00  0.00    +0.047 C 
ATOM      5  C   LIG    1       26.820 -13.276   3.987  0.00  0.00    +0.101 C 
ATOM      6  C   LIG    1       26.856 -14.018   2.605  0.00  0.00    +0.047 C 
ATOM      7  C   LIG    1       25.536 -14.648   2.172  0.00  0.00    +0.086 C 
BRANCH   5   8
ATOM      8  N   LIG    1       26.232 -11.902   3.809  0.00  0.00    -0.289 NA
ATOM      9  C   LIG    1       25.785 -11.448   2.489  0.00  0.00    +0.085 C 
ATOM     10  C   LIG    1       24.356 -11.841   2.109  0.00  0.00    +0.015 C 
ATOM     11  C   LIG    1       23.344 -11.447   3.180  0.00  0.00    +0.002 C 
ATOM     12  C   LIG    1       23.809 -11.833   4.576  0.00  0.00    +0.015 C 
ATOM     13  C   LIG    1       25.269 -11.447   4.833  0.00  0.00    +0.085 C 
ENDBRANCH   5   8
BRANCH   5  14
ATOM     14  C   LIG    1       28.315 -13.227   4.449  0.00  0.00    +0.231 C 
ATOM     15  O   LIG    1       29.248 -13.679   3.783  0.00  0.00    -0.274 OA
ATOM     16  N   LIG    1       28.612 -12.629   5.640  0.00  0.00    -0.328 N 
ATOM     17  H   LIG    1       29.576 -12.688   5.943  0.00  0.00    +0.145 HD
ATOM     18  H   LIG    1       27.920 -12.318   6.304  0.00  0.00    +0.145 HD
ENDBRANCH   5  14
ENDBRANCH   1   2
BRANCH   1  19
ATOM     19  C   LIG    1       24.749 -18.019   3.552  0.00  0.00    +0.046 C 
BRANCH  19  20
ATOM     20  C   LIG    1       25.391 -19.354   4.055  0.00  0.00    +0.108 C 
BRANCH  20  21
ATOM     21  C   LIG    1       26.829 -18.979   4.572  0.00  0.00    -0.023 A 
ATOM     22  C   LIG    1       27.602 -19.895   5.330  0.00  0.00    +0.005 A 
ATOM     23  C   LIG    1       28.866 -19.557   5.828  0.00  0.00    +0.000 A 
ATOM     24  C   LIG    1       29.398 -18.299   5.577  0.00  0.00    +0.000 A 
ATOM     25  C   LIG    1       28.688 -17.401   4.785  0.00  0.00    +0.000 A 
ATOM     26  C   LIG    1       27.429 -17.744   4.269  0.00  0.00    +0.005 A 
ENDBRANCH  20  21
BRANCH  20  27
ATOM     27  C   LIG    1       24.531 -20.082   5.126  0.00  0.00    -0.023 A 
ATOM     28  C   LIG    1       23.122 -20.041   5.128  0.00  0.00    +0.005 A 
ATOM     29  C   LIG    1       22.360 -20.807   6.011  0.00  0.00    +0.000 A 
ATOM     30  C   LIG    1       22.990 -21.571   6.981  0.00  0.00    +0.000 A 
ATOM     31  C   LIG    1       24.380 -21.572   7.061  0.00  0.00    +0.000 A 
ATOM     32  C   LIG    1       25.145 -20.843   6.140  0.00  0.00    +0.005 A 
ENDBRANCH  20  27
BRANCH  20  34
ATOM     33  N   LIG    1       25.569 -20.888   1.889  0.00  0.00    -0.195 NA
ATOM     34  C   LIG    1       25.519 -20.249   2.847  0.00  0.00    +0.079 C 
ENDBRANCH  20  34
ENDBRANCH  19  20
ENDBRANCH   1  19
TORSDOF 8
ENDMDL
MODEL 3
REMARK VINA RESULT:       4.0      2.496      7.824
REMARK  Name = *****
REMARK                            x       y       z     vdW  Elec       q    Type
REMARK                         _______ _______ _______ _____ _____    ______ ____
ROOT
ATOM      1  C   LIG    1       26.015 -16.782   3.268  0.00  0.00    +0.086 C 
ENDROOT
BRANCH   1   2
ATOM      2  N   LIG    1       25.049 -17.891   3.143  0.00  0.00    -0.302 NA
ATOM      3  C   LIG    1       25.616 -19.136   2.624  0.00  0.00    +0.086 C 
ATOM      4  C   LIG    1       26.568 -19.829   3.594  0.00  0.00    +0.047 C 
ATOM      5  C   LIG    1       25.978 -20.126   5.006  0.00  0.00    +0.101 C 
ATOM      6  C   LIG    1       25.223 -18.830   5.466  0.00  0.00    +0.047 C 
ATOM      7  C   LIG    1       24.345 -18.178   4.401  0.00  0.00    +0.086 C 
BRANCH   5   8
ATOM      8  N   LIG    1       25.043 -21.305   5.066  0.00  0.00    -0.289 NA
ATOM      9  C   LIG    1       24.252 -21.568   6.272  0.00  0.00    +0.085 C 
ATOM     10  C   LIG    1       22.920 -20.820   6.358  0.00  0.00    +0.015 C 
ATOM     11  C   LIG    1       22.068 -21.011   5.108  0.00  0.00    +0.002 C 
ATOM     12  C   LIG    1       22.874 -20.822   3.831  0.00  0.00    +0.015 C 
ATOM     13  C   LIG    1       24.214 -21.564   3.872  0.00  0.00    +0.085 C 
ENDBRANCH   5   8
BRANCH   5  14
ATOM     14  C   LIG    1       27.173 -20.264   6.007  0.00  0.00    +0.231 C 
ATOM     15  O   LIG    1       27.129 -20.953   7.028  0.00  0.00    -0.274 OA
ATOM     16  N   LIG    1       28.338 -19.611   5.729  0.00  0.00    -0.328 N 
ATOM     17  H   LIG    1       29.059 -19.657   6.437  0.00  0.00    +0.145 HD
ATOM     18  H   LIG    1       28.448 -18.947   4.978  0.00  0.00    +0.145 HD
ENDBRANCH   5  14
ENDBRANCH   1   2
BRANCH   1  19
ATOM     19  C   LIG    1       25.513 -15.502   2.541  0.00  0.00    +0.046 C 
BRANCH  19  20
ATOM     20  C   LIG    1       25.200 -14.249   3.424  0.00  0.00    +0.108 C 
BRANCH  20  21
ATOM     21  C   LIG    1       23.992 -14.656   4.346  0.00  0.00    -0.023 A 
ATOM     22  C   LIG    1       23.678 -13.920   5.517  0.00  0.00    +0.005 A 
ATOM     23  C   LIG    1       22.630 -14.297   6.366  0.00  0.00    +0.000 A 
ATOM     24  C   LIG    1       21.860 -15.413   6.065  0.00  0.00    +0.000 A 
ATOM     25  C   LIG    1       22.107 -16.119   4.891  0.00  0.00    +0.000 A 
ATOM     26  C   LIG    1       23.145 -15.733   4.030  0.00  0.00    +0.005 A 
ENDBRANCH  20  21
BRANCH  20  27
ATOM     27  C   LIG    1       26.432 -13.741   4.224  0.00  0.00    -0.023 A 
ATOM     28  C   LIG    1       27.506 -13.059   3.618  0.00  0.00    +0.005 A 
ATOM     29  C   LIG    1       28.538 -12.490   4.365  0.00  0.00    +0.000 A 
ATOM     30  C   LIG    1       28.572 -12.665   5.739  0.00  0.00    +0.000 A 
ATOM     31  C   LIG    1       27.569 -13.402   6.364  0.00  0.00    +0.000 A 
ATOM     32  C   LIG    1       26.505 -13.929   5.619  0.00  0.00    +0.005 A 
ENDBRANCH  20  27
BRANCH  20  34
ATOM     33  N   LIG    1       24.397 -12.288   1.815  0.00  0.00    -0.195 NA
ATOM     34  C   LIG    1       24.754 -13.161   2.479  0.00  0.00    +0.079 C 
ENDBRANCH  20  34
ENDBRANCH  19  20
ENDBRANCH   1  19
TORSDOF 8
ENDMDL
