MODEL 1
REMARK VINA RESULT:      -3.7      0.000      0.000
REMARK  Name = *****
REMARK                            x       y       z     vdW  Elec       q    Type
REMARK                         _______ _______ _______ _____ _____    ______ ____
ROOT
ATOM      1  C   LIG    1       26.434 -14.002   3.914  0.00  0.00    +0.148 C 
ATOM      2  C   LIG    1       25.768 -12.998   2.958  0.00  0.00    +0.242 C 
ATOM      3  O   LIG    1       26.186 -12.810   1.812  0.00  0.00    -0.274 OA
ATOM      4  N   LIG    1       24.617 -12.376   3.426  0.00  0.00    -0.228 N 
ATOM      5  C   LIG    1       23.843 -11.592   2.480  0.00  0.00    +0.143 C 
ATOM      6  C   LIG    1       24.338 -12.204   4.765  0.00  0.00    +0.315 C 
ATOM      7  O   LIG    1       23.467 -11.447   5.192  0.00  0.00    -0.252 OA
ATOM      8  N   LIG    1       25.148 -12.844   5.651  0.00  0.00    -0.239 N 
ATOM      9  H   LIG    1       25.030 -12.564   6.616  0.00  0.00    +0.159 HD
ATOM     10  C   LIG    1       26.313 -13.488   5.348  0.00  0.00    +0.240 C 
ATOM     11  O   LIG    1       27.148 -13.681   6.230  0.00  0.00    -0.274 OA
ENDROOT
BRANCH   1  12
ATOM     12  C   LIG    1       25.756 -15.398   3.786  0.00  0.00    -0.024 A 
ATOM     13  C   LIG    1       24.397 -15.579   4.112  0.00  0.00    +0.005 A 
ATOM     14  C   LIG    1       23.790 -16.833   4.012  0.00  0.00    +0.000 A 
ATOM     15  C   LIG    1       24.529 -17.938   3.604  0.00  0.00    +0.000 A 
ATOM     16  C   LIG    1       25.880 -17.792   3.310  0.00  0.00    +0.000 A 
ATOM     17  C   LIG    1       26.490 -16.538   3.408  0.00  0.00    +0.005 A 
ENDBRANCH   1  12
BRANCH   1  19
ATOM     18  C   LIG    1       28.812 -12.962   3.713  0.00  0.00    +0.005 C 
ATOM     19  C   LIG    1       27.932 -14.198   3.538  0.00  0.00    +0.027 C 
ENDBRANCH   1  19
TORSDOF 2
ENDMDL
MODEL 2
REMARK VINA RESULT:      -2.6      1.494      3.707
REMARK  Name = *****
REMARK                            x       y       z     vdW  Elec       q    Type
REMARK                         _______ _______ _______ _____ _____    ______ ____
ROOT
ATOM      1  C   LIG    1       25.140 -13.712   4.040  0.00  0.00    +0.148 C 
ATOM      2  C   LIG    1       26.134 -13.399   5.171  0.00  0.00    +0.242 C 
ATOM      3  O   LIG    1       25.760 -13.178   6.327  0.00  0.00    -0.274 OA
ATOM      4  N   LIG    1       27.481 -13.463   4.839  0.00  0.00    -0.228 N 
ATOM      5  C   LIG    1       28.445 -13.389   5.922  0.00  0.00    +0.143 C 
ATOM      6  C   LIG    1       27.957 -13.285   3.558  0.00  0.00    +0.315 C 
ATOM      7  O   LIG    1       29.141 -13.089   3.288  0.00  0.00    -0.252 OA
ATOM      8  N   LIG    1       27.034 -13.230   2.559  0.00  0.00    -0.239 N 
ATOM      9  H   LIG    1       27.393 -12.928   1.664  0.00  0.00    +0.159 HD
ATOM     10  C   LIG    1       25.681 -13.152   2.725  0.00  0.00    +0.240 C 
ATOM     11  O   LIG    1       24.982 -12.718   1.812  0.00  0.00    -0.274 OA
ENDROOT
BRANCH   1  12
ATOM     12  C   LIG    1       24.927 -15.250   3.920  0.00  0.00    -0.024 A 
ATOM     13  C   LIG    1       25.950 -16.090   3.436  0.00  0.00    +0.005 A 
ATOM     14  C   LIG    1       25.757 -17.468   3.314  0.00  0.00    +0.000 A 
ATOM     15  C   LIG    1       24.534 -18.036   3.653  0.00  0.00    +0.000 A 
ATOM     16  C   LIG    1       23.498 -17.225   4.102  0.00  0.00    +0.000 A 
ATOM     17  C   LIG    1       23.688 -15.845   4.226  0.00  0.00    +0.005 A 
ENDBRANCH   1  12
BRANCH   1  19
ATOM     18  C   LIG    1       23.725 -11.570   4.474  0.00  0.00    +0.005 C 
ATOM     19  C   LIG    1       23.746 -13.093   4.353  0.00  0.00    +0.027 C 
ENDBRANCH   1  19
TORSDOF 2
ENDMDL
MODEL 3
REMARK VINA RESULT:      -2.6      1.489      3.539
REMARK  Name = *****
REMARK                            x       y       z     vdW  Elec       q    Type
REMARK                         _______ _______ _______ _____ _____    ______ ____
ROOT
ATOM      1  C   LIG    1       25.116 -13.741   4.018  0.00  0.00    +0.148 C 
ATOM      2  C   LIG    1       26.105 -13.458   5.162  0.00  0.00    +0.242 C 
ATOM      3  O   LIG    1       25.726 -13.261   6.319  0.00  0.00    -0.274 OA
ATOM      4  N   LIG    1       27.454 -13.520   4.836  0.00  0.00    -0.228 N 
ATOM      5  C   LIG    1       28.412 -13.473   5.926  0.00  0.00    +0.143 C 
ATOM      6  C   LIG    1       27.938 -13.315   3.561  0.00  0.00    +0.315 C 
ATOM      7  O   LIG    1       29.124 -13.117   3.302  0.00  0.00    -0.252 OA
ATOM      8  N   LIG    1       27.020 -13.233   2.559  0.00  0.00    -0.239 N 
ATOM      9  H   LIG    1       27.386 -12.912   1.673  0.00  0.00    +0.159 HD
ATOM     10  C   LIG    1       25.667 -13.153   2.719  0.00  0.00    +0.240 C 
ATOM     11  O   LIG    1       24.975 -12.696   1.812  0.00  0.00    -0.274 OA
ENDROOT
BRANCH   1  12
ATOM     12  C   LIG    1       24.898 -15.274   3.863  0.00  0.00    -0.024 A 
ATOM     13  C   LIG    1       23.669 -15.873   4.206  0.00  0.00    +0.005 A 
ATOM     14  C   LIG    1       23.477 -17.251   4.082  0.00  0.00    +0.000 A 
ATOM     15  C   LIG    1       24.511 -18.065   3.631  0.00  0.00    +0.000 A 
ATOM     16  C   LIG    1       25.743 -17.503   3.318  0.00  0.00    +0.000 A 
ATOM     17  C   LIG    1       25.939 -16.124   3.441  0.00  0.00    +0.005 A 
ENDBRANCH   1  12
BRANCH   1  19
ATOM     18  C   LIG    1       23.728 -11.621   4.616  0.00  0.00    +0.005 C 
ATOM     19  C   LIG    1       23.723 -13.123   4.337  0.00  0.00    +0.027 C 
ENDBRANCH   1  19
TORSDOF 2
ENDMDL
