MODEL 1
REMARK VINA RESULT:      -2.8      0.000      0.000
REMARK  Name = *****
REMARK                            x       y       z     vdW  Elec       q    Type
REMARK                         _______ _______ _______ _____ _____    ______ ____
ROOT
ATOM      1  C   LIG    1       27.713 -20.401   6.120  0.00  0.00    +0.009 A 
ATOM      2  C   LIG    1       26.912 -19.664   5.230  0.00  0.00    +0.039 A 
ATOM      3  C   LIG    1       25.510 -19.835   5.131  0.00  0.00    +0.049 A 
ATOM      4  N   LIG    1       24.702 -19.074   4.226  0.00  0.00    -0.298 N 
ATOM      5  C   LIG    1       23.282 -19.177   4.098  0.00  0.00    +0.048 A 
ATOM      6  C   LIG    1       22.534 -20.114   4.840  0.00  0.00    +0.034 A 
ATOM      7  S   LIG    1       23.232 -21.225   6.033  0.00  0.00    -0.086 S 
ATOM      8  C   LIG    1       21.136 -20.233   4.681  0.00  0.00    +0.017 A 
ATOM      9  C   LIG    1       20.443 -19.422   3.793  0.00  0.00    +0.001 A 
ATOM     10  C   LIG    1       21.144 -18.478   3.066  0.00  0.00    +0.002 A 
ATOM     11  C   LIG    1       22.533 -18.353   3.225  0.00  0.00    +0.024 A 
ATOM     12  C   LIG    1       24.954 -20.807   5.987  0.00  0.00    +0.034 A 
ATOM     13  C   LIG    1       25.760 -21.546   6.881  0.00  0.00    +0.018 A 
ATOM     14  C   LIG    1       27.131 -21.347   6.947  0.00  0.00    +0.016 A 
ENDROOT
BRANCH   1  16
ATOM     15  C   LIG    1       29.472 -18.333   5.927  0.00  0.00    +0.090 C 
ATOM     16  S   LIG    1       29.475 -20.126   6.174  0.00  0.00    -0.129 S 
ENDBRANCH   1  16
BRANCH   4  17
ATOM     17  C   LIG    1       25.403 -18.131   3.317  0.00  0.00    +0.112 C 
BRANCH  17  18
ATOM     18  C   LIG    1       25.841 -16.851   4.057  0.00  0.00    +0.038 C 
BRANCH  18  19
ATOM     19  C   LIG    1       25.597 -15.555   3.239  0.00  0.00    +0.058 C 
ATOM     20  N   LIG    1       24.821 -14.507   3.939  0.00  0.00    -0.302 NA
ATOM     21  C   LIG    1       23.458 -14.902   4.275  0.00  0.00    +0.105 C 
ATOM     22  C   LIG    1       25.515 -13.935   5.097  0.00  0.00    +0.084 C 
ATOM     23  C   LIG    1       26.853 -13.315   4.689  0.00  0.00    +0.015 C 
ATOM     24  C   LIG    1       27.710 -14.279   3.878  0.00  0.00    +0.003 C 
ATOM     25  C   LIG    1       26.898 -14.890   2.741  0.00  0.00    +0.019 C 
ENDBRANCH  18  19
ENDBRANCH  17  18
ENDBRANCH   4  17
TORSDOF 4
ENDMDL
MODEL 2
REMARK VINA RESULT:      -2.3      2.210      5.287
REMARK  Name = *****
REMARK                            x       y       z     vdW  Elec       q    Type
REMARK                         _______ _______ _______ _____ _____    ______ ____
ROOT
ATOM      1  C   LIG    1       25.764 -14.661   3.318  0.00  0.00    +0.009 A 
ATOM      2  C   LIG    1       25.874 -16.063   3.330  0.00  0.00    +0.039 A 
ATOM      3  C   LIG    1       24.809 -16.918   3.705  0.00  0.00    +0.049 A 
ATOM      4  N   LIG    1       24.930 -18.345   3.706  0.00  0.00    -0.298 N 
ATOM      5  C   LIG    1       23.888 -19.262   4.044  0.00  0.00    +0.048 A 
ATOM      6  C   LIG    1       22.620 -18.823   4.477  0.00  0.00    +0.034 A 
ATOM      7  S   LIG    1       22.149 -17.118   4.609  0.00  0.00    -0.086 S 
ATOM      8  C   LIG    1       21.608 -19.737   4.843  0.00  0.00    +0.017 A 
ATOM      9  C   LIG    1       21.821 -21.107   4.779  0.00  0.00    +0.001 A 
ATOM     10  C   LIG    1       23.047 -21.571   4.337  0.00  0.00    +0.002 A 
ATOM     11  C   LIG    1       24.053 -20.666   3.968  0.00  0.00    +0.024 A 
ATOM     12  C   LIG    1       23.613 -16.272   4.076  0.00  0.00    +0.034 A 
ATOM     13  C   LIG    1       23.503 -14.864   4.064  0.00  0.00    +0.018 A 
ATOM     14  C   LIG    1       24.571 -14.062   3.690  0.00  0.00    +0.016 A 
ENDROOT
BRANCH   1  16
ATOM     15  C   LIG    1       27.851 -13.362   4.486  0.00  0.00    +0.090 C 
ATOM     16  S   LIG    1       27.159 -13.658   2.840  0.00  0.00    -0.129 S 
ENDBRANCH   1  16
BRANCH   4  17
ATOM     17  C   LIG    1       26.260 -18.914   3.369  0.00  0.00    +0.112 C 
BRANCH  17  18
ATOM     18  C   LIG    1       26.693 -19.984   4.391  0.00  0.00    +0.038 C 
BRANCH  18  19
ATOM     19  C   LIG    1       26.987 -19.404   5.801  0.00  0.00    +0.058 C 
ATOM     20  N   LIG    1       26.737 -20.332   6.927  0.00  0.00    -0.302 NA
ATOM     21  C   LIG    1       25.344 -20.740   7.062  0.00  0.00    +0.105 C 
ATOM     22  C   LIG    1       27.640 -21.487   6.948  0.00  0.00    +0.084 C 
ATOM     23  C   LIG    1       29.101 -21.047   7.036  0.00  0.00    +0.015 C 
ATOM     24  C   LIG    1       29.457 -20.015   5.974  0.00  0.00    +0.003 C 
ATOM     25  C   LIG    1       28.432 -18.885   5.962  0.00  0.00    +0.019 C 
ENDBRANCH  18  19
ENDBRANCH  17  18
ENDBRANCH   4  17
TORSDOF 4
ENDMDL
MODEL 3
REMARK VINA RESULT:       0.1      2.467      5.605
REMARK  Name = *****
REMARK                            x       y       z     vdW  Elec       q    Type
REMARK                         _______ _______ _______ _____ _____    ______ ____
ROOT
ATOM      1  C   LIG    1       26.679 -13.623   3.579  0.00  0.00    +0.009 A 
ATOM      2  C   LIG    1       26.536 -15.019   3.477  0.00  0.00    +0.039 A 
ATOM      3  C   LIG    1       25.317 -15.691   3.736  0.00  0.00    +0.049 A 
ATOM      4  N   LIG    1       25.180 -17.111   3.621  0.00  0.00    -0.298 N 
ATOM      5  C   LIG    1       23.974 -17.846   3.839  0.00  0.00    +0.048 A 
ATOM      6  C   LIG    1       22.784 -17.217   4.257  0.00  0.00    +0.034 A 
ATOM      7  S   LIG    1       22.619 -15.470   4.514  0.00  0.00    -0.086 S 
ATOM      8  C   LIG    1       21.606 -17.956   4.505  0.00  0.00    +0.017 A 
ATOM      9  C   LIG    1       21.574 -19.333   4.334  0.00  0.00    +0.001 A 
ATOM     10  C   LIG    1       22.719 -19.978   3.903  0.00  0.00    +0.002 A 
ATOM     11  C   LIG    1       23.889 -19.247   3.652  0.00  0.00    +0.024 A 
ATOM     12  C   LIG    1       24.237 -14.867   4.113  0.00  0.00    +0.034 A 
ATOM     13  C   LIG    1       24.381 -13.466   4.215  0.00  0.00    +0.018 A 
ATOM     14  C   LIG    1       25.594 -12.847   3.952  0.00  0.00    +0.016 A 
ENDROOT
BRANCH   1  16
ATOM     15  C   LIG    1       28.709 -12.425   4.940  0.00  0.00    +0.090 C 
ATOM     16  S   LIG    1       28.255 -12.859   3.242  0.00  0.00    -0.129 S 
ENDBRANCH   1  16
BRANCH   4  17
ATOM     17  C   LIG    1       26.403 -17.887   3.290  0.00  0.00    +0.112 C 
BRANCH  17  18
ATOM     18  C   LIG    1       27.260 -18.155   4.544  0.00  0.00    +0.038 C 
BRANCH  18  19
ATOM     19  C   LIG    1       27.728 -19.630   4.665  0.00  0.00    +0.058 C 
ATOM     20  N   LIG    1       28.267 -20.011   5.990  0.00  0.00    -0.302 NA
ATOM     21  C   LIG    1       29.474 -19.287   6.371  0.00  0.00    +0.105 C 
ATOM     22  C   LIG    1       27.266 -19.987   7.061  0.00  0.00    +0.084 C 
ATOM     23  C   LIG    1       26.103 -20.932   6.753  0.00  0.00    +0.015 C 
ATOM     24  C   LIG    1       25.519 -20.692   5.367  0.00  0.00    +0.003 C 
ATOM     25  C   LIG    1       26.627 -20.654   4.319  0.00  0.00    +0.019 C 
ENDBRANCH  18  19
ENDBRANCH  17  18
ENDBRANCH   4  17
TORSDOF 4
ENDMDL
