MODEL 1
REMARK VINA RESULT:      -9.2      0.000      0.000
REMARK  Name = *****
REMARK                            x       y       z     vdW  Elec       q    Type
REMARK                         _______ _______ _______ _____ _____    ______ ____
ROOT
ATOM      1  C   LIG    1       25.255 -21.026   6.363  0.00  0.00    -0.032 C 
ATOM      2  C   LIG    1       24.253 -20.327   5.541  0.00  0.00    -0.018 A 
ATOM      3  C   LIG    1       24.900 -19.511   4.606  0.00  0.00    -0.036 A 
ATOM      4  C   LIG    1       24.205 -18.708   3.714  0.00  0.00    +0.004 A 
ATOM      5  C   LIG    1       22.814 -18.722   3.769  0.00  0.00    +0.000 A 
ATOM      6  C   LIG    1       22.150 -19.533   4.698  0.00  0.00    +0.001 A 
ATOM      7  C   LIG    1       26.375 -19.642   4.754  0.00  0.00    +0.067 C 
ATOM      8  C   LIG    1       22.866 -20.336   5.593  0.00  0.00    +0.008 A 
ATOM      9  C   LIG    1       26.476 -20.614   5.918  0.00  0.00    -0.060 C 
ENDROOT
BRANCH   1  11
ATOM     10  C   LIG    1       25.808 -21.752   8.718  0.00  0.00    +0.019 C 
ATOM     11  C   LIG    1       24.906 -21.985   7.490  0.00  0.00    +0.065 C 
BRANCH  11  12
ATOM     12  C   LIG    1       24.848 -23.467   7.093  0.00  0.00    +0.048 A 
ATOM     13  N   LIG    1       23.643 -23.997   6.744  0.00  0.00    -0.259 NA
ATOM     14  C   LIG    1       23.610 -25.278   6.308  0.00  0.00    +0.111 A 
ATOM     15  C   LIG    1       24.728 -26.082   6.200  0.00  0.00    +0.020 A 
ATOM     16  C   LIG    1       25.955 -25.536   6.550  0.00  0.00    +0.003 A 
ATOM     17  C   LIG    1       26.021 -24.216   6.995  0.00  0.00    +0.024 A 
ENDBRANCH  11  12
ENDBRANCH   1  11
BRANCH   9  18
ATOM     18  C   LIG    1       27.850 -20.896   6.461  0.00  0.00    +0.047 C 
BRANCH  18  19
ATOM     19  C   LIG    1       28.815 -19.686   6.417  0.00  0.00    +0.088 C 
BRANCH  19  20
ATOM     20  N   LIG    1       29.810 -19.662   7.513  0.00  0.00    -0.308 NA
ATOM     21  C   LIG    1       31.136 -19.238   7.056  0.00  0.00    +0.104 C 
ATOM     22  C   LIG    1       29.916 -20.986   8.138  0.00  0.00    +0.104 C 
ENDBRANCH  19  20
ENDBRANCH  18  19
ENDBRANCH   9  18
TORSDOF 5
ENDMDL
MODEL 2
REMARK VINA RESULT:      -9.1      0.616      1.032
REMARK  Name = *****
REMARK                            x       y       z     vdW  Elec       q    Type
REMARK                         _______ _______ _______ _____ _____    ______ ____
ROOT
ATOM      1  C   LIG    1       25.294 -21.173   6.351  0.00  0.00    -0.032 C 
ATOM      2  C   LIG    1       24.286 -20.456   5.550  0.00  0.00    -0.018 A 
ATOM      3  C   LIG    1       24.926 -19.573   4.673  0.00  0.00    -0.036 A 
ATOM      4  C   LIG    1       24.224 -18.741   3.814  0.00  0.00    +0.004 A 
ATOM      5  C   LIG    1       22.833 -18.795   3.843  0.00  0.00    +0.000 A 
ATOM      6  C   LIG    1       22.176 -19.674   4.714  0.00  0.00    +0.001 A 
ATOM      7  C   LIG    1       26.401 -19.673   4.840  0.00  0.00    +0.067 C 
ATOM      8  C   LIG    1       22.899 -20.505   5.577  0.00  0.00    +0.008 A 
ATOM      9  C   LIG    1       26.510 -20.704   5.950  0.00  0.00    -0.060 C 
ENDROOT
BRANCH   1  11
ATOM     10  C   LIG    1       25.832 -22.016   8.669  0.00  0.00    +0.019 C 
ATOM     11  C   LIG    1       24.952 -22.200   7.418  0.00  0.00    +0.065 C 
BRANCH  11  12
ATOM     12  C   LIG    1       24.936 -23.659   6.937  0.00  0.00    +0.048 A 
ATOM     13  N   LIG    1       26.094 -24.373   6.992  0.00  0.00    -0.259 NA
ATOM     14  C   LIG    1       26.055 -25.682   6.653  0.00  0.00    +0.111 A 
ATOM     15  C   LIG    1       24.908 -26.338   6.249  0.00  0.00    +0.020 A 
ATOM     16  C   LIG    1       23.728 -25.609   6.200  0.00  0.00    +0.003 A 
ATOM     17  C   LIG    1       23.736 -24.259   6.552  0.00  0.00    +0.024 A 
ENDBRANCH  11  12
ENDBRANCH   1  11
BRANCH   9  18
ATOM     18  C   LIG    1       27.882 -20.979   6.502  0.00  0.00    +0.047 C 
BRANCH  18  19
ATOM     19  C   LIG    1       28.848 -19.770   6.443  0.00  0.00    +0.088 C 
BRANCH  19  20
ATOM     20  N   LIG    1       29.838 -19.729   7.543  0.00  0.00    -0.308 NA
ATOM     21  C   LIG    1       31.159 -19.286   7.091  0.00  0.00    +0.104 C 
ATOM     22  C   LIG    1       29.960 -21.049   8.172  0.00  0.00    +0.104 C 
ENDBRANCH  19  20
ENDBRANCH  18  19
ENDBRANCH   9  18
TORSDOF 5
ENDMDL
MODEL 3
REMARK VINA RESULT:      -8.7      1.756      4.721
REMARK  Name = *****
REMARK                            x       y       z     vdW  Elec       q    Type
REMARK                         _______ _______ _______ _____ _____    ______ ____
ROOT
ATOM      1  C   LIG    1       26.153 -20.539   6.484  0.00  0.00    -0.032 C 
ATOM      2  C   LIG    1       27.517 -20.081   6.799  0.00  0.00    -0.018 A 
ATOM      3  C   LIG    1       28.079 -19.471   5.672  0.00  0.00    -0.036 A 
ATOM      4  C   LIG    1       29.372 -18.969   5.665  0.00  0.00    +0.004 A 
ATOM      5  C   LIG    1       30.126 -19.091   6.829  0.00  0.00    +0.000 A 
ATOM      6  C   LIG    1       29.580 -19.698   7.967  0.00  0.00    +0.001 A 
ATOM      7  C   LIG    1       27.101 -19.481   4.550  0.00  0.00    +0.067 C 
ATOM      8  C   LIG    1       28.274 -20.202   7.956  0.00  0.00    +0.008 A 
ATOM      9  C   LIG    1       25.925 -20.206   5.181  0.00  0.00    -0.060 C 
ENDROOT
BRANCH   1  11
ATOM     10  C   LIG    1       25.746 -21.064   8.920  0.00  0.00    +0.019 C 
ATOM     11  C   LIG    1       25.253 -21.260   7.474  0.00  0.00    +0.065 C 
BRANCH  11  12
ATOM     12  C   LIG    1       24.983 -22.738   7.154  0.00  0.00    +0.048 A 
ATOM     13  N   LIG    1       23.698 -23.127   6.927  0.00  0.00    -0.259 NA
ATOM     14  C   LIG    1       23.474 -24.409   6.558  0.00  0.00    +0.111 A 
ATOM     15  C   LIG    1       24.474 -25.350   6.401  0.00  0.00    +0.020 A 
ATOM     16  C   LIG    1       25.783 -24.948   6.626  0.00  0.00    +0.003 A 
ATOM     17  C   LIG    1       26.045 -23.630   7.000  0.00  0.00    +0.024 A 
ENDBRANCH  11  12
ENDBRANCH   1  11
BRANCH   9  18
ATOM     18  C   LIG    1       24.759 -20.534   4.288  0.00  0.00    +0.047 C 
BRANCH  18  19
ATOM     19  C   LIG    1       24.020 -19.297   3.724  0.00  0.00    +0.088 C 
BRANCH  19  20
ATOM     20  N   LIG    1       22.585 -19.229   4.086  0.00  0.00    -0.308 NA
ATOM     21  C   LIG    1       22.202 -17.917   4.613  0.00  0.00    +0.104 C 
ATOM     22  C   LIG    1       22.258 -20.262   5.075  0.00  0.00    +0.104 C 
ENDBRANCH  19  20
ENDBRANCH  18  19
ENDBRANCH   9  18
TORSDOF 5
ENDMDL
MODEL 4
REMARK VINA RESULT:      -8.3      1.624      5.912
REMARK  Name = *****
REMARK                            x       y       z     vdW  Elec       q    Type
REMARK                         _______ _______ _______ _____ _____    ______ ____
ROOT
ATOM      1  C   LIG    1       25.757 -22.440   6.804  0.00  0.00    -0.032 C 
ATOM      2  C   LIG    1       25.717 -23.874   6.470  0.00  0.00    -0.018 A 
ATOM      3  C   LIG    1       24.945 -24.066   5.317  0.00  0.00    -0.036 A 
ATOM      4  C   LIG    1       24.706 -25.323   4.784  0.00  0.00    +0.004 A 
ATOM      5  C   LIG    1       25.256 -26.424   5.434  0.00  0.00    +0.000 A 
ATOM      6  C   LIG    1       26.032 -26.251   6.588  0.00  0.00    +0.001 A 
ATOM      7  C   LIG    1       24.445 -22.755   4.819  0.00  0.00    +0.067 C 
ATOM      8  C   LIG    1       26.261 -24.975   7.115  0.00  0.00    +0.008 A 
ATOM      9  C   LIG    1       25.008 -21.802   5.860  0.00  0.00    -0.060 C 
ENDROOT
BRANCH   1  11
ATOM     10  C   LIG    1       25.550 -21.045   8.898  0.00  0.00    +0.019 C 
ATOM     11  C   LIG    1       26.495 -21.872   8.005  0.00  0.00    +0.065 C 
BRANCH  11  12
ATOM     12  C   LIG    1       27.788 -21.111   7.678  0.00  0.00    +0.048 A 
ATOM     13  N   LIG    1       28.901 -21.378   8.415  0.00  0.00    -0.259 NA
ATOM     14  C   LIG    1       30.060 -20.773   8.067  0.00  0.00    +0.111 A 
ATOM     15  C   LIG    1       30.180 -19.895   7.007  0.00  0.00    +0.020 A 
ATOM     16  C   LIG    1       29.045 -19.630   6.253  0.00  0.00    +0.003 A 
ATOM     17  C   LIG    1       27.838 -20.246   6.584  0.00  0.00    +0.024 A 
ENDBRANCH  11  12
ENDBRANCH   1  11
BRANCH   9  18
ATOM     18  C   LIG    1       24.594 -20.359   5.766  0.00  0.00    +0.047 C 
BRANCH  18  19
ATOM     19  C   LIG    1       23.102 -20.145   5.411  0.00  0.00    +0.088 C 
BRANCH  19  20
ATOM     20  N   LIG    1       22.877 -19.318   4.204  0.00  0.00    -0.308 NA
ATOM     21  C   LIG    1       24.128 -18.948   3.537  0.00  0.00    +0.104 C 
ATOM     22  C   LIG    1       22.134 -18.100   4.548  0.00  0.00    +0.104 C 
ENDBRANCH  19  20
ENDBRANCH  18  19
ENDBRANCH   9  18
TORSDOF 5
ENDMDL
MODEL 5
REMARK VINA RESULT:      -8.3      1.349      4.983
REMARK  Name = *****
REMARK                            x       y       z     vdW  Elec       q    Type
REMARK                         _______ _______ _______ _____ _____    ______ ____
ROOT
ATOM      1  C   LIG    1       24.525 -22.580   6.902  0.00  0.00    -0.032 C 
ATOM      2  C   LIG    1       24.618 -24.024   6.631  0.00  0.00    -0.018 A 
ATOM      3  C   LIG    1       25.903 -24.479   6.949  0.00  0.00    -0.036 A 
ATOM      4  C   LIG    1       26.290 -25.798   6.766  0.00  0.00    +0.004 A 
ATOM      5  C   LIG    1       25.356 -26.687   6.240  0.00  0.00    +0.000 A 
ATOM      6  C   LIG    1       24.065 -26.249   5.917  0.00  0.00    +0.001 A 
ATOM      7  C   LIG    1       26.726 -23.352   7.464  0.00  0.00    +0.067 C 
ATOM      8  C   LIG    1       23.691 -24.913   6.105  0.00  0.00    +0.008 A 
ATOM      9  C   LIG    1       25.748 -22.194   7.365  0.00  0.00    -0.060 C 
ENDROOT
BRANCH   1  11
ATOM     10  C   LIG    1       22.044 -22.652   6.437  0.00  0.00    +0.019 C 
ATOM     11  C   LIG    1       23.274 -21.751   6.657  0.00  0.00    +0.065 C 
BRANCH  11  12
ATOM     12  C   LIG    1       23.405 -20.680   5.563  0.00  0.00    +0.048 A 
ATOM     13  N   LIG    1       24.365 -20.839   4.611  0.00  0.00    -0.259 NA
ATOM     14  C   LIG    1       24.418 -19.942   3.600  0.00  0.00    +0.111 A 
ATOM     15  C   LIG    1       23.556 -18.869   3.478  0.00  0.00    +0.020 A 
ATOM     16  C   LIG    1       22.575 -18.713   4.447  0.00  0.00    +0.003 A 
ATOM     17  C   LIG    1       22.490 -19.628   5.497  0.00  0.00    +0.024 A 
ENDBRANCH  11  12
ENDBRANCH   1  11
BRANCH   9  18
ATOM     18  C   LIG    1       26.274 -20.820   7.681  0.00  0.00    +0.047 C 
BRANCH  18  19
ATOM     19  C   LIG    1       27.328 -20.293   6.677  0.00  0.00    +0.088 C 
BRANCH  19  20
ATOM     20  N   LIG    1       28.580 -19.813   7.306  0.00  0.00    -0.308 NA
ATOM     21  C   LIG    1       29.383 -18.991   6.398  0.00  0.00    +0.104 C 
ATOM     22  C   LIG    1       29.386 -20.947   7.773  0.00  0.00    +0.104 C 
ENDBRANCH  19  20
ENDBRANCH  18  19
ENDBRANCH   9  18
TORSDOF 5
ENDMDL
MODEL 6
REMARK VINA RESULT:      -7.4      2.313      6.075
REMARK  Name = *****
REMARK                            x       y       z     vdW  Elec       q    Type
REMARK                         _______ _______ _______ _____ _____    ______ ____
ROOT
ATOM      1  C   LIG    1       24.436 -22.443   6.738  0.00  0.00    -0.032 C 
ATOM      2  C   LIG    1       25.677 -21.746   7.114  0.00  0.00    -0.018 A 
ATOM      3  C   LIG    1       26.711 -22.678   7.264  0.00  0.00    -0.036 A 
ATOM      4  C   LIG    1       27.992 -22.312   7.647  0.00  0.00    +0.004 A 
ATOM      5  C   LIG    1       28.241 -20.964   7.892  0.00  0.00    +0.000 A 
ATOM      6  C   LIG    1       27.218 -20.017   7.745  0.00  0.00    +0.001 A 
ATOM      7  C   LIG    1       26.203 -24.048   6.978  0.00  0.00    +0.067 C 
ATOM      8  C   LIG    1       25.929 -20.404   7.361  0.00  0.00    +0.008 A 
ATOM      9  C   LIG    1       24.740 -23.771   6.678  0.00  0.00    -0.060 C 
ENDROOT
BRANCH   1  11
ATOM     10  C   LIG    1       21.968 -22.757   6.304  0.00  0.00    +0.019 C 
ATOM     11  C   LIG    1       23.108 -21.740   6.507  0.00  0.00    +0.065 C 
BRANCH  11  12
ATOM     12  C   LIG    1       23.120 -20.665   5.410  0.00  0.00    +0.048 A 
ATOM     13  N   LIG    1       22.333 -19.565   5.573  0.00  0.00    -0.259 NA
ATOM     14  C   LIG    1       22.414 -18.579   4.650  0.00  0.00    +0.111 A 
ATOM     15  C   LIG    1       23.246 -18.625   3.547  0.00  0.00    +0.020 A 
ATOM     16  C   LIG    1       24.051 -19.744   3.389  0.00  0.00    +0.003 A 
ATOM     17  C   LIG    1       23.995 -20.773   4.329  0.00  0.00    +0.024 A 
ENDBRANCH  11  12
ENDBRANCH   1  11
BRANCH   9  18
ATOM     18  C   LIG    1       23.844 -24.961   6.465  0.00  0.00    +0.047 C 
BRANCH  18  19
ATOM     19  C   LIG    1       24.289 -25.897   5.316  0.00  0.00    +0.088 C 
BRANCH  19  20
ATOM     20  N   LIG    1       25.070 -27.075   5.758  0.00  0.00    -0.308 NA
ATOM     21  C   LIG    1       26.328 -27.222   5.022  0.00  0.00    +0.104 C 
ATOM     22  C   LIG    1       24.276 -28.301   5.610  0.00  0.00    +0.104 C 
ENDBRANCH  19  20
ENDBRANCH  18  19
ENDBRANCH   9  18
TORSDOF 5
ENDMDL
MODEL 7
REMARK VINA RESULT:      -7.3      1.665      5.341
REMARK  Name = *****
REMARK                            x       y       z     vdW  Elec       q    Type
REMARK                         _______ _______ _______ _____ _____    ______ ____
ROOT
ATOM      1  C   LIG    1       25.220 -22.436   7.284  0.00  0.00    -0.032 C 
ATOM      2  C   LIG    1       24.173 -21.628   6.635  0.00  0.00    -0.018 A 
ATOM      3  C   LIG    1       23.419 -22.438   5.779  0.00  0.00    -0.036 A 
ATOM      4  C   LIG    1       22.379 -21.940   5.008  0.00  0.00    +0.004 A 
ATOM      5  C   LIG    1       22.093 -20.580   5.098  0.00  0.00    +0.000 A 
ATOM      6  C   LIG    1       22.837 -19.755   5.951  0.00  0.00    +0.001 A 
ATOM      7  C   LIG    1       23.924 -23.838   5.830  0.00  0.00    +0.067 C 
ATOM      8  C   LIG    1       23.885 -20.273   6.720  0.00  0.00    +0.008 A 
ATOM      9  C   LIG    1       25.083 -23.704   6.803  0.00  0.00    -0.060 C 
ENDROOT
BRANCH   1  11
ATOM     10  C   LIG    1       25.544 -21.030   9.357  0.00  0.00    +0.019 C 
ATOM     11  C   LIG    1       26.234 -21.875   8.268  0.00  0.00    +0.065 C 
BRANCH  11  12
ATOM     12  C   LIG    1       27.420 -21.135   7.633  0.00  0.00    +0.048 A 
ATOM     13  N   LIG    1       28.643 -21.248   8.220  0.00  0.00    -0.259 NA
ATOM     14  C   LIG    1       29.703 -20.670   7.608  0.00  0.00    +0.111 A 
ATOM     15  C   LIG    1       29.615 -19.966   6.421  0.00  0.00    +0.020 A 
ATOM     16  C   LIG    1       28.368 -19.859   5.823  0.00  0.00    +0.003 A 
ATOM     17  C   LIG    1       27.259 -20.452   6.427  0.00  0.00    +0.024 A 
ENDBRANCH  11  12
ENDBRANCH   1  11
BRANCH   9  18
ATOM     18  C   LIG    1       25.947 -24.918   7.014  0.00  0.00    +0.047 C 
BRANCH  18  19
ATOM     19  C   LIG    1       26.012 -25.874   5.798  0.00  0.00    +0.088 C 
BRANCH  19  20
ATOM     20  N   LIG    1       25.760 -27.295   6.127  0.00  0.00    -0.308 NA
ATOM     21  C   LIG    1       24.397 -27.715   5.791  0.00  0.00    +0.104 C 
ATOM     22  C   LIG    1       26.003 -27.541   7.553  0.00  0.00    +0.104 C 
ENDBRANCH  19  20
ENDBRANCH  18  19
ENDBRANCH   9  18
TORSDOF 5
ENDMDL
MODEL 8
REMARK VINA RESULT:      -7.2      1.719      4.832
REMARK  Name = *****
REMARK                            x       y       z     vdW  Elec       q    Type
REMARK                         _______ _______ _______ _____ _____    ______ ____
ROOT
ATOM      1  C   LIG    1       25.986 -21.645   6.059  0.00  0.00    -0.032 C 
ATOM      2  C   LIG    1       25.532 -23.044   5.982  0.00  0.00    -0.018 A 
ATOM      3  C   LIG    1       25.776 -23.685   7.202  0.00  0.00    -0.036 A 
ATOM      4  C   LIG    1       25.478 -25.023   7.411  0.00  0.00    +0.004 A 
ATOM      5  C   LIG    1       24.920 -25.741   6.356  0.00  0.00    +0.000 A 
ATOM      6  C   LIG    1       24.667 -25.115   5.129  0.00  0.00    +0.001 A 
ATOM      7  C   LIG    1       26.397 -22.731   8.160  0.00  0.00    +0.067 C 
ATOM      8  C   LIG    1       24.977 -23.764   4.933  0.00  0.00    +0.008 A 
ATOM      9  C   LIG    1       26.500 -21.475   7.311  0.00  0.00    -0.060 C 
ENDROOT
BRANCH   1  11
ATOM     10  C   LIG    1       27.074 -19.675   4.915  0.00  0.00    +0.019 C 
ATOM     11  C   LIG    1       25.888 -20.658   4.908  0.00  0.00    +0.065 C 
BRANCH  11  12
ATOM     12  C   LIG    1       24.541 -19.932   4.783  0.00  0.00    +0.048 A 
ATOM     13  N   LIG    1       24.388 -19.016   3.787  0.00  0.00    -0.259 NA
ATOM     14  C   LIG    1       23.173 -18.445   3.624  0.00  0.00    +0.111 A 
ATOM     15  C   LIG    1       22.075 -18.734   4.413  0.00  0.00    +0.020 A 
ATOM     16  C   LIG    1       22.233 -19.672   5.423  0.00  0.00    +0.003 A 
ATOM     17  C   LIG    1       23.473 -20.284   5.609  0.00  0.00    +0.024 A 
ENDBRANCH  11  12
ENDBRANCH   1  11
BRANCH   9  18
ATOM     18  C   LIG    1       27.219 -20.297   7.910  0.00  0.00    +0.047 C 
BRANCH  18  19
ATOM     19  C   LIG    1       28.714 -20.196   7.520  0.00  0.00    +0.088 C 
BRANCH  19  20
ATOM     20  N   LIG    1       29.621 -19.919   8.657  0.00  0.00    -0.308 NA
ATOM     21  C   LIG    1       30.040 -18.517   8.713  0.00  0.00    +0.104 C 
ATOM     22  C   LIG    1       30.811 -20.776   8.582  0.00  0.00    +0.104 C 
ENDBRANCH  19  20
ENDBRANCH  18  19
ENDBRANCH   9  18
TORSDOF 5
ENDMDL
MODEL 9
REMARK VINA RESULT:      -6.9      1.772      5.710
REMARK  Name = *****
REMARK                            x       y       z     vdW  Elec       q    Type
REMARK                         _______ _______ _______ _____ _____    ______ ____
ROOT
ATOM      1  C   LIG    1       26.437 -20.092   5.785  0.00  0.00    -0.032 C 
ATOM      2  C   LIG    1       27.832 -19.735   6.095  0.00  0.00    -0.018 A 
ATOM      3  C   LIG    1       28.099 -20.009   7.441  0.00  0.00    -0.036 A 
ATOM      4  C   LIG    1       29.328 -19.744   8.025  0.00  0.00    +0.004 A 
ATOM      5  C   LIG    1       30.321 -19.179   7.228  0.00  0.00    +0.000 A 
ATOM      6  C   LIG    1       30.072 -18.899   5.878  0.00  0.00    +0.001 A 
ATOM      7  C   LIG    1       26.887 -20.580   8.091  0.00  0.00    +0.067 C 
ATOM      8  C   LIG    1       28.824 -19.170   5.306  0.00  0.00    +0.008 A 
ATOM      9  C   LIG    1       25.893 -20.561   6.943  0.00  0.00    -0.060 C 
ENDROOT
BRANCH   1  11
ATOM     10  C   LIG    1       26.340 -18.651   3.714  0.00  0.00    +0.019 C 
ATOM     11  C   LIG    1       25.802 -19.912   4.416  0.00  0.00    +0.065 C 
BRANCH  11  12
ATOM     12  C   LIG    1       24.267 -19.970   4.396  0.00  0.00    +0.048 A 
ATOM     13  N   LIG    1       23.664 -21.190   4.424  0.00  0.00    -0.259 NA
ATOM     14  C   LIG    1       22.314 -21.236   4.497  0.00  0.00    +0.111 A 
ATOM     15  C   LIG    1       21.509 -20.113   4.541  0.00  0.00    +0.020 A 
ATOM     16  C   LIG    1       22.127 -18.871   4.520  0.00  0.00    +0.003 A 
ATOM     17  C   LIG    1       23.518 -18.794   4.453  0.00  0.00    +0.024 A 
ENDBRANCH  11  12
ENDBRANCH   1  11
BRANCH   9  18
ATOM     18  C   LIG    1       24.474 -20.952   7.257  0.00  0.00    +0.047 C 
BRANCH  18  19
ATOM     19  C   LIG    1       24.305 -22.416   7.732  0.00  0.00    +0.088 C 
BRANCH  19  20
ATOM     20  N   LIG    1       24.632 -23.430   6.705  0.00  0.00    -0.308 NA
ATOM     21  C   LIG    1       23.563 -24.416   6.530  0.00  0.00    +0.104 C 
ATOM     22  C   LIG    1       25.878 -24.125   7.050  0.00  0.00    +0.104 C 
ENDBRANCH  19  20
ENDBRANCH  18  19
ENDBRANCH   9  18
TORSDOF 5
ENDMDL
