MODEL 1
REMARK VINA RESULT:      -4.3      0.000      0.000
REMARK  Name = *****
REMARK                            x       y       z     vdW  Elec       q    Type
REMARK                         _______ _______ _______ _____ _____    ______ ____
ROOT
ATOM      1  C   LIG    1       25.023 -15.557   3.799  0.00  0.00    +0.057 A 
ATOM      2  C   LIG    1       23.821 -15.053   4.328  0.00  0.00    +0.048 A 
ATOM      3  C   LIG    1       22.774 -15.937   4.612  0.00  0.00    +0.047 A 
ATOM      4  C   LIG    1       22.819 -17.284   4.233  0.00  0.00    +0.029 A 
ATOM      5  C   LIG    1       24.016 -17.763   3.692  0.00  0.00    +0.025 A 
ATOM      6  C   LIG    1       25.113 -16.915   3.486  0.00  0.00    +0.027 A 
ENDROOT
BRANCH   1   8
ATOM      7  C   LIG    1       26.199 -13.656   2.692  0.00  0.00    +0.405 C 
ATOM      8  N   LIG    1       26.074 -14.648   3.626  0.00  0.00    -0.249 N 
ATOM      9  H   LIG    1       26.885 -14.755   4.209  0.00  0.00    +0.158 HD
ATOM     10  O   LIG    1       25.410 -13.356   1.812  0.00  0.00    -0.226 OA
BRANCH   7  11
ATOM     11  O   LIG    1       27.382 -13.023   2.892  0.00  0.00    -0.450 OA
BRANCH  11  13
ATOM     12  C   LIG    1       29.160 -12.343   4.367  0.00  0.00    +0.048 C 
ATOM     13  C   LIG    1       28.065 -13.362   4.107  0.00  0.00    +0.230 C 
ENDBRANCH  11  13
ENDBRANCH   7  11
ENDBRANCH   1   8
BRANCH   2  14
ATOM     14  N   LIG    1       23.694 -13.695   4.712  0.00  0.00    -0.356 N 
ATOM     15  H   LIG    1       22.876 -13.261   4.297  0.00  0.00    +0.142 HD
ATOM     16  H   LIG    1       23.676 -13.580   5.721  0.00  0.00    +0.142 HD
ENDBRANCH   2  14
BRANCH   4  17
ATOM     17  N   LIG    1       21.772 -18.187   4.455  0.00  0.00    -0.340 N 
ATOM     18  H   LIG    1       21.331 -18.028   5.360  0.00  0.00    +0.146 HD
BRANCH  17  19
ATOM     19  C   LIG    1       21.982 -19.596   4.158  0.00  0.00    +0.137 C 
BRANCH  19  20
ATOM     20  C   LIG    1       23.156 -20.130   4.938  0.00  0.00    -0.030 A 
ATOM     21  C   LIG    1       23.134 -20.152   6.341  0.00  0.00    +0.008 A 
ATOM     22  C   LIG    1       24.232 -20.637   7.054  0.00  0.00    +0.039 A 
ATOM     23  C   LIG    1       25.345 -21.105   6.365  0.00  0.00    +0.123 A 
ATOM     24  F   LIG    1       26.396 -21.572   7.052  0.00  0.00    -0.205 F 
ATOM     25  C   LIG    1       25.383 -21.100   4.977  0.00  0.00    +0.039 A 
ATOM     26  C   LIG    1       24.288 -20.616   4.262  0.00  0.00    +0.008 A 
ENDBRANCH  19  20
ENDBRANCH  17  19
ENDBRANCH   4  17
TORSDOF 7
ENDMDL
MODEL 2
REMARK VINA RESULT:      -4.3      4.022      7.508
REMARK  Name = *****
REMARK                            x       y       z     vdW  Elec       q    Type
REMARK                         _______ _______ _______ _____ _____    ______ ____
ROOT
ATOM      1  C   LIG    1       25.667 -18.680   4.058  0.00  0.00    +0.057 A 
ATOM      2  C   LIG    1       27.004 -18.707   4.492  0.00  0.00    +0.048 A 
ATOM      3  C   LIG    1       27.776 -17.542   4.405  0.00  0.00    +0.047 A 
ATOM      4  C   LIG    1       27.313 -16.397   3.746  0.00  0.00    +0.029 A 
ATOM      5  C   LIG    1       25.987 -16.395   3.306  0.00  0.00    +0.025 A 
ATOM      6  C   LIG    1       25.164 -17.519   3.469  0.00  0.00    +0.027 A 
ENDROOT
BRANCH   1   8
ATOM      7  C   LIG    1       23.547 -19.974   4.302  0.00  0.00    +0.405 C 
ATOM      8  N   LIG    1       24.908 -19.841   4.259  0.00  0.00    -0.249 N 
ATOM      9  H   LIG    1       25.402 -20.691   4.464  0.00  0.00    +0.158 HD
ATOM     10  O   LIG    1       22.708 -19.100   4.170  0.00  0.00    -0.226 OA
BRANCH   7  11
ATOM     11  O   LIG    1       23.250 -21.279   4.524  0.00  0.00    -0.450 OA
BRANCH  11  13
ATOM     12  C   LIG    1       23.464 -20.859   6.884  0.00  0.00    +0.048 C 
ATOM     13  C   LIG    1       22.672 -21.571   5.803  0.00  0.00    +0.230 C 
ENDBRANCH  11  13
ENDBRANCH   7  11
ENDBRANCH   1   8
BRANCH   2  14
ATOM     14  N   LIG    1       27.548 -19.841   5.145  0.00  0.00    -0.356 N 
ATOM     15  H   LIG    1       28.442 -20.112   4.749  0.00  0.00    +0.142 HD
ATOM     16  H   LIG    1       27.638 -19.703   6.147  0.00  0.00    +0.142 HD
ENDBRANCH   2  14
BRANCH   4  17
ATOM     17  N   LIG    1       28.074 -15.231   3.595  0.00  0.00    -0.340 N 
ATOM     18  H   LIG    1       29.067 -15.444   3.508  0.00  0.00    +0.146 HD
BRANCH  17  19
ATOM     19  C   LIG    1       27.805 -14.096   4.465  0.00  0.00    +0.137 C 
BRANCH  19  20
ATOM     20  C   LIG    1       26.552 -13.381   4.026  0.00  0.00    -0.030 A 
ATOM     21  C   LIG    1       25.494 -13.174   4.925  0.00  0.00    +0.008 A 
ATOM     22  C   LIG    1       24.333 -12.522   4.506  0.00  0.00    +0.039 A 
ATOM     23  C   LIG    1       24.234 -12.073   3.194  0.00  0.00    +0.123 A 
ATOM     24  F   LIG    1       23.119 -11.447   2.795  0.00  0.00    -0.205 F 
ATOM     25  C   LIG    1       25.273 -12.261   2.291  0.00  0.00    +0.039 A 
ATOM     26  C   LIG    1       26.433 -12.912   2.708  0.00  0.00    +0.008 A 
ENDBRANCH  19  20
ENDBRANCH  17  19
ENDBRANCH   4  17
TORSDOF 7
ENDMDL
MODEL 3
REMARK VINA RESULT:      -4.2      2.665      3.938
REMARK  Name = *****
REMARK                            x       y       z     vdW  Elec       q    Type
REMARK                         _______ _______ _______ _____ _____    ______ ____
ROOT
ATOM      1  C   LIG    1       27.601 -17.016   4.065  0.00  0.00    +0.057 A 
ATOM      2  C   LIG    1       26.520 -17.887   3.841  0.00  0.00    +0.048 A 
ATOM      3  C   LIG    1       26.496 -19.129   4.486  0.00  0.00    +0.047 A 
ATOM      4  C   LIG    1       27.592 -19.604   5.216  0.00  0.00    +0.029 A 
ATOM      5  C   LIG    1       28.665 -18.730   5.413  0.00  0.00    +0.025 A 
ATOM      6  C   LIG    1       28.669 -17.444   4.856  0.00  0.00    +0.027 A 
ENDROOT
BRANCH   1   8
ATOM      7  C   LIG    1       27.330 -14.536   4.081  0.00  0.00    +0.405 C 
ATOM      8  N   LIG    1       27.530 -15.747   3.477  0.00  0.00    -0.249 N 
ATOM      9  H   LIG    1       27.563 -15.695   2.474  0.00  0.00    +0.158 HD
ATOM     10  O   LIG    1       27.176 -14.312   5.269  0.00  0.00    -0.226 OA
BRANCH   7  11
ATOM     11  O   LIG    1       27.329 -13.573   3.125  0.00  0.00    -0.450 OA
BRANCH  11  13
ATOM     12  C   LIG    1       25.017 -12.947   2.888  0.00  0.00    +0.048 C 
ATOM     13  C   LIG    1       26.215 -13.600   2.224  0.00  0.00    +0.230 C 
ENDBRANCH  11  13
ENDBRANCH   7  11
ENDBRANCH   1   8
BRANCH   2  14
ATOM     14  N   LIG    1       25.387 -17.483   3.092  0.00  0.00    -0.356 N 
ATOM     15  H   LIG    1       25.492 -17.696   2.105  0.00  0.00    +0.142 HD
ATOM     16  H   LIG    1       24.526 -17.888   3.446  0.00  0.00    +0.142 HD
ENDBRANCH   2  14
BRANCH   4  17
ATOM     17  N   LIG    1       27.625 -20.861   5.834  0.00  0.00    -0.340 N 
ATOM     18  H   LIG    1       27.738 -21.607   5.149  0.00  0.00    +0.146 HD
BRANCH  17  19
ATOM     19  C   LIG    1       26.641 -21.167   6.860  0.00  0.00    +0.137 C 
BRANCH  19  20
ATOM     20  C   LIG    1       25.250 -21.149   6.280  0.00  0.00    -0.030 A 
ATOM     21  C   LIG    1       25.020 -21.563   4.958  0.00  0.00    +0.008 A 
ATOM     22  C   LIG    1       23.729 -21.530   4.426  0.00  0.00    +0.039 A 
ATOM     23  C   LIG    1       22.672 -21.092   5.216  0.00  0.00    +0.123 A 
ATOM     24  F   LIG    1       21.435 -21.064   4.703  0.00  0.00    -0.205 F 
ATOM     25  C   LIG    1       22.878 -20.686   6.528  0.00  0.00    +0.039 A 
ATOM     26  C   LIG    1       24.165 -20.718   7.062  0.00  0.00    +0.008 A 
ENDBRANCH  19  20
ENDBRANCH  17  19
ENDBRANCH   4  17
TORSDOF 7
ENDMDL
MODEL 4
REMARK VINA RESULT:      -3.4      3.568      6.905
REMARK  Name = *****
REMARK                            x       y       z     vdW  Elec       q    Type
REMARK                         _______ _______ _______ _____ _____    ______ ____
ROOT
ATOM      1  C   LIG    1       23.805 -18.110   4.263  0.00  0.00    +0.057 A 
ATOM      2  C   LIG    1       24.823 -17.349   3.660  0.00  0.00    +0.048 A 
ATOM      3  C   LIG    1       24.654 -15.966   3.524  0.00  0.00    +0.047 A 
ATOM      4  C   LIG    1       23.438 -15.337   3.816  0.00  0.00    +0.029 A 
ATOM      5  C   LIG    1       22.432 -16.113   4.398  0.00  0.00    +0.025 A 
ATOM      6  C   LIG    1       22.613 -17.484   4.633  0.00  0.00    +0.027 A 
ENDROOT
BRANCH   1   8
ATOM      7  C   LIG    1       23.399 -20.355   5.272  0.00  0.00    +0.405 C 
ATOM      8  N   LIG    1       24.063 -19.472   4.466  0.00  0.00    -0.249 N 
ATOM      9  H   LIG    1       24.876 -19.864   4.024  0.00  0.00    +0.158 HD
ATOM     10  O   LIG    1       22.433 -20.135   5.982  0.00  0.00    -0.226 OA
BRANCH   7  11
ATOM     11  O   LIG    1       23.995 -21.569   5.163  0.00  0.00    -0.450 OA
BRANCH  11  13
ATOM     12  C   LIG    1       25.778 -21.097   6.709  0.00  0.00    +0.048 C 
ATOM     13  C   LIG    1       25.420 -21.572   5.312  0.00  0.00    +0.230 C 
ENDBRANCH  11  13
ENDBRANCH   7  11
ENDBRANCH   1   8
BRANCH   2  14
ATOM     14  N   LIG    1       26.071 -17.923   3.315  0.00  0.00    -0.356 N 
ATOM     15  H   LIG    1       26.509 -18.379   4.108  0.00  0.00    +0.142 HD
ATOM     16  H   LIG    1       25.995 -18.574   2.538  0.00  0.00    +0.142 HD
ENDBRANCH   2  14
BRANCH   4  17
ATOM     17  N   LIG    1       23.215 -13.965   3.645  0.00  0.00    -0.340 N 
ATOM     18  H   LIG    1       23.246 -13.704   2.661  0.00  0.00    +0.146 HD
BRANCH  17  19
ATOM     19  C   LIG    1       23.912 -13.026   4.511  0.00  0.00    +0.137 C 
BRANCH  19  20
ATOM     20  C   LIG    1       25.400 -13.097   4.277  0.00  0.00    -0.030 A 
ATOM     21  C   LIG    1       25.929 -12.954   2.985  0.00  0.00    +0.008 A 
ATOM     22  C   LIG    1       27.307 -13.035   2.778  0.00  0.00    +0.039 A 
ATOM     23  C   LIG    1       28.153 -13.250   3.860  0.00  0.00    +0.123 A 
ATOM     24  F   LIG    1       29.475 -13.325   3.658  0.00  0.00    -0.205 F 
ATOM     25  C   LIG    1       27.649 -13.386   5.147  0.00  0.00    +0.039 A 
ATOM     26  C   LIG    1       26.273 -13.306   5.357  0.00  0.00    +0.008 A 
ENDBRANCH  19  20
ENDBRANCH  17  19
ENDBRANCH   4  17
TORSDOF 7
ENDMDL
MODEL 5
REMARK VINA RESULT:      -3.1      1.854      2.533
REMARK  Name = *****
REMARK                            x       y       z     vdW  Elec       q    Type
REMARK                         _______ _______ _______ _____ _____    ______ ____
ROOT
ATOM      1  C   LIG    1       24.942 -15.560   3.411  0.00  0.00    +0.057 A 
ATOM      2  C   LIG    1       23.721 -15.977   3.971  0.00  0.00    +0.048 A 
ATOM      3  C   LIG    1       23.493 -17.343   4.175  0.00  0.00    +0.047 A 
ATOM      4  C   LIG    1       24.369 -18.320   3.688  0.00  0.00    +0.029 A 
ATOM      5  C   LIG    1       25.569 -17.886   3.118  0.00  0.00    +0.025 A 
ATOM      6  C   LIG    1       25.863 -16.521   2.990  0.00  0.00    +0.027 A 
ENDROOT
BRANCH   1   8
ATOM      7  C   LIG    1       26.130 -13.515   2.617  0.00  0.00    +0.405 C 
ATOM      8  N   LIG    1       25.163 -14.179   3.319  0.00  0.00    -0.249 N 
ATOM      9  H   LIG    1       24.589 -13.577   3.883  0.00  0.00    +0.158 HD
ATOM     10  O   LIG    1       27.006 -13.994   1.917  0.00  0.00    -0.226 OA
BRANCH   7  11
ATOM     11  O   LIG    1       25.970 -12.182   2.819  0.00  0.00    -0.450 OA
BRANCH  11  13
ATOM     12  C   LIG    1       23.847 -11.482   3.710  0.00  0.00    +0.048 C 
ATOM     13  C   LIG    1       24.688 -11.654   2.458  0.00  0.00    +0.230 C 
ENDBRANCH  11  13
ENDBRANCH   7  11
ENDBRANCH   1   8
BRANCH   2  14
ATOM     14  N   LIG    1       22.776 -15.044   4.463  0.00  0.00    -0.356 N 
ATOM     15  H   LIG    1       21.984 -15.503   4.900  0.00  0.00    +0.142 HD
ATOM     16  H   LIG    1       23.191 -14.377   5.107  0.00  0.00    +0.142 HD
ENDBRANCH   2  14
BRANCH   4  17
ATOM     17  N   LIG    1       24.150 -19.696   3.829  0.00  0.00    -0.340 N 
ATOM     18  H   LIG    1       23.359 -20.005   3.265  0.00  0.00    +0.146 HD
BRANCH  17  19
ATOM     19  C   LIG    1       24.168 -20.279   5.162  0.00  0.00    +0.137 C 
BRANCH  19  20
ATOM     20  C   LIG    1       25.587 -20.463   5.638  0.00  0.00    -0.030 A 
ATOM     21  C   LIG    1       25.895 -21.418   6.619  0.00  0.00    +0.008 A 
ATOM     22  C   LIG    1       27.210 -21.572   7.061  0.00  0.00    +0.039 A 
ATOM     23  C   LIG    1       28.214 -20.777   6.519  0.00  0.00    +0.123 A 
ATOM     24  F   LIG    1       29.475 -20.928   6.945  0.00  0.00    -0.205 F 
ATOM     25  C   LIG    1       27.931 -19.832   5.542  0.00  0.00    +0.039 A 
ATOM     26  C   LIG    1       26.618 -19.676   5.098  0.00  0.00    +0.008 A 
ENDBRANCH  19  20
ENDBRANCH  17  19
ENDBRANCH   4  17
TORSDOF 7
ENDMDL
MODEL 6
REMARK VINA RESULT:      -2.9      2.494      3.713
REMARK  Name = *****
REMARK                            x       y       z     vdW  Elec       q    Type
REMARK                         _______ _______ _______ _____ _____    ______ ____
ROOT
ATOM      1  C   LIG    1       26.462 -15.295   3.202  0.00  0.00    +0.057 A 
ATOM      2  C   LIG    1       27.578 -15.083   4.031  0.00  0.00    +0.048 A 
ATOM      3  C   LIG    1       28.226 -16.185   4.602  0.00  0.00    +0.047 A 
ATOM      4  C   LIG    1       27.702 -17.480   4.511  0.00  0.00    +0.029 A 
ATOM      5  C   LIG    1       26.582 -17.668   3.696  0.00  0.00    +0.025 A 
ATOM      6  C   LIG    1       25.972 -16.592   3.037  0.00  0.00    +0.027 A 
ENDROOT
BRANCH   1   8
ATOM      7  C   LIG    1       24.665 -13.628   2.737  0.00  0.00    +0.405 C 
ATOM      8  N   LIG    1       25.911 -14.170   2.575  0.00  0.00    -0.249 N 
ATOM      9  H   LIG    1       26.456 -13.719   1.862  0.00  0.00    +0.158 HD
ATOM     10  O   LIG    1       23.772 -14.016   3.471  0.00  0.00    -0.226 OA
BRANCH   7  11
ATOM     11  O   LIG    1       24.558 -12.545   1.927  0.00  0.00    -0.450 OA
BRANCH  11  13
ATOM     12  C   LIG    1       23.904 -11.459   3.973  0.00  0.00    +0.048 C 
ATOM     13  C   LIG    1       23.803 -11.449   2.459  0.00  0.00    +0.230 C 
ENDBRANCH  11  13
ENDBRANCH   7  11
ENDBRANCH   1   8
BRANCH   2  14
ATOM     14  N   LIG    1       28.148 -13.796   4.190  0.00  0.00    -0.356 N 
ATOM     15  H   LIG    1       28.195 -13.521   5.166  0.00  0.00    +0.142 HD
ATOM     16  H   LIG    1       29.067 -13.725   3.764  0.00  0.00    +0.142 HD
ENDBRANCH   2  14
BRANCH   4  17
ATOM     17  N   LIG    1       28.294 -18.598   5.110  0.00  0.00    -0.340 N 
ATOM     18  H   LIG    1       29.309 -18.506   5.146  0.00  0.00    +0.146 HD
BRANCH  17  19
ATOM     19  C   LIG    1       27.851 -19.926   4.715  0.00  0.00    +0.137 C 
BRANCH  19  20
ATOM     20  C   LIG    1       26.462 -20.195   5.233  0.00  0.00    -0.030 A 
ATOM     21  C   LIG    1       25.346 -20.067   4.391  0.00  0.00    +0.008 A 
ATOM     22  C   LIG    1       24.062 -20.306   4.884  0.00  0.00    +0.039 A 
ATOM     23  C   LIG    1       23.896 -20.678   6.214  0.00  0.00    +0.123 A 
ATOM     24  F   LIG    1       22.663 -20.908   6.683  0.00  0.00    -0.205 F 
ATOM     25  C   LIG    1       24.987 -20.817   7.061  0.00  0.00    +0.039 A 
ATOM     26  C   LIG    1       26.271 -20.580   6.571  0.00  0.00    +0.008 A 
ENDBRANCH  19  20
ENDBRANCH  17  19
ENDBRANCH   4  17
TORSDOF 7
ENDMDL
MODEL 7
REMARK VINA RESULT:      -2.1      3.402      6.880
REMARK  Name = *****
REMARK                            x       y       z     vdW  Elec       q    Type
REMARK                         _______ _______ _______ _____ _____    ______ ____
ROOT
ATOM      1  C   LIG    1       23.581 -18.059   4.418  0.00  0.00    +0.057 A 
ATOM      2  C   LIG    1       24.593 -17.404   3.693  0.00  0.00    +0.048 A 
ATOM      3  C   LIG    1       24.498 -16.024   3.479  0.00  0.00    +0.047 A 
ATOM      4  C   LIG    1       23.348 -15.300   3.817  0.00  0.00    +0.029 A 
ATOM      5  C   LIG    1       22.346 -15.973   4.522  0.00  0.00    +0.025 A 
ATOM      6  C   LIG    1       22.461 -17.335   4.832  0.00  0.00    +0.027 A 
ENDROOT
BRANCH   1   8
ATOM      7  C   LIG    1       24.301 -20.387   3.882  0.00  0.00    +0.405 C 
ATOM      8  N   LIG    1       23.771 -19.419   4.692  0.00  0.00    -0.249 N 
ATOM      9  H   LIG    1       23.425 -19.772   5.566  0.00  0.00    +0.158 HD
ATOM     10  O   LIG    1       24.722 -20.259   2.745  0.00  0.00    -0.226 OA
BRANCH   7  11
ATOM     11  O   LIG    1       24.289 -21.565   4.554  0.00  0.00    -0.450 OA
BRANCH  11  13
ATOM     12  C   LIG    1       22.356 -21.572   5.990  0.00  0.00    +0.048 C 
ATOM     13  C   LIG    1       23.870 -21.489   5.923  0.00  0.00    +0.230 C 
ENDBRANCH  11  13
ENDBRANCH   7  11
ENDBRANCH   1   8
BRANCH   2  14
ATOM     14  N   LIG    1       25.774 -18.079   3.297  0.00  0.00    -0.356 N 
ATOM     15  H   LIG    1       26.490 -17.433   2.981  0.00  0.00    +0.142 HD
ATOM     16  H   LIG    1       26.142 -18.676   4.031  0.00  0.00    +0.142 HD
ENDBRANCH   2  14
BRANCH   4  17
ATOM     17  N   LIG    1       23.197 -13.929   3.573  0.00  0.00    -0.340 N 
ATOM     18  H   LIG    1       23.271 -13.719   2.579  0.00  0.00    +0.146 HD
BRANCH  17  19
ATOM     19  C   LIG    1       23.909 -12.981   4.416  0.00  0.00    +0.137 C 
BRANCH  19  20
ATOM     20  C   LIG    1       25.398 -13.121   4.226  0.00  0.00    -0.030 A 
ATOM     21  C   LIG    1       26.244 -13.328   5.327  0.00  0.00    +0.008 A 
ATOM     22  C   LIG    1       27.622 -13.443   5.141  0.00  0.00    +0.039 A 
ATOM     23  C   LIG    1       28.152 -13.359   3.858  0.00  0.00    +0.123 A 
ATOM     24  F   LIG    1       29.475 -13.472   3.684  0.00  0.00    -0.205 F 
ATOM     25  C   LIG    1       27.331 -13.164   2.756  0.00  0.00    +0.039 A 
ATOM     26  C   LIG    1       25.953 -13.048   2.938  0.00  0.00    +0.008 A 
ENDBRANCH  19  20
ENDBRANCH  17  19
ENDBRANCH   4  17
TORSDOF 7
ENDMDL
