MODEL 1
REMARK VINA RESULT:      -4.2      0.000      0.000
REMARK  Name = *****
REMARK                            x       y       z     vdW  Elec       q    Type
REMARK                         _______ _______ _______ _____ _____    ______ ____
ROOT
ATOM      1  C   LIG    1       27.250 -17.124   3.672  0.00  0.00    +0.162 C 
ENDROOT
BRANCH   1   2
ATOM      2  C   LIG    1       27.708 -18.165   4.695  0.00  0.00    -0.007 A 
ATOM      3  C   LIG    1       26.910 -19.269   5.126  0.00  0.00    +0.009 A 
ATOM      4  C   LIG    1       27.516 -20.165   6.049  0.00  0.00    +0.071 A 
ATOM      5  C   LIG    1       26.821 -21.277   6.484  0.00  0.00    +0.032 A 
ATOM      6  C   LIG    1       25.526 -21.555   6.063  0.00  0.00    +0.048 A 
ATOM      7  C   LIG    1       24.884 -20.685   5.194  0.00  0.00    +0.121 A 
ATOM      8  N   LIG    1       28.748 -20.013   6.539  0.00  0.00    -0.255 NA
ATOM      9  C   LIG    1       29.470 -18.962   6.126  0.00  0.00    +0.112 A 
ATOM     10  C   LIG    1       25.574 -19.558   4.723  0.00  0.00    +0.056 A 
ATOM     11  C   LIG    1       29.007 -18.027   5.223  0.00  0.00    +0.026 A 
BRANCH   7  12
ATOM     12  O   LIG    1       23.608 -20.858   4.731  0.00  0.00    -0.495 OA
ATOM     13  C   LIG    1       22.636 -19.967   5.280  0.00  0.00    +0.277 C 
ENDBRANCH   7  12
ENDBRANCH   1   2
BRANCH   1  17
ATOM     14  C   LIG    1       24.979 -13.381   4.466  0.00  0.00    +0.028 C 
ATOM     15  C   LIG    1       24.782 -14.316   3.243  0.00  0.00    -0.000 C 
ATOM     16  C   LIG    1       25.026 -15.774   3.699  0.00  0.00    +0.026 C 
ATOM     17  C   LIG    1       26.459 -15.913   4.291  0.00  0.00    +0.090 C 
ATOM     18  N   LIG    1       27.172 -14.605   4.222  0.00  0.00    -0.296 NA
ATOM     19  C   LIG    1       27.240 -14.119   2.828  0.00  0.00    +0.085 C 
ATOM     20  C   LIG    1       25.852 -14.026   2.179  0.00  0.00    +0.019 C 
ATOM     21  C   LIG    1       26.410 -13.611   5.022  0.00  0.00    +0.092 C 
BRANCH  14  23
ATOM     22  C   LIG    1       23.828 -11.473   3.267  0.00  0.00    +0.004 C 
ATOM     23  C   LIG    1       24.744 -11.922   4.138  0.00  0.00    -0.029 C 
ENDBRANCH  14  23
ENDBRANCH   1  17
BRANCH   1  24
ATOM     24  O   LIG    1       26.404 -17.781   2.710  0.00  0.00    -0.386 OA
ATOM     25  H   LIG    1       25.509 -17.810   3.091  0.00  0.00    +0.210 HD
ENDBRANCH   1  24
TORSDOF 5
ENDMDL
MODEL 2
REMARK VINA RESULT:      -2.0      2.304      5.436
REMARK  Name = *****
REMARK                            x       y       z     vdW  Elec       q    Type
REMARK                         _______ _______ _______ _____ _____    ______ ____
ROOT
ATOM      1  C   LIG    1       25.379 -21.050   5.789  0.00  0.00    +0.162 C 
ENDROOT
BRANCH   1   2
ATOM      2  C   LIG    1       26.818 -20.575   5.991  0.00  0.00    -0.007 A 
ATOM      3  C   LIG    1       27.352 -19.376   5.425  0.00  0.00    +0.009 A 
ATOM      4  C   LIG    1       28.699 -19.065   5.758  0.00  0.00    +0.071 A 
ATOM      5  C   LIG    1       29.275 -17.904   5.280  0.00  0.00    +0.032 A 
ATOM      6  C   LIG    1       28.587 -17.017   4.459  0.00  0.00    +0.048 A 
ATOM      7  C   LIG    1       27.285 -17.304   4.078  0.00  0.00    +0.121 A 
ATOM      8  N   LIG    1       29.475 -19.831   6.528  0.00  0.00    -0.255 NA
ATOM      9  C   LIG    1       28.950 -20.956   7.037  0.00  0.00    +0.112 A 
ATOM     10  C   LIG    1       26.671 -18.467   4.565  0.00  0.00    +0.056 A 
ATOM     11  C   LIG    1       27.654 -21.365   6.804  0.00  0.00    +0.026 A 
BRANCH   7  12
ATOM     12  O   LIG    1       26.526 -16.507   3.264  0.00  0.00    -0.495 OA
ATOM     13  C   LIG    1       26.985 -15.161   3.132  0.00  0.00    +0.277 C 
ENDBRANCH   7  12
ENDBRANCH   1   2
BRANCH   1  17
ATOM     14  C   LIG    1       21.985 -18.659   4.187  0.00  0.00    +0.028 C 
ATOM     15  C   LIG    1       21.859 -19.933   5.063  0.00  0.00    -0.000 C 
ATOM     16  C   LIG    1       23.035 -19.953   6.068  0.00  0.00    +0.026 C 
ATOM     17  C   LIG    1       24.390 -19.927   5.301  0.00  0.00    +0.090 C 
ATOM     18  N   LIG    1       24.146 -19.911   3.829  0.00  0.00    -0.296 NA
ATOM     19  C   LIG    1       23.348 -21.086   3.418  0.00  0.00    +0.085 C 
ATOM     20  C   LIG    1       22.028 -21.189   4.195  0.00  0.00    +0.019 C 
ATOM     21  C   LIG    1       23.374 -18.686   3.494  0.00  0.00    +0.092 C 
BRANCH  14  23
ATOM     22  C   LIG    1       19.588 -18.858   3.400  0.00  0.00    +0.004 C 
ATOM     23  C   LIG    1       20.867 -18.525   3.174  0.00  0.00    -0.029 C 
ENDBRANCH  14  23
ENDBRANCH   1  17
BRANCH   1  24
ATOM     24  O   LIG    1       24.897 -21.572   7.041  0.00  0.00    -0.386 OA
ATOM     25  H   LIG    1       24.723 -20.809   7.619  0.00  0.00    +0.210 HD
ENDBRANCH   1  24
TORSDOF 5
ENDMDL
MODEL 3
REMARK VINA RESULT:      -1.4      2.141      3.885
REMARK  Name = *****
REMARK                            x       y       z     vdW  Elec       q    Type
REMARK                         _______ _______ _______ _____ _____    ______ ____
ROOT
ATOM      1  C   LIG    1       23.814 -16.480   3.494  0.00  0.00    +0.162 C 
ENDROOT
BRANCH   1   2
ATOM      2  C   LIG    1       23.477 -17.878   4.013  0.00  0.00    -0.007 A 
ATOM      3  C   LIG    1       24.453 -18.826   4.451  0.00  0.00    +0.009 A 
ATOM      4  C   LIG    1       23.955 -20.062   4.948  0.00  0.00    +0.071 A 
ATOM      5  C   LIG    1       24.834 -21.015   5.425  0.00  0.00    +0.032 A 
ATOM      6  C   LIG    1       26.211 -20.821   5.428  0.00  0.00    +0.048 A 
ATOM      7  C   LIG    1       26.739 -19.645   4.915  0.00  0.00    +0.121 A 
ATOM      8  N   LIG    1       22.660 -20.382   4.995  0.00  0.00    -0.255 NA
ATOM      9  C   LIG    1       21.767 -19.477   4.566  0.00  0.00    +0.112 A 
ATOM     10  C   LIG    1       25.867 -18.653   4.441  0.00  0.00    +0.056 A 
ATOM     11  C   LIG    1       22.116 -18.237   4.076  0.00  0.00    +0.026 A 
BRANCH   7  12
ATOM     12  O   LIG    1       28.076 -19.360   4.859  0.00  0.00    -0.495 OA
ATOM     13  C   LIG    1       28.801 -19.606   6.065  0.00  0.00    +0.277 C 
ENDBRANCH   7  12
ENDBRANCH   1   2
BRANCH   1  17
ATOM     14  C   LIG    1       27.142 -13.844   4.829  0.00  0.00    +0.028 C 
ATOM     15  C   LIG    1       25.673 -13.399   4.598  0.00  0.00    -0.000 C 
ATOM     16  C   LIG    1       24.741 -14.568   4.997  0.00  0.00    +0.026 C 
ATOM     17  C   LIG    1       25.086 -15.833   4.158  0.00  0.00    +0.090 C 
ATOM     18  N   LIG    1       26.198 -15.533   3.210  0.00  0.00    -0.296 NA
ATOM     19  C   LIG    1       25.835 -14.412   2.317  0.00  0.00    +0.085 C 
ATOM     20  C   LIG    1       25.425 -13.158   3.101  0.00  0.00    +0.019 C 
ATOM     21  C   LIG    1       27.392 -15.131   3.998  0.00  0.00    +0.092 C 
BRANCH  14  23
ATOM     22  C   LIG    1       29.151 -12.906   3.610  0.00  0.00    +0.004 C 
ATOM     23  C   LIG    1       28.147 -12.764   4.488  0.00  0.00    -0.029 C 
ENDBRANCH  14  23
ENDBRANCH   1  17
BRANCH   1  24
ATOM     24  O   LIG    1       22.683 -15.623   3.741  0.00  0.00    -0.386 OA
ATOM     25  H   LIG    1       22.741 -15.335   4.668  0.00  0.00    +0.210 HD
ENDBRANCH   1  24
TORSDOF 5
ENDMDL
