MODEL 1
REMARK VINA RESULT:      -7.8      0.000      0.000
REMARK  Name = *****
REMARK                            x       y       z     vdW  Elec       q    Type
REMARK                         _______ _______ _______ _____ _____    ______ ____
ROOT
ATOM      1  C   LIG    1       31.472 -18.939   8.581  0.00  0.00    +0.172 C 
ENDROOT
BRANCH   1   2
ATOM      2  C   LIG    1       30.338 -19.294   7.629  0.00  0.00    -0.013 A 
ATOM      3  C   LIG    1       30.045 -18.461   6.535  0.00  0.00    +0.055 A 
ATOM      4  C   LIG    1       29.021 -18.802   5.656  0.00  0.00    +0.159 A 
ATOM      5  C   LIG    1       28.272 -19.961   5.840  0.00  0.00    +0.158 A 
ATOM      6  C   LIG    1       28.535 -20.795   6.916  0.00  0.00    +0.049 A 
ATOM      7  C   LIG    1       29.559 -20.455   7.810  0.00  0.00    +0.010 A 
BRANCH   4   8
ATOM      8  O   LIG    1       28.748 -17.985   4.595  0.00  0.00    -0.503 OA
ATOM      9  H   LIG    1       28.631 -17.098   4.993  0.00  0.00    +0.292 HD
ENDBRANCH   4   8
BRANCH   5  10
ATOM     10  O   LIG    1       27.283 -20.236   4.937  0.00  0.00    -0.503 OA
ATOM     11  H   LIG    1       26.722 -19.445   4.853  0.00  0.00    +0.292 HD
ENDBRANCH   5  10
ENDBRANCH   1   2
BRANCH   1  12
ATOM     12  O   LIG    1       31.942 -20.131   9.259  0.00  0.00    -0.385 OA
ATOM     13  H   LIG    1       32.080 -19.866  10.189  0.00  0.00    +0.210 HD
ENDBRANCH   1  12
BRANCH   1  14
ATOM     14  CA  LIG    1       31.120 -17.881   9.657  0.00  0.00    +0.194 C 
BRANCH  14  15
ATOM     15  N   LIG    1       30.717 -18.468  10.965  0.00  0.00    -0.316 NA
ATOM     16  H1  LIG    1       29.875 -18.007  11.301  0.00  0.00    +0.119 HD
ATOM     17  H2  LIG    1       30.482 -19.452  10.823  0.00  0.00    +0.119 HD
ENDBRANCH  14  15
BRANCH  14  18
ATOM     18  C   LIG    1       32.349 -16.979   9.869  0.00  0.00    +0.325 C 
ATOM     19  O   LIG    1       33.025 -16.968  10.893  0.00  0.00    -0.249 OA
BRANCH  18  20
ATOM     20  OXT LIG    1       32.678 -16.232   8.785  0.00  0.00    -0.479 OA
ATOM     21  HXT LIG    1       32.391 -15.296   8.901  0.00  0.00    +0.295 HD
ENDBRANCH  18  20
ENDBRANCH  14  18
ENDBRANCH   1  14
TORSDOF 8
ENDMDL
MODEL 2
REMARK VINA RESULT:      -7.4      1.623      1.986
REMARK  Name = *****
REMARK                            x       y       z     vdW  Elec       q    Type
REMARK                         _______ _______ _______ _____ _____    ______ ____
ROOT
ATOM      1  C   LIG    1       30.556 -19.081   7.530  0.00  0.00    +0.172 C 
ENDROOT
BRANCH   1   2
ATOM      2  C   LIG    1       29.136 -19.569   7.273  0.00  0.00    -0.013 A 
ATOM      3  C   LIG    1       28.625 -19.600   5.964  0.00  0.00    +0.055 A 
ATOM      4  C   LIG    1       27.333 -20.067   5.734  0.00  0.00    +0.159 A 
ATOM      5  C   LIG    1       26.531 -20.507   6.783  0.00  0.00    +0.158 A 
ATOM      6  C   LIG    1       27.009 -20.478   8.084  0.00  0.00    +0.049 A 
ATOM      7  C   LIG    1       28.304 -20.002   8.325  0.00  0.00    +0.010 A 
BRANCH   4   8
ATOM      8  O   LIG    1       26.849 -20.094   4.456  0.00  0.00    -0.503 OA
ATOM      9  H   LIG    1       26.339 -20.928   4.404  0.00  0.00    +0.292 HD
ENDBRANCH   4   8
BRANCH   5  10
ATOM     10  O   LIG    1       25.274 -20.955   6.484  0.00  0.00    -0.503 OA
ATOM     11  H   LIG    1       24.740 -20.192   6.200  0.00  0.00    +0.292 HD
ENDBRANCH   5  10
ENDBRANCH   1   2
BRANCH   1  12
ATOM     12  O   LIG    1       31.482 -19.765   6.649  0.00  0.00    -0.385 OA
ATOM     13  H   LIG    1       31.363 -19.351   5.772  0.00  0.00    +0.210 HD
ENDBRANCH   1  12
BRANCH   1  14
ATOM     14  CA  LIG    1       31.058 -19.254   8.986  0.00  0.00    +0.194 C 
BRANCH  14  15
ATOM     15  N   LIG    1       31.869 -20.484   9.197  0.00  0.00    -0.316 NA
ATOM     16  H1  LIG    1       31.616 -21.184   8.503  0.00  0.00    +0.119 HD
ATOM     17  H2  LIG    1       32.854 -20.257   9.043  0.00  0.00    +0.119 HD
ENDBRANCH  14  15
BRANCH  14  18
ATOM     18  C   LIG    1       31.905 -18.024   9.355  0.00  0.00    +0.325 C 
ATOM     19  O   LIG    1       32.301 -17.778  10.490  0.00  0.00    -0.249 OA
BRANCH  18  20
ATOM     20  OXT LIG    1       32.249 -17.252   8.294  0.00  0.00    -0.479 OA
ATOM     21  HXT LIG    1       31.631 -16.490   8.196  0.00  0.00    +0.295 HD
ENDBRANCH  18  20
ENDBRANCH  14  18
ENDBRANCH   1  14
TORSDOF 8
ENDMDL
MODEL 3
REMARK VINA RESULT:      -7.4      1.913      2.545
REMARK  Name = *****
REMARK                            x       y       z     vdW  Elec       q    Type
REMARK                         _______ _______ _______ _____ _____    ______ ____
ROOT
ATOM      1  C   LIG    1       30.634 -19.056   7.524  0.00  0.00    +0.172 C 
ENDROOT
BRANCH   1   2
ATOM      2  C   LIG    1       29.225 -19.551   7.225  0.00  0.00    -0.013 A 
ATOM      3  C   LIG    1       28.392 -19.990   8.269  0.00  0.00    +0.055 A 
ATOM      4  C   LIG    1       27.098 -20.421   7.992  0.00  0.00    +0.159 A 
ATOM      5  C   LIG    1       26.607 -20.429   6.689  0.00  0.00    +0.158 A 
ATOM      6  C   LIG    1       27.411 -20.009   5.640  0.00  0.00    +0.049 A 
ATOM      7  C   LIG    1       28.717 -19.581   5.910  0.00  0.00    +0.010 A 
BRANCH   4   8
ATOM      8  O   LIG    1       26.298 -20.843   9.016  0.00  0.00    -0.503 OA
ATOM      9  H   LIG    1       26.596 -21.757   9.200  0.00  0.00    +0.292 HD
ENDBRANCH   4   8
BRANCH   5  10
ATOM     10  O   LIG    1       25.326 -20.863   6.489  0.00  0.00    -0.503 OA
ATOM     11  H   LIG    1       24.735 -20.326   7.047  0.00  0.00    +0.292 HD
ENDBRANCH   5  10
ENDBRANCH   1   2
BRANCH   1  12
ATOM     12  O   LIG    1       31.591 -19.743   6.680  0.00  0.00    -0.385 OA
ATOM     13  H   LIG    1       31.307 -19.561   5.762  0.00  0.00    +0.210 HD
ENDBRANCH   1  12
BRANCH   1  14
ATOM     14  CA  LIG    1       31.088 -19.217   8.997  0.00  0.00    +0.194 C 
BRANCH  14  15
ATOM     15  N   LIG    1       31.900 -20.441   9.243  0.00  0.00    -0.316 NA
ATOM     16  H1  LIG    1       31.283 -21.222   9.457  0.00  0.00    +0.119 HD
ATOM     17  H2  LIG    1       32.397 -20.682   8.383  0.00  0.00    +0.119 HD
ENDBRANCH  14  15
BRANCH  14  18
ATOM     18  C   LIG    1       31.917 -17.979   9.386  0.00  0.00    +0.325 C 
ATOM     19  O   LIG    1       32.302 -17.741  10.526  0.00  0.00    -0.249 OA
BRANCH  18  20
ATOM     20  OXT LIG    1       32.257 -17.191   8.335  0.00  0.00    -0.479 OA
ATOM     21  HXT LIG    1       32.342 -17.722   7.509  0.00  0.00    +0.295 HD
ENDBRANCH  18  20
ENDBRANCH  14  18
ENDBRANCH   1  14
TORSDOF 8
ENDMDL
MODEL 4
REMARK VINA RESULT:      -7.0      2.809      5.759
REMARK  Name = *****
REMARK                            x       y       z     vdW  Elec       q    Type
REMARK                         _______ _______ _______ _____ _____    ______ ____
ROOT
ATOM      1  C   LIG    1       28.023 -20.705   6.643  0.00  0.00    +0.172 C 
ENDROOT
BRANCH   1   2
ATOM      2  C   LIG    1       29.137 -20.114   7.498  0.00  0.00    -0.013 A 
ATOM      3  C   LIG    1       30.107 -20.951   8.075  0.00  0.00    +0.055 A 
ATOM      4  C   LIG    1       31.135 -20.403   8.837  0.00  0.00    +0.159 A 
ATOM      5  C   LIG    1       31.222 -19.029   9.043  0.00  0.00    +0.158 A 
ATOM      6  C   LIG    1       30.273 -18.182   8.491  0.00  0.00    +0.049 A 
ATOM      7  C   LIG    1       29.231 -18.726   7.729  0.00  0.00    +0.010 A 
BRANCH   4   8
ATOM      8  O   LIG    1       32.072 -21.229   9.391  0.00  0.00    -0.503 OA
ATOM      9  H   LIG    1       32.614 -21.529   8.633  0.00  0.00    +0.292 HD
ENDBRANCH   4   8
BRANCH   5  10
ATOM     10  O   LIG    1       32.259 -18.558   9.800  0.00  0.00    -0.503 OA
ATOM     11  H   LIG    1       31.983 -17.714  10.199  0.00  0.00    +0.292 HD
ENDBRANCH   5  10
ENDBRANCH   1   2
BRANCH   1  12
ATOM     12  O   LIG    1       28.194 -20.306   5.260  0.00  0.00    -0.385 OA
ATOM     13  H   LIG    1       29.016 -20.743   4.962  0.00  0.00    +0.210 HD
ENDBRANCH   1  12
BRANCH   1  14
ATOM     14  CA  LIG    1       26.586 -20.323   7.081  0.00  0.00    +0.194 C 
BRANCH  14  15
ATOM     15  N   LIG    1       25.548 -20.629   6.058  0.00  0.00    -0.316 NA
ATOM     16  H1  LIG    1       25.465 -19.847   5.412  0.00  0.00    +0.119 HD
ATOM     17  H2  LIG    1       25.856 -21.436   5.510  0.00  0.00    +0.119 HD
ENDBRANCH  14  15
BRANCH  14  18
ATOM     18  C   LIG    1       26.256 -21.086   8.375  0.00  0.00    +0.325 C 
ATOM     19  O   LIG    1       25.941 -20.545   9.431  0.00  0.00    -0.249 OA
BRANCH  18  20
ATOM     20  OXT LIG    1       26.269 -22.436   8.238  0.00  0.00    -0.479 OA
ATOM     21  HXT LIG    1       25.356 -22.788   8.123  0.00  0.00    +0.295 HD
ENDBRANCH  18  20
ENDBRANCH  14  18
ENDBRANCH   1  14
TORSDOF 8
ENDMDL
MODEL 5
REMARK VINA RESULT:      -7.0      2.632      6.276
REMARK  Name = *****
REMARK                            x       y       z     vdW  Elec       q    Type
REMARK                         _______ _______ _______ _____ _____    ______ ____
ROOT
ATOM      1  C   LIG    1       27.570 -21.571   7.236  0.00  0.00    +0.172 C 
ENDROOT
BRANCH   1   2
ATOM      2  C   LIG    1       28.810 -20.876   7.783  0.00  0.00    -0.013 A 
ATOM      3  C   LIG    1       29.846 -21.629   8.362  0.00  0.00    +0.055 A 
ATOM      4  C   LIG    1       30.986 -20.990   8.841  0.00  0.00    +0.159 A 
ATOM      5  C   LIG    1       31.123 -19.608   8.758  0.00  0.00    +0.158 A 
ATOM      6  C   LIG    1       30.113 -18.841   8.198  0.00  0.00    +0.049 A 
ATOM      7  C   LIG    1       28.958 -19.476   7.721  0.00  0.00    +0.010 A 
BRANCH   4   8
ATOM      8  O   LIG    1       31.986 -21.735   9.400  0.00  0.00    -0.503 OA
ATOM      9  H   LIG    1       32.231 -21.248  10.212  0.00  0.00    +0.292 HD
ENDBRANCH   4   8
BRANCH   5  10
ATOM     10  O   LIG    1       32.271 -19.047   9.245  0.00  0.00    -0.503 OA
ATOM     11  H   LIG    1       32.053 -18.162   9.588  0.00  0.00    +0.292 HD
ENDBRANCH   5  10
ENDBRANCH   1   2
BRANCH   1  12
ATOM     12  O   LIG    1       27.003 -20.792   6.152  0.00  0.00    -0.385 OA
ATOM     13  H   LIG    1       26.243 -20.317   6.541  0.00  0.00    +0.210 HD
ENDBRANCH   1  12
BRANCH   1  14
ATOM     14  CA  LIG    1       26.452 -21.835   8.276  0.00  0.00    +0.194 C 
BRANCH  14  15
ATOM     15  N   LIG    1       26.114 -20.646   9.106  0.00  0.00    -0.316 NA
ATOM     16  H1  LIG    1       26.115 -20.905  10.090  0.00  0.00    +0.119 HD
ATOM     17  H2  LIG    1       26.845 -19.942   8.983  0.00  0.00    +0.119 HD
ENDBRANCH  14  15
BRANCH  14  18
ATOM     18  C   LIG    1       25.191 -22.297   7.524  0.00  0.00    +0.325 C 
ATOM     19  O   LIG    1       25.189 -23.160   6.653  0.00  0.00    -0.249 OA
BRANCH  18  20
ATOM     20  OXT LIG    1       24.045 -21.714   7.959  0.00  0.00    -0.479 OA
ATOM     21  HXT LIG    1       23.758 -22.099   8.819  0.00  0.00    +0.295 HD
ENDBRANCH  18  20
ENDBRANCH  14  18
ENDBRANCH   1  14
TORSDOF 8
ENDMDL
MODEL 6
REMARK VINA RESULT:      -7.0      4.365      6.020
REMARK  Name = *****
REMARK                            x       y       z     vdW  Elec       q    Type
REMARK                         _______ _______ _______ _____ _____    ______ ____
ROOT
ATOM      1  C   LIG    1       27.030 -21.585   8.114  0.00  0.00    +0.172 C 
ENDROOT
BRANCH   1   2
ATOM      2  C   LIG    1       25.679 -22.116   7.653  0.00  0.00    -0.013 A 
ATOM      3  C   LIG    1       25.556 -23.440   7.199  0.00  0.00    +0.055 A 
ATOM      4  C   LIG    1       24.314 -23.926   6.799  0.00  0.00    +0.159 A 
ATOM      5  C   LIG    1       23.181 -23.118   6.839  0.00  0.00    +0.158 A 
ATOM      6  C   LIG    1       23.276 -21.806   7.274  0.00  0.00    +0.049 A 
ATOM      7  C   LIG    1       24.524 -21.308   7.671  0.00  0.00    +0.010 A 
BRANCH   4   8
ATOM      8  O   LIG    1       24.209 -25.216   6.361  0.00  0.00    -0.503 OA
ATOM      9  H   LIG    1       23.724 -25.679   7.074  0.00  0.00    +0.292 HD
ENDBRANCH   4   8
BRANCH   5  10
ATOM     10  O   LIG    1       21.992 -23.661   6.434  0.00  0.00    -0.503 OA
ATOM     11  H   LIG    1       22.152 -24.156   5.610  0.00  0.00    +0.292 HD
ENDBRANCH   5  10
ENDBRANCH   1   2
BRANCH   1  12
ATOM     12  O   LIG    1       26.861 -20.305   8.772  0.00  0.00    -0.385 OA
ATOM     13  H   LIG    1       26.094 -20.415   9.367  0.00  0.00    +0.210 HD
ENDBRANCH   1  12
BRANCH   1  14
ATOM     14  CA  LIG    1       28.087 -21.415   6.993  0.00  0.00    +0.194 C 
BRANCH  14  15
ATOM     15  N   LIG    1       27.691 -20.441   5.940  0.00  0.00    -0.316 NA
ATOM     16  H1  LIG    1       28.068 -20.736   5.042  0.00  0.00    +0.119 HD
ATOM     17  H2  LIG    1       26.672 -20.450   5.851  0.00  0.00    +0.119 HD
ENDBRANCH  14  15
BRANCH  14  18
ATOM     18  C   LIG    1       29.405 -20.950   7.637  0.00  0.00    +0.325 C 
ATOM     19  O   LIG    1       29.757 -21.250   8.774  0.00  0.00    -0.249 OA
BRANCH  18  20
ATOM     20  OXT LIG    1       30.198 -20.225   6.809  0.00  0.00    -0.479 OA
ATOM     21  HXT LIG    1       30.495 -20.767   6.042  0.00  0.00    +0.295 HD
ENDBRANCH  18  20
ENDBRANCH  14  18
ENDBRANCH   1  14
TORSDOF 8
ENDMDL
MODEL 7
REMARK VINA RESULT:      -6.9      2.688      3.572
REMARK  Name = *****
REMARK                            x       y       z     vdW  Elec       q    Type
REMARK                         _______ _______ _______ _____ _____    ______ ____
ROOT
ATOM      1  C   LIG    1       29.269 -19.757   8.245  0.00  0.00    +0.172 C 
ENDROOT
BRANCH   1   2
ATOM      2  C   LIG    1       27.929 -20.083   7.598  0.00  0.00    -0.013 A 
ATOM      3  C   LIG    1       27.779 -20.007   6.203  0.00  0.00    +0.055 A 
ATOM      4  C   LIG    1       26.557 -20.326   5.616  0.00  0.00    +0.159 A 
ATOM      5  C   LIG    1       25.470 -20.721   6.391  0.00  0.00    +0.158 A 
ATOM      6  C   LIG    1       25.589 -20.795   7.770  0.00  0.00    +0.049 A 
ATOM      7  C   LIG    1       26.813 -20.469   8.368  0.00  0.00    +0.010 A 
BRANCH   4   8
ATOM      8  O   LIG    1       26.427 -20.250   4.258  0.00  0.00    -0.503 OA
ATOM      9  H   LIG    1       26.243 -19.306   4.081  0.00  0.00    +0.292 HD
ENDBRANCH   4   8
BRANCH   5  10
ATOM     10  O   LIG    1       24.301 -21.022   5.748  0.00  0.00    -0.503 OA
ATOM     11  H   LIG    1       24.387 -21.915   5.367  0.00  0.00    +0.292 HD
ENDBRANCH   5  10
ENDBRANCH   1   2
BRANCH   1  12
ATOM     12  O   LIG    1       29.615 -18.372   7.998  0.00  0.00    -0.385 OA
ATOM     13  H   LIG    1       29.099 -17.854   8.646  0.00  0.00    +0.210 HD
ENDBRANCH   1  12
BRANCH   1  14
ATOM     14  CA  LIG    1       30.454 -20.641   7.781  0.00  0.00    +0.194 C 
BRANCH  14  15
ATOM     15  N   LIG    1       31.497 -19.894   7.024  0.00  0.00    -0.316 NA
ATOM     16  H1  LIG    1       31.520 -20.221   6.061  0.00  0.00    +0.119 HD
ATOM     17  H2  LIG    1       31.236 -18.906   6.996  0.00  0.00    +0.119 HD
ENDBRANCH  14  15
BRANCH  14  18
ATOM     18  C   LIG    1       31.098 -21.279   9.024  0.00  0.00    +0.325 C 
ATOM     19  O   LIG    1       30.616 -22.227   9.637  0.00  0.00    -0.249 OA
BRANCH  18  20
ATOM     20  OXT LIG    1       32.301 -20.748   9.357  0.00  0.00    -0.479 OA
ATOM     21  HXT LIG    1       32.203 -19.818   9.666  0.00  0.00    +0.295 HD
ENDBRANCH  18  20
ENDBRANCH  14  18
ENDBRANCH   1  14
TORSDOF 8
ENDMDL
MODEL 8
REMARK VINA RESULT:      -6.9      2.738      5.883
REMARK  Name = *****
REMARK                            x       y       z     vdW  Elec       q    Type
REMARK                         _______ _______ _______ _____ _____    ______ ____
ROOT
ATOM      1  C   LIG    1       27.001 -21.767   6.966  0.00  0.00    +0.172 C 
ENDROOT
BRANCH   1   2
ATOM      2  C   LIG    1       28.312 -21.001   7.081  0.00  0.00    -0.013 A 
ATOM      3  C   LIG    1       28.566 -19.901   6.243  0.00  0.00    +0.055 A 
ATOM      4  C   LIG    1       29.758 -19.192   6.368  0.00  0.00    +0.159 A 
ATOM      5  C   LIG    1       30.713 -19.554   7.314  0.00  0.00    +0.158 A 
ATOM      6  C   LIG    1       30.491 -20.640   8.147  0.00  0.00    +0.049 A 
ATOM      7  C   LIG    1       29.297 -21.363   8.022  0.00  0.00    +0.010 A 
BRANCH   4   8
ATOM      8  O   LIG    1       29.990 -18.124   5.548  0.00  0.00    -0.503 OA
ATOM      9  H   LIG    1       29.115 -17.913   5.165  0.00  0.00    +0.292 HD
ENDBRANCH   4   8
BRANCH   5  10
ATOM     10  O   LIG    1       31.859 -18.812   7.383  0.00  0.00    -0.503 OA
ATOM     11  H   LIG    1       31.614 -17.871   7.328  0.00  0.00    +0.292 HD
ENDBRANCH   5  10
ENDBRANCH   1   2
BRANCH   1  12
ATOM     12  O   LIG    1       26.238 -21.277   5.834  0.00  0.00    -0.385 OA
ATOM     13  H   LIG    1       26.895 -21.098   5.134  0.00  0.00    +0.210 HD
ENDBRANCH   1  12
BRANCH   1  14
ATOM     14  CA  LIG    1       26.093 -21.709   8.220  0.00  0.00    +0.194 C 
BRANCH  14  15
ATOM     15  N   LIG    1       26.280 -20.479   9.038  0.00  0.00    -0.316 NA
ATOM     16  H1  LIG    1       26.636 -19.729   8.450  0.00  0.00    +0.119 HD
ATOM     17  H2  LIG    1       25.369 -20.176   9.388  0.00  0.00    +0.119 HD
ENDBRANCH  14  15
BRANCH  14  18
ATOM     18  C   LIG    1       24.627 -21.787   7.760  0.00  0.00    +0.325 C 
ATOM     19  O   LIG    1       23.842 -20.845   7.803  0.00  0.00    -0.249 OA
BRANCH  18  20
ATOM     20  OXT LIG    1       24.279 -22.985   7.226  0.00  0.00    -0.479 OA
ATOM     21  HXT LIG    1       23.595 -23.432   7.776  0.00  0.00    +0.295 HD
ENDBRANCH  18  20
ENDBRANCH  14  18
ENDBRANCH   1  14
TORSDOF 8
ENDMDL
MODEL 9
REMARK VINA RESULT:      -6.7      4.478      6.331
REMARK  Name = *****
REMARK                            x       y       z     vdW  Elec       q    Type
REMARK                         _______ _______ _______ _____ _____    ______ ____
ROOT
ATOM      1  C   LIG    1       25.930 -20.756   6.730  0.00  0.00    +0.172 C 
ENDROOT
BRANCH   1   2
ATOM      2  C   LIG    1       25.355 -22.166   6.677  0.00  0.00    -0.013 A 
ATOM      3  C   LIG    1       23.964 -22.364   6.690  0.00  0.00    +0.055 A 
ATOM      4  C   LIG    1       23.445 -23.654   6.619  0.00  0.00    +0.159 A 
ATOM      5  C   LIG    1       24.283 -24.762   6.537  0.00  0.00    +0.158 A 
ATOM      6  C   LIG    1       25.659 -24.594   6.531  0.00  0.00    +0.049 A 
ATOM      7  C   LIG    1       26.190 -23.300   6.609  0.00  0.00    +0.010 A 
BRANCH   4   8
ATOM      8  O   LIG    1       22.090 -23.832   6.631  0.00  0.00    -0.503 OA
ATOM      9  H   LIG    1       21.901 -24.222   7.508  0.00  0.00    +0.292 HD
ENDBRANCH   4   8
BRANCH   5  10
ATOM     10  O   LIG    1       23.705 -25.999   6.467  0.00  0.00    -0.503 OA
ATOM     11  H   LIG    1       22.837 -25.903   6.037  0.00  0.00    +0.292 HD
ENDBRANCH   5  10
ENDBRANCH   1   2
BRANCH   1  12
ATOM     12  O   LIG    1       26.977 -20.610   5.739  0.00  0.00    -0.385 OA
ATOM     13  H   LIG    1       27.753 -21.074   6.108  0.00  0.00    +0.210 HD
ENDBRANCH   1  12
BRANCH   1  14
ATOM     14  CA  LIG    1       26.505 -20.332   8.105  0.00  0.00    +0.194 C 
BRANCH  14  15
ATOM     15  N   LIG    1       25.964 -21.118   9.248  0.00  0.00    -0.316 NA
ATOM     16  H1  LIG    1       26.656 -21.158   9.994  0.00  0.00    +0.119 HD
ATOM     17  H2  LIG    1       25.149 -20.629   9.625  0.00  0.00    +0.119 HD
ENDBRANCH  14  15
BRANCH  14  18
ATOM     18  C   LIG    1       28.035 -20.498   8.062  0.00  0.00    +0.325 C 
ATOM     19  O   LIG    1       28.621 -21.539   8.342  0.00  0.00    -0.249 OA
BRANCH  18  20
ATOM     20  OXT LIG    1       28.696 -19.402   7.612  0.00  0.00    -0.479 OA
ATOM     21  HXT LIG    1       28.155 -18.910   6.951  0.00  0.00    +0.295 HD
ENDBRANCH  18  20
ENDBRANCH  14  18
ENDBRANCH   1  14
TORSDOF 8
ENDMDL
