MODEL 1
REMARK VINA RESULT:      -5.4      0.000      0.000
REMARK  Name = *****
REMARK                            x       y       z     vdW  Elec       q    Type
REMARK                         _______ _______ _______ _____ _____    ______ ____
ROOT
ATOM      1  C   LIG    1       26.354 -13.940   3.813  0.00  0.00    +0.182 C 
ENDROOT
BRANCH   1   2
ATOM      2  C   LIG    1       26.741 -15.406   3.560  0.00  0.00    +0.338 C 
ATOM      3  O   LIG    1       26.039 -16.210   2.962  0.00  0.00    -0.248 OA
BRANCH   2   4
ATOM      4  O   LIG    1       27.956 -15.727   4.057  0.00  0.00    -0.479 OA
ATOM      5  H   LIG    1       28.093 -16.698   4.109  0.00  0.00    +0.295 HD
ENDBRANCH   2   4
ENDBRANCH   1   2
BRANCH   1   6
ATOM      6  O   LIG    1       26.647 -13.152   2.635  0.00  0.00    -0.377 OA
ATOM      7  H   LIG    1       25.777 -12.873   2.257  0.00  0.00    +0.211 HD
ENDBRANCH   1   6
BRANCH   1   8
ATOM      8  C   LIG    1       24.857 -13.842   4.200  0.00  0.00    +0.167 C 
BRANCH   8  10
ATOM      9  O   LIG    1       23.780 -11.699   3.996  0.00  0.00    -0.251 OA
ATOM     10  C   LIG    1       24.157 -12.730   3.476  0.00  0.00    +0.308 C 
BRANCH  10  11
ATOM     11  O   LIG    1       23.909 -13.017   2.184  0.00  0.00    -0.480 OA
ATOM     12  H   LIG    1       24.659 -12.650   1.670  0.00  0.00    +0.295 HD
ENDBRANCH  10  11
ENDBRANCH   8  10
ENDBRANCH   1   8
BRANCH   1  13
ATOM     13  C   LIG    1       27.172 -13.376   4.983  0.00  0.00    +0.167 C 
BRANCH  13  14
ATOM     14  C   LIG    1       28.486 -12.712   4.648  0.00  0.00    +0.308 C 
ATOM     15  O   LIG    1       29.142 -13.030   3.665  0.00  0.00    -0.251 OA
BRANCH  14  16
ATOM     16  O   LIG    1       28.953 -11.832   5.554  0.00  0.00    -0.480 OA
ATOM     17  H   LIG    1       28.333 -11.102   5.771  0.00  0.00    +0.295 HD
ENDBRANCH  14  16
ENDBRANCH  13  14
ENDBRANCH   1  13
TORSDOF 9
ENDMDL
MODEL 2
REMARK VINA RESULT:      -4.5      1.146      4.095
REMARK  Name = *****
REMARK                            x       y       z     vdW  Elec       q    Type
REMARK                         _______ _______ _______ _____ _____    ______ ____
ROOT
ATOM      1  C   LIG    1       26.597 -13.862   3.018  0.00  0.00    +0.182 C 
ENDROOT
BRANCH   1   2
ATOM      2  C   LIG    1       27.611 -13.323   4.040  0.00  0.00    +0.338 C 
ATOM      3  O   LIG    1       27.429 -13.311   5.250  0.00  0.00    -0.248 OA
BRANCH   2   4
ATOM      4  O   LIG    1       28.748 -12.867   3.469  0.00  0.00    -0.479 OA
ATOM      5  H   LIG    1       29.459 -12.709   4.128  0.00  0.00    +0.295 HD
ENDBRANCH   2   4
ENDBRANCH   1   2
BRANCH   1   6
ATOM      6  O   LIG    1       27.291 -14.262   1.813  0.00  0.00    -0.377 OA
ATOM      7  H   LIG    1       26.930 -15.146   1.557  0.00  0.00    +0.211 HD
ENDBRANCH   1   6
BRANCH   1   8
ATOM      8  C   LIG    1       25.800 -15.042   3.628  0.00  0.00    +0.167 C 
BRANCH   8  10
ATOM      9  O   LIG    1       26.028 -17.361   3.027  0.00  0.00    -0.251 OA
ATOM     10  C   LIG    1       26.522 -16.349   3.482  0.00  0.00    +0.308 C 
BRANCH  10  11
ATOM     11  O   LIG    1       27.771 -16.319   3.981  0.00  0.00    -0.480 OA
ATOM     12  H   LIG    1       28.111 -17.237   3.934  0.00  0.00    +0.295 HD
ENDBRANCH  10  11
ENDBRANCH   8  10
ENDBRANCH   1   8
BRANCH   1  13
ATOM     13  C   LIG    1       25.590 -12.764   2.650  0.00  0.00    +0.167 C 
BRANCH  13  14
ATOM     14  C   LIG    1       24.271 -12.766   3.385  0.00  0.00    +0.308 C 
ATOM     15  O   LIG    1       24.156 -12.306   4.514  0.00  0.00    -0.251 OA
BRANCH  14  16
ATOM     16  O   LIG    1       23.254 -13.407   2.778  0.00  0.00    -0.480 OA
ATOM     17  H   LIG    1       22.428 -12.883   2.703  0.00  0.00    +0.295 HD
ENDBRANCH  14  16
ENDBRANCH  13  14
ENDBRANCH   1  13
TORSDOF 9
ENDMDL
MODEL 3
REMARK VINA RESULT:      -4.4      1.269      3.083
REMARK  Name = *****
REMARK                            x       y       z     vdW  Elec       q    Type
REMARK                         _______ _______ _______ _____ _____    ______ ____
ROOT
ATOM      1  C   LIG    1       26.233 -13.755   3.824  0.00  0.00    +0.182 C 
ENDROOT
BRANCH   1   2
ATOM      2  C   LIG    1       27.323 -13.261   4.789  0.00  0.00    +0.338 C 
ATOM      3  O   LIG    1       28.412 -12.829   4.436  0.00  0.00    -0.248 OA
BRANCH   2   4
ATOM      4  O   LIG    1       26.955 -13.337   6.088  0.00  0.00    -0.479 OA
ATOM      5  H   LIG    1       27.087 -12.489   6.563  0.00  0.00    +0.295 HD
ENDBRANCH   2   4
ENDBRANCH   1   2
BRANCH   1   6
ATOM      6  O   LIG    1       25.155 -14.356   4.578  0.00  0.00    -0.377 OA
ATOM      7  H   LIG    1       25.450 -14.384   5.522  0.00  0.00    +0.211 HD
ENDBRANCH   1   6
BRANCH   1   8
ATOM      8  C   LIG    1       25.725 -12.583   2.947  0.00  0.00    +0.167 C 
BRANCH   8  10
ATOM      9  O   LIG    1       23.691 -11.645   3.828  0.00  0.00    -0.251 OA
ATOM     10  C   LIG    1       24.240 -12.401   3.051  0.00  0.00    +0.308 C 
BRANCH  10  11
ATOM     11  O   LIG    1       23.551 -13.227   2.242  0.00  0.00    -0.480 OA
ATOM     12  H   LIG    1       22.645 -12.857   2.175  0.00  0.00    +0.295 HD
ENDBRANCH  10  11
ENDBRANCH   8  10
ENDBRANCH   1   8
BRANCH   1  13
ATOM     13  C   LIG    1       26.812 -14.820   2.882  0.00  0.00    +0.167 C 
BRANCH  13  14
ATOM     14  C   LIG    1       26.856 -16.240   3.393  0.00  0.00    +0.308 C 
ATOM     15  O   LIG    1       25.933 -17.024   3.214  0.00  0.00    -0.251 OA
BRANCH  14  16
ATOM     16  O   LIG    1       27.916 -16.561   4.159  0.00  0.00    -0.480 OA
ATOM     17  H   LIG    1       27.883 -17.464   4.543  0.00  0.00    +0.295 HD
ENDBRANCH  14  16
ENDBRANCH  13  14
ENDBRANCH   1  13
TORSDOF 9
ENDMDL
MODEL 4
REMARK VINA RESULT:      -4.4      1.283      3.789
REMARK  Name = *****
REMARK                            x       y       z     vdW  Elec       q    Type
REMARK                         _______ _______ _______ _____ _____    ______ ____
ROOT
ATOM      1  C   LIG    1       26.505 -13.958   3.522  0.00  0.00    +0.182 C 
ENDROOT
BRANCH   1   2
ATOM      2  C   LIG    1       26.722 -15.480   3.516  0.00  0.00    +0.338 C 
ATOM      3  O   LIG    1       25.930 -16.288   3.049  0.00  0.00    -0.248 OA
BRANCH   2   4
ATOM      4  O   LIG    1       27.896 -15.850   4.075  0.00  0.00    -0.479 OA
ATOM      5  H   LIG    1       28.612 -15.946   3.410  0.00  0.00    +0.295 HD
ENDBRANCH   2   4
ENDBRANCH   1   2
BRANCH   1   6
ATOM      6  O   LIG    1       25.524 -13.613   4.527  0.00  0.00    -0.377 OA
ATOM      7  H   LIG    1       25.864 -13.962   5.388  0.00  0.00    +0.211 HD
ENDBRANCH   1   6
BRANCH   1   8
ATOM      8  C   LIG    1       27.849 -13.228   3.771  0.00  0.00    +0.167 C 
BRANCH   8  10
ATOM      9  O   LIG    1       27.514 -13.508   6.137  0.00  0.00    -0.251 OA
ATOM     10  C   LIG    1       28.072 -12.933   5.224  0.00  0.00    +0.308 C 
BRANCH  10  11
ATOM     11  O   LIG    1       28.907 -11.898   5.429  0.00  0.00    -0.480 OA
ATOM     12  H   LIG    1       29.495 -11.857   4.646  0.00  0.00    +0.295 HD
ENDBRANCH  10  11
ENDBRANCH   8  10
ENDBRANCH   1   8
BRANCH   1  13
ATOM     13  C   LIG    1       25.976 -13.499   2.156  0.00  0.00    +0.167 C 
BRANCH  13  14
ATOM     14  C   LIG    1       24.699 -12.694   2.148  0.00  0.00    +0.308 C 
ATOM     15  O   LIG    1       24.676 -11.516   1.815  0.00  0.00    -0.251 OA
BRANCH  14  16
ATOM     16  O   LIG    1       23.607 -13.309   2.641  0.00  0.00    -0.480 OA
ATOM     17  H   LIG    1       22.983 -13.639   1.960  0.00  0.00    +0.295 HD
ENDBRANCH  14  16
ENDBRANCH  13  14
ENDBRANCH   1  13
TORSDOF 9
ENDMDL
MODEL 5
REMARK VINA RESULT:      -4.4      1.601      2.190
REMARK  Name = *****
REMARK                            x       y       z     vdW  Elec       q    Type
REMARK                         _______ _______ _______ _____ _____    ______ ____
ROOT
ATOM      1  C   LIG    1       25.929 -13.732   3.990  0.00  0.00    +0.182 C 
ENDROOT
BRANCH   1   2
ATOM      2  C   LIG    1       26.106 -13.259   2.538  0.00  0.00    +0.338 C 
ATOM      3  O   LIG    1       25.588 -12.253   2.073  0.00  0.00    -0.248 OA
BRANCH   2   4
ATOM      4  O   LIG    1       26.911 -14.067   1.812  0.00  0.00    -0.479 OA
ATOM      5  H   LIG    1       27.862 -13.900   1.987  0.00  0.00    +0.295 HD
ENDBRANCH   2   4
ENDBRANCH   1   2
BRANCH   1   6
ATOM      6  O   LIG    1       25.328 -12.675   4.773  0.00  0.00    -0.377 OA
ATOM      7  H   LIG    1       26.058 -12.253   5.290  0.00  0.00    +0.211 HD
ENDBRANCH   1   6
BRANCH   1   8
ATOM      8  C   LIG    1       25.073 -15.022   4.031  0.00  0.00    +0.167 C 
BRANCH   8  10
ATOM      9  O   LIG    1       22.803 -15.312   4.775  0.00  0.00    -0.251 OA
ATOM     10  C   LIG    1       23.603 -14.725   4.075  0.00  0.00    +0.308 C 
BRANCH  10  11
ATOM     11  O   LIG    1       23.231 -13.780   3.193  0.00  0.00    -0.480 OA
ATOM     12  H   LIG    1       23.899 -13.065   3.253  0.00  0.00    +0.295 HD
ENDBRANCH  10  11
ENDBRANCH   8  10
ENDBRANCH   1   8
BRANCH   1  13
ATOM     13  C   LIG    1       27.297 -14.065   4.603  0.00  0.00    +0.167 C 
BRANCH  13  14
ATOM     14  C   LIG    1       28.361 -12.997   4.531  0.00  0.00    +0.308 C 
ATOM     15  O   LIG    1       29.218 -12.992   3.657  0.00  0.00    -0.251 OA
BRANCH  14  16
ATOM     16  O   LIG    1       28.388 -12.117   5.551  0.00  0.00    -0.480 OA
ATOM     17  H   LIG    1       28.844 -11.272   5.348  0.00  0.00    +0.295 HD
ENDBRANCH  14  16
ENDBRANCH  13  14
ENDBRANCH   1  13
TORSDOF 9
ENDMDL
MODEL 6
REMARK VINA RESULT:      -4.3      0.770      4.098
REMARK  Name = *****
REMARK                            x       y       z     vdW  Elec       q    Type
REMARK                         _______ _______ _______ _____ _____    ______ ____
ROOT
ATOM      1  C   LIG    1       25.883 -13.724   3.452  0.00  0.00    +0.182 C 
ENDROOT
BRANCH   1   2
ATOM      2  C   LIG    1       24.698 -12.800   3.127  0.00  0.00    +0.338 C 
ATOM      3  O   LIG    1       24.094 -12.136   3.958  0.00  0.00    -0.248 OA
BRANCH   2   4
ATOM      4  O   LIG    1       24.387 -12.781   1.812  0.00  0.00    -0.479 OA
ATOM      5  H   LIG    1       23.688 -12.123   1.604  0.00  0.00    +0.295 HD
ENDBRANCH   2   4
ENDBRANCH   1   2
BRANCH   1   6
ATOM      6  O   LIG    1       26.806 -13.737   2.338  0.00  0.00    -0.377 OA
ATOM      7  H   LIG    1       26.287 -13.480   1.537  0.00  0.00    +0.211 HD
ENDBRANCH   1   6
BRANCH   1   8
ATOM      8  C   LIG    1       26.580 -13.259   4.757  0.00  0.00    +0.167 C 
BRANCH   8  10
ATOM      9  O   LIG    1       28.728 -13.417   3.685  0.00  0.00    -0.251 OA
ATOM     10  C   LIG    1       28.023 -12.914   4.536  0.00  0.00    +0.308 C 
BRANCH  10  11
ATOM     11  O   LIG    1       28.497 -12.033   5.436  0.00  0.00    -0.480 OA
ATOM     12  H   LIG    1       27.815 -11.334   5.525  0.00  0.00    +0.295 HD
ENDBRANCH  10  11
ENDBRANCH   8  10
ENDBRANCH   1   8
BRANCH   1  13
ATOM     13  C   LIG    1       25.384 -15.157   3.680  0.00  0.00    +0.167 C 
BRANCH  13  14
ATOM     14  C   LIG    1       26.361 -16.277   3.413  0.00  0.00    +0.308 C 
ATOM     15  O   LIG    1       26.000 -17.364   2.980  0.00  0.00    -0.251 OA
BRANCH  14  16
ATOM     16  O   LIG    1       27.635 -16.054   3.787  0.00  0.00    -0.480 OA
ATOM     17  H   LIG    1       28.078 -16.823   4.206  0.00  0.00    +0.295 HD
ENDBRANCH  14  16
ENDBRANCH  13  14
ENDBRANCH   1  13
TORSDOF 9
ENDMDL
MODEL 7
REMARK VINA RESULT:      -4.1      1.062      3.497
REMARK  Name = *****
REMARK                            x       y       z     vdW  Elec       q    Type
REMARK                         _______ _______ _______ _____ _____    ______ ____
ROOT
ATOM      1  C   LIG    1       26.034 -13.501   3.512  0.00  0.00    +0.182 C 
ENDROOT
BRANCH   1   2
ATOM      2  C   LIG    1       24.672 -12.847   3.228  0.00  0.00    +0.338 C 
ATOM      3  O   LIG    1       23.963 -12.331   4.082  0.00  0.00    -0.248 OA
BRANCH   2   4
ATOM      4  O   LIG    1       24.329 -12.886   1.921  0.00  0.00    -0.479 OA
ATOM      5  H   LIG    1       23.742 -12.140   1.668  0.00  0.00    +0.295 HD
ENDBRANCH   2   4
ENDBRANCH   1   2
BRANCH   1   6
ATOM      6  O   LIG    1       26.082 -13.938   4.891  0.00  0.00    -0.377 OA
ATOM      7  H   LIG    1       25.680 -13.215   5.432  0.00  0.00    +0.211 HD
ENDBRANCH   1   6
BRANCH   1   8
ATOM      8  C   LIG    1       26.275 -14.680   2.537  0.00  0.00    +0.167 C 
BRANCH   8  10
ATOM      9  O   LIG    1       25.922 -16.947   3.265  0.00  0.00    -0.251 OA
ATOM     10  C   LIG    1       26.617 -15.950   3.258  0.00  0.00    +0.308 C 
BRANCH  10  11
ATOM     11  O   LIG    1       27.751 -15.859   3.975  0.00  0.00    -0.480 OA
ATOM     12  H   LIG    1       27.555 -15.265   4.730  0.00  0.00    +0.295 HD
ENDBRANCH  10  11
ENDBRANCH   8  10
ENDBRANCH   1   8
BRANCH   1  13
ATOM     13  C   LIG    1       27.161 -12.482   3.293  0.00  0.00    +0.167 C 
BRANCH  13  14
ATOM     14  C   LIG    1       28.462 -12.728   4.017  0.00  0.00    +0.308 C 
ATOM     15  O   LIG    1       28.677 -12.283   5.137  0.00  0.00    -0.251 OA
BRANCH  14  16
ATOM     16  O   LIG    1       29.420 -13.365   3.315  0.00  0.00    -0.480 OA
ATOM     17  H   LIG    1       30.307 -13.354   3.733  0.00  0.00    +0.295 HD
ENDBRANCH  14  16
ENDBRANCH  13  14
ENDBRANCH   1  13
TORSDOF 9
ENDMDL
MODEL 8
REMARK VINA RESULT:      -3.9      5.556      7.476
REMARK  Name = *****
REMARK                            x       y       z     vdW  Elec       q    Type
REMARK                         _______ _______ _______ _____ _____    ______ ____
ROOT
ATOM      1  C   LIG    1       24.324 -20.544   5.099  0.00  0.00    +0.182 C 
ENDROOT
BRANCH   1   2
ATOM      2  C   LIG    1       23.058 -21.113   5.759  0.00  0.00    +0.338 C 
ATOM      3  O   LIG    1       21.971 -21.201   5.203  0.00  0.00    -0.248 OA
BRANCH   2   4
ATOM      4  O   LIG    1       23.262 -21.525   7.030  0.00  0.00    -0.479 OA
ATOM      5  H   LIG    1       22.421 -21.680   7.512  0.00  0.00    +0.295 HD
ENDBRANCH   2   4
ENDBRANCH   1   2
BRANCH   1   6
ATOM      6  O   LIG    1       24.956 -21.572   4.300  0.00  0.00    -0.377 OA
ATOM      7  H   LIG    1       25.583 -22.050   4.897  0.00  0.00    +0.211 HD
ENDBRANCH   1   6
BRANCH   1   8
ATOM      8  C   LIG    1       23.968 -19.303   4.243  0.00  0.00    +0.167 C 
BRANCH   8  10
ATOM      9  O   LIG    1       25.524 -17.672   3.399  0.00  0.00    -0.251 OA
ATOM     10  C   LIG    1       25.134 -18.822   3.430  0.00  0.00    +0.308 C 
BRANCH  10  11
ATOM     11  O   LIG    1       25.674 -19.787   2.663  0.00  0.00    -0.480 OA
ATOM     12  H   LIG    1       25.993 -20.483   3.276  0.00  0.00    +0.295 HD
ENDBRANCH  10  11
ENDBRANCH   8  10
ENDBRANCH   1   8
BRANCH   1  13
ATOM     13  C   LIG    1       25.320 -20.093   6.176  0.00  0.00    +0.167 C 
BRANCH  13  14
ATOM     14  C   LIG    1       26.686 -20.735   6.162  0.00  0.00    +0.308 C 
ATOM     15  O   LIG    1       27.057 -21.494   7.049  0.00  0.00    -0.251 OA
BRANCH  14  16
ATOM     16  O   LIG    1       27.520 -20.334   5.183  0.00  0.00    -0.480 OA
ATOM     17  H   LIG    1       27.116 -20.310   4.288  0.00  0.00    +0.295 HD
ENDBRANCH  14  16
ENDBRANCH  13  14
ENDBRANCH   1  13
TORSDOF 9
ENDMDL
MODEL 9
REMARK VINA RESULT:      -3.7      5.206      7.100
REMARK  Name = *****
REMARK                            x       y       z     vdW  Elec       q    Type
REMARK                         _______ _______ _______ _____ _____    ______ ____
ROOT
ATOM      1  C   LIG    1       24.596 -20.250   4.213  0.00  0.00    +0.182 C 
ENDROOT
BRANCH   1   2
ATOM      2  C   LIG    1       25.737 -20.296   5.241  0.00  0.00    +0.338 C 
ATOM      3  O   LIG    1       25.580 -20.507   6.437  0.00  0.00    -0.248 OA
BRANCH   2   4
ATOM      4  O   LIG    1       26.955 -20.090   4.692  0.00  0.00    -0.479 OA
ATOM      5  H   LIG    1       27.259 -19.163   4.796  0.00  0.00    +0.295 HD
ENDBRANCH   2   4
ENDBRANCH   1   2
BRANCH   1   6
ATOM      6  O   LIG    1       24.384 -21.572   3.664  0.00  0.00    -0.377 OA
ATOM      7  H   LIG    1       25.279 -21.944   3.470  0.00  0.00    +0.211 HD
ENDBRANCH   1   6
BRANCH   1   8
ATOM      8  C   LIG    1       23.306 -19.699   4.871  0.00  0.00    +0.167 C 
BRANCH   8  10
ATOM      9  O   LIG    1       21.320 -21.045   4.684  0.00  0.00    -0.251 OA
ATOM     10  C   LIG    1       22.358 -20.794   5.262  0.00  0.00    +0.308 C 
BRANCH  10  11
ATOM     11  O   LIG    1       22.732 -21.438   6.383  0.00  0.00    -0.480 OA
ATOM     12  H   LIG    1       22.335 -20.945   7.132  0.00  0.00    +0.295 HD
ENDBRANCH  10  11
ENDBRANCH   8  10
ENDBRANCH   1   8
BRANCH   1  13
ATOM     13  C   LIG    1       24.966 -19.305   3.061  0.00  0.00    +0.167 C 
BRANCH  13  14
ATOM     14  C   LIG    1       25.281 -17.873   3.419  0.00  0.00    +0.308 C 
ATOM     15  O   LIG    1       24.405 -17.064   3.695  0.00  0.00    -0.251 OA
BRANCH  14  16
ATOM     16  O   LIG    1       26.572 -17.504   3.303  0.00  0.00    -0.480 OA
ATOM     17  H   LIG    1       27.151 -18.172   2.878  0.00  0.00    +0.295 HD
ENDBRANCH  14  16
ENDBRANCH  13  14
ENDBRANCH   1  13
TORSDOF 9
ENDMDL
