MODEL 1
REMARK VINA RESULT:      -4.6      0.000      0.000
REMARK  Name = *****
REMARK                            x       y       z     vdW  Elec       q    Type
REMARK                         _______ _______ _______ _____ _____    ______ ____
ROOT
ATOM      1  C   LIG    1       24.545 -16.941   3.735  0.00  0.00    +0.080 A 
ATOM      2  C   LIG    1       23.351 -16.507   4.333  0.00  0.00    +0.134 A 
ATOM      3  C   LIG    1       23.133 -15.121   4.491  0.00  0.00    +0.071 A 
ATOM      4  C   LIG    1       24.080 -14.158   4.094  0.00  0.00    +0.053 A 
ATOM      5  C   LIG    1       25.219 -14.612   3.421  0.00  0.00    +0.110 A 
ATOM      6  C   LIG    1       25.447 -15.981   3.252  0.00  0.00    +0.045 A 
ENDROOT
BRANCH   1   9
ATOM      7  N   LIG    1       24.045 -19.327   3.349  0.00  0.00    -0.310 N 
ATOM      8  H   LIG    1       23.082 -19.046   3.205  0.00  0.00    +0.149 HD
ATOM      9  C   LIG    1       24.996 -18.355   3.546  0.00  0.00    +0.248 C 
ATOM     10  O   LIG    1       26.192 -18.624   3.633  0.00  0.00    -0.270 OA
BRANCH   7  11
ATOM     11  C   LIG    1       24.400 -20.744   3.340  0.00  0.00    +0.123 C 
BRANCH  11  13
ATOM     12  N   LIG    1       24.925 -20.873   5.840  0.00  0.00    -0.298 NA
ATOM     13  C   LIG    1       24.167 -21.447   4.697  0.00  0.00    +0.074 C 
ATOM     14  C   LIG    1       22.723 -21.258   5.158  0.00  0.00    +0.021 C 
ATOM     15  C   LIG    1       22.762 -21.568   6.638  0.00  0.00    +0.017 C 
ATOM     16  C   LIG    1       24.190 -21.254   7.058  0.00  0.00    +0.085 C 
BRANCH  12  18
ATOM     17  C   LIG    1       27.207 -20.501   6.818  0.00  0.00    +0.020 C 
ATOM     18  C   LIG    1       26.324 -21.333   5.883  0.00  0.00    +0.081 C 
ENDBRANCH  12  18
ENDBRANCH  11  13
ENDBRANCH   7  11
ENDBRANCH   1   9
BRANCH   4  19
ATOM     19  N   LIG    1       23.726 -12.800   4.180  0.00  0.00    -0.356 N 
ATOM     20  H   LIG    1       23.954 -12.366   5.071  0.00  0.00    +0.142 HD
ATOM     21  H   LIG    1       24.104 -12.227   3.422  0.00  0.00    +0.142 HD
ENDBRANCH   4  19
BRANCH   5  22
ATOM     22  S   LIG    1       26.481 -13.508   2.843  0.00  0.00    -0.002 S 
ATOM     23  O   LIG    1       25.862 -12.248   2.500  0.00  0.00    -0.169 OA
ATOM     24  O   LIG    1       27.242 -14.258   1.847  0.00  0.00    -0.169 OA
BRANCH  22  25
ATOM     25  C   LIG    1       27.519 -13.243   4.258  0.00  0.00    +0.168 C 
ATOM     26  C   LIG    1       28.920 -12.851   3.841  0.00  0.00    +0.028 C 
ENDBRANCH  22  25
ENDBRANCH   5  22
BRANCH   2  27
ATOM     27  O   LIG    1       22.451 -17.455   4.758  0.00  0.00    -0.494 OA
ATOM     28  C   LIG    1       21.521 -17.923   3.779  0.00  0.00    +0.277 C 
ENDBRANCH   2  27
TORSDOF 8
ENDMDL
MODEL 2
REMARK VINA RESULT:      -4.3      1.797      3.028
REMARK  Name = *****
REMARK                            x       y       z     vdW  Elec       q    Type
REMARK                         _______ _______ _______ _____ _____    ______ ____
ROOT
ATOM      1  C   LIG    1       25.970 -16.897   3.770  0.00  0.00    +0.080 A 
ATOM      2  C   LIG    1       27.341 -16.856   4.075  0.00  0.00    +0.134 A 
ATOM      3  C   LIG    1       28.006 -15.612   4.054  0.00  0.00    +0.071 A 
ATOM      4  C   LIG    1       27.352 -14.412   3.713  0.00  0.00    +0.053 A 
ATOM      5  C   LIG    1       25.971 -14.467   3.502  0.00  0.00    +0.110 A 
ATOM      6  C   LIG    1       25.296 -15.692   3.525  0.00  0.00    +0.045 A 
ENDROOT
BRANCH   1   9
ATOM      7  N   LIG    1       25.703 -19.350   3.731  0.00  0.00    -0.310 N 
ATOM      8  H   LIG    1       26.685 -19.407   3.980  0.00  0.00    +0.149 HD
ATOM      9  C   LIG    1       25.107 -18.115   3.665  0.00  0.00    +0.248 C 
ATOM     10  O   LIG    1       23.902 -17.984   3.462  0.00  0.00    -0.270 OA
BRANCH   7  11
ATOM     11  C   LIG    1       24.950 -20.571   3.454  0.00  0.00    +0.123 C 
BRANCH  11  13
ATOM     12  N   LIG    1       25.018 -20.790   6.001  0.00  0.00    -0.298 NA
ATOM     13  C   LIG    1       24.427 -21.274   4.728  0.00  0.00    +0.074 C 
ATOM     14  C   LIG    1       22.944 -20.968   4.938  0.00  0.00    +0.021 C 
ATOM     15  C   LIG    1       22.699 -21.306   6.392  0.00  0.00    +0.017 C 
ATOM     16  C   LIG    1       24.053 -21.126   7.062  0.00  0.00    +0.085 C 
BRANCH  12  18
ATOM     17  C   LIG    1       27.268 -20.436   7.058  0.00  0.00    +0.020 C 
ATOM     18  C   LIG    1       26.345 -21.371   6.270  0.00  0.00    +0.081 C 
ENDBRANCH  12  18
ENDBRANCH  11  13
ENDBRANCH   7  11
ENDBRANCH   1   9
BRANCH   4  19
ATOM     19  N   LIG    1       28.064 -13.206   3.836  0.00  0.00    -0.356 N 
ATOM     20  H   LIG    1       28.439 -13.036   4.766  0.00  0.00    +0.142 HD
ATOM     21  H   LIG    1       28.812 -13.097   3.147  0.00  0.00    +0.142 HD
ENDBRANCH   4  19
BRANCH   5  22
ATOM     22  S   LIG    1       25.016 -13.030   3.091  0.00  0.00    -0.002 S 
ATOM     23  O   LIG    1       23.700 -13.460   2.677  0.00  0.00    -0.169 OA
ATOM     24  O   LIG    1       25.855 -12.237   2.196  0.00  0.00    -0.169 OA
BRANCH  22  25
ATOM     25  C   LIG    1       24.850 -12.155   4.625  0.00  0.00    +0.168 C 
ATOM     26  C   LIG    1       23.516 -11.447   4.708  0.00  0.00    +0.028 C 
ENDBRANCH  22  25
ENDBRANCH   5  22
BRANCH   2  27
ATOM     27  O   LIG    1       27.981 -18.037   4.363  0.00  0.00    -0.494 OA
ATOM     28  C   LIG    1       29.156 -17.935   5.171  0.00  0.00    +0.277 C 
ENDBRANCH   2  27
TORSDOF 8
ENDMDL
MODEL 3
REMARK VINA RESULT:      -3.2      2.734      7.326
REMARK  Name = *****
REMARK                            x       y       z     vdW  Elec       q    Type
REMARK                         _______ _______ _______ _____ _____    ______ ____
ROOT
ATOM      1  C   LIG    1       26.628 -17.905   4.149  0.00  0.00    +0.080 A 
ATOM      2  C   LIG    1       27.558 -18.580   4.957  0.00  0.00    +0.134 A 
ATOM      3  C   LIG    1       27.166 -19.780   5.589  0.00  0.00    +0.071 A 
ATOM      4  C   LIG    1       25.868 -20.312   5.461  0.00  0.00    +0.053 A 
ATOM      5  C   LIG    1       24.992 -19.669   4.581  0.00  0.00    +0.110 A 
ATOM      6  C   LIG    1       25.367 -18.483   3.943  0.00  0.00    +0.045 A 
ENDROOT
BRANCH   1   9
ATOM      7  N   LIG    1       27.752 -15.716   3.961  0.00  0.00    -0.310 N 
ATOM      8  H   LIG    1       28.372 -16.032   4.699  0.00  0.00    +0.149 HD
ATOM      9  C   LIG    1       26.822 -16.592   3.459  0.00  0.00    +0.248 C 
ATOM     10  O   LIG    1       26.106 -16.302   2.502  0.00  0.00    -0.270 OA
BRANCH   7  11
ATOM     11  C   LIG    1       27.863 -14.352   3.449  0.00  0.00    +0.123 C 
BRANCH  11  13
ATOM     12  N   LIG    1       25.477 -13.440   3.331  0.00  0.00    -0.298 NA
ATOM     13  C   LIG    1       26.794 -13.391   4.017  0.00  0.00    +0.074 C 
ATOM     14  C   LIG    1       26.417 -13.792   5.443  0.00  0.00    +0.021 C 
ATOM     15  C   LIG    1       25.094 -13.099   5.684  0.00  0.00    +0.017 C 
ATOM     16  C   LIG    1       24.486 -12.937   4.298  0.00  0.00    +0.085 C 
BRANCH  12  18
ATOM     17  C   LIG    1       24.185 -11.830   1.903  0.00  0.00    +0.020 C 
ATOM     18  C   LIG    1       25.458 -12.664   2.080  0.00  0.00    +0.081 C 
ENDBRANCH  12  18
ENDBRANCH  11  13
ENDBRANCH   7  11
ENDBRANCH   1   9
BRANCH   4  19
ATOM     19  N   LIG    1       25.605 -21.571   6.028  0.00  0.00    -0.356 N 
ATOM     20  H   LIG    1       26.416 -22.016   6.450  0.00  0.00    +0.142 HD
ATOM     21  H   LIG    1       24.836 -21.567   6.701  0.00  0.00    +0.142 HD
ENDBRANCH   4  19
BRANCH   5  22
ATOM     22  S   LIG    1       23.337 -20.245   4.303  0.00  0.00    -0.002 S 
ATOM     23  O   LIG    1       22.676 -20.363   5.583  0.00  0.00    -0.169 OA
ATOM     24  O   LIG    1       23.459 -21.400   3.419  0.00  0.00    -0.169 OA
BRANCH  22  25
ATOM     25  C   LIG    1       22.557 -18.930   3.402  0.00  0.00    +0.168 C 
ATOM     26  C   LIG    1       21.499 -18.247   4.240  0.00  0.00    +0.028 C 
ENDBRANCH  22  25
ENDBRANCH   5  22
BRANCH   2  27
ATOM     27  O   LIG    1       28.808 -18.031   5.113  0.00  0.00    -0.494 OA
ATOM     28  C   LIG    1       29.474 -18.324   6.343  0.00  0.00    +0.277 C 
ENDBRANCH   2  27
TORSDOF 8
ENDMDL
