MODEL 1
REMARK VINA RESULT:      -7.6      0.000      0.000
REMARK  Name = *****
REMARK                            x       y       z     vdW  Elec       q    Type
REMARK                         _______ _______ _______ _____ _____    ______ ____
ROOT
ATOM      1  C   LIG    1       24.421 -21.721   7.109  0.00  0.00    +0.023 C 
ENDROOT
BRANCH   1   2
ATOM      2  C   LIG    1       24.127 -20.771   5.945  0.00  0.00    -0.041 A 
ATOM      3  C   LIG    1       25.098 -20.421   4.991  0.00  0.00    +0.049 A 
ATOM      4  C   LIG    1       24.784 -19.522   3.963  0.00  0.00    +0.117 A 
ATOM      5  C   LIG    1       23.514 -18.973   3.853  0.00  0.00    +0.045 A 
ATOM      6  C   LIG    1       22.541 -19.314   4.789  0.00  0.00    +0.004 A 
ATOM      7  C   LIG    1       22.848 -20.206   5.827  0.00  0.00    +0.004 A 
BRANCH   4   8
ATOM      8  O   LIG    1       25.762 -19.206   3.072  0.00  0.00    -0.507 OA
ATOM      9  H   LIG    1       25.455 -19.422   2.178  0.00  0.00    +0.292 HD
ENDBRANCH   4   8
ENDBRANCH   1   2
BRANCH   1  11
ATOM     10  C   LIG    1       26.033 -20.555   8.755  0.00  0.00    +0.004 C 
ATOM     11  C   LIG    1       25.888 -21.541   7.600  0.00  0.00    +0.005 C 
ENDBRANCH   1  11
BRANCH   1  12
ATOM     12  C   LIG    1       24.103 -23.230   6.796  0.00  0.00    +0.007 C 
ATOM     13  C   LIG    1       22.577 -23.462   6.758  0.00  0.00    +0.009 C 
BRANCH  12  14
ATOM     14  C   LIG    1       24.744 -23.731   5.463  0.00  0.00    +0.087 C 
BRANCH  14  15
ATOM     15  N   LIG    1       25.383 -25.069   5.508  0.00  0.00    -0.308 NA
ATOM     16  C   LIG    1       24.460 -26.154   5.172  0.00  0.00    +0.104 C 
ATOM     17  C   LIG    1       25.939 -25.312   6.846  0.00  0.00    +0.104 C 
ENDBRANCH  14  15
ENDBRANCH  12  14
ENDBRANCH   1  12
TORSDOF 6
ENDMDL
MODEL 2
REMARK VINA RESULT:      -7.4      2.474      3.921
REMARK  Name = *****
REMARK                            x       y       z     vdW  Elec       q    Type
REMARK                         _______ _______ _______ _____ _____    ______ ____
ROOT
ATOM      1  C   LIG    1       26.037 -21.550   6.460  0.00  0.00    +0.023 C 
ENDROOT
BRANCH   1   2
ATOM      2  C   LIG    1       25.273 -20.658   5.476  0.00  0.00    -0.041 A 
ATOM      3  C   LIG    1       25.924 -19.799   4.574  0.00  0.00    +0.049 A 
ATOM      4  C   LIG    1       25.175 -18.982   3.716  0.00  0.00    +0.117 A 
ATOM      5  C   LIG    1       23.788 -19.012   3.725  0.00  0.00    +0.045 A 
ATOM      6  C   LIG    1       23.131 -19.862   4.611  0.00  0.00    +0.004 A 
ATOM      7  C   LIG    1       23.870 -20.677   5.480  0.00  0.00    +0.004 A 
BRANCH   4   8
ATOM      8  O   LIG    1       25.852 -18.159   2.870  0.00  0.00    -0.507 OA
ATOM      9  H   LIG    1       26.108 -17.356   3.349  0.00  0.00    +0.292 HD
ENDBRANCH   4   8
ENDBRANCH   1   2
BRANCH   1  11
ATOM     10  C   LIG    1       25.526 -24.030   6.960  0.00  0.00    +0.004 C 
ATOM     11  C   LIG    1       25.074 -22.582   7.117  0.00  0.00    +0.005 C 
ENDBRANCH   1  11
BRANCH   1  12
ATOM     12  C   LIG    1       26.848 -20.751   7.547  0.00  0.00    +0.007 C 
ATOM     13  C   LIG    1       26.014 -20.601   8.838  0.00  0.00    +0.009 C 
BRANCH  12  14
ATOM     14  C   LIG    1       28.228 -21.398   7.885  0.00  0.00    +0.087 C 
BRANCH  14  15
ATOM     15  N   LIG    1       29.356 -20.458   8.094  0.00  0.00    -0.308 NA
ATOM     16  C   LIG    1       29.705 -19.708   6.886  0.00  0.00    +0.104 C 
ATOM     17  C   LIG    1       30.540 -21.192   8.559  0.00  0.00    +0.104 C 
ENDBRANCH  14  15
ENDBRANCH  12  14
ENDBRANCH   1  12
TORSDOF 6
ENDMDL
MODEL 3
REMARK VINA RESULT:      -7.3      1.097      1.624
REMARK  Name = *****
REMARK                            x       y       z     vdW  Elec       q    Type
REMARK                         _______ _______ _______ _____ _____    ______ ____
ROOT
ATOM      1  C   LIG    1       24.438 -21.678   7.091  0.00  0.00    +0.023 C 
ENDROOT
BRANCH   1   2
ATOM      2  C   LIG    1       24.243 -20.732   5.903  0.00  0.00    -0.041 A 
ATOM      3  C   LIG    1       23.012 -20.117   5.621  0.00  0.00    +0.049 A 
ATOM      4  C   LIG    1       22.881 -19.283   4.502  0.00  0.00    +0.117 A 
ATOM      5  C   LIG    1       23.957 -19.035   3.662  0.00  0.00    +0.045 A 
ATOM      6  C   LIG    1       25.184 -19.634   3.932  0.00  0.00    +0.004 A 
ATOM      7  C   LIG    1       25.324 -20.477   5.044  0.00  0.00    +0.004 A 
BRANCH   4   8
ATOM      8  O   LIG    1       21.664 -18.721   4.265  0.00  0.00    -0.507 OA
ATOM      9  H   LIG    1       21.413 -18.889   3.344  0.00  0.00    +0.292 HD
ENDBRANCH   4   8
ENDBRANCH   1   2
BRANCH   1  11
ATOM     10  C   LIG    1       26.013 -20.540   8.790  0.00  0.00    +0.004 C 
ATOM     11  C   LIG    1       25.883 -21.551   7.655  0.00  0.00    +0.005 C 
ENDBRANCH   1  11
BRANCH   1  12
ATOM     12  C   LIG    1       24.076 -23.178   6.777  0.00  0.00    +0.007 C 
ATOM     13  C   LIG    1       22.544 -23.366   6.748  0.00  0.00    +0.009 C 
BRANCH  12  14
ATOM     14  C   LIG    1       24.694 -23.694   5.439  0.00  0.00    +0.087 C 
BRANCH  14  15
ATOM     15  N   LIG    1       25.342 -25.028   5.492  0.00  0.00    -0.308 NA
ATOM     16  C   LIG    1       24.418 -26.123   5.194  0.00  0.00    +0.104 C 
ATOM     17  C   LIG    1       25.930 -25.246   6.820  0.00  0.00    +0.104 C 
ENDBRANCH  14  15
ENDBRANCH  12  14
ENDBRANCH   1  12
TORSDOF 6
ENDMDL
MODEL 4
REMARK VINA RESULT:      -7.2      2.748      4.359
REMARK  Name = *****
REMARK                            x       y       z     vdW  Elec       q    Type
REMARK                         _______ _______ _______ _____ _____    ______ ____
ROOT
ATOM      1  C   LIG    1       26.146 -21.562   6.525  0.00  0.00    +0.023 C 
ENDROOT
BRANCH   1   2
ATOM      2  C   LIG    1       25.279 -20.747   5.561  0.00  0.00    -0.041 A 
ATOM      3  C   LIG    1       23.875 -20.760   5.613  0.00  0.00    +0.049 A 
ATOM      4  C   LIG    1       23.129 -20.019   4.686  0.00  0.00    +0.117 A 
ATOM      5  C   LIG    1       23.753 -19.251   3.714  0.00  0.00    +0.045 A 
ATOM      6  C   LIG    1       25.144 -19.225   3.654  0.00  0.00    +0.004 A 
ATOM      7  C   LIG    1       25.899 -19.969   4.571  0.00  0.00    +0.004 A 
BRANCH   4   8
ATOM      8  O   LIG    1       21.772 -20.075   4.771  0.00  0.00    -0.507 OA
ATOM      9  H   LIG    1       21.485 -20.991   4.636  0.00  0.00    +0.292 HD
ENDBRANCH   4   8
ENDBRANCH   1   2
BRANCH   1  11
ATOM     10  C   LIG    1       25.617 -24.065   6.873  0.00  0.00    +0.004 C 
ATOM     11  C   LIG    1       25.284 -22.628   7.263  0.00  0.00    +0.005 C 
ENDBRANCH   1  11
BRANCH   1  12
ATOM     12  C   LIG    1       26.966 -20.685   7.543  0.00  0.00    +0.007 C 
ATOM     13  C   LIG    1       26.183 -20.519   8.863  0.00  0.00    +0.009 C 
BRANCH  12  14
ATOM     14  C   LIG    1       28.388 -21.257   7.844  0.00  0.00    +0.087 C 
BRANCH  14  15
ATOM     15  N   LIG    1       29.409 -20.272   8.278  0.00  0.00    -0.308 NA
ATOM     16  C   LIG    1       29.592 -19.180   7.322  0.00  0.00    +0.104 C 
ATOM     17  C   LIG    1       30.697 -20.946   8.486  0.00  0.00    +0.104 C 
ENDBRANCH  14  15
ENDBRANCH  12  14
ENDBRANCH   1  12
TORSDOF 6
ENDMDL
MODEL 5
REMARK VINA RESULT:      -7.1      1.674      3.205
REMARK  Name = *****
REMARK                            x       y       z     vdW  Elec       q    Type
REMARK                         _______ _______ _______ _____ _____    ______ ____
ROOT
ATOM      1  C   LIG    1       24.631 -21.670   5.964  0.00  0.00    +0.023 C 
ENDROOT
BRANCH   1   2
ATOM      2  C   LIG    1       26.046 -21.185   6.294  0.00  0.00    -0.041 A 
ATOM      3  C   LIG    1       26.703 -20.202   5.536  0.00  0.00    +0.049 A 
ATOM      4  C   LIG    1       28.010 -19.817   5.864  0.00  0.00    +0.117 A 
ATOM      5  C   LIG    1       28.675 -20.382   6.944  0.00  0.00    +0.045 A 
ATOM      6  C   LIG    1       28.032 -21.354   7.706  0.00  0.00    +0.004 A 
ATOM      7  C   LIG    1       26.728 -21.752   7.381  0.00  0.00    +0.004 A 
BRANCH   4   8
ATOM      8  O   LIG    1       28.609 -18.870   5.093  0.00  0.00    -0.507 OA
ATOM      9  H   LIG    1       28.312 -17.994   5.384  0.00  0.00    +0.292 HD
ENDBRANCH   4   8
ENDBRANCH   1   2
BRANCH   1  11
ATOM     10  C   LIG    1       22.762 -19.918   5.647  0.00  0.00    +0.004 C 
ATOM     11  C   LIG    1       23.570 -20.750   6.636  0.00  0.00    +0.005 C 
ENDBRANCH   1  11
BRANCH   1  12
ATOM     12  C   LIG    1       24.378 -23.185   6.311  0.00  0.00    +0.007 C 
ATOM     13  C   LIG    1       22.919 -23.395   6.770  0.00  0.00    +0.009 C 
BRANCH  12  14
ATOM     14  C   LIG    1       24.700 -24.150   5.126  0.00  0.00    +0.087 C 
BRANCH  14  15
ATOM     15  N   LIG    1       25.321 -25.447   5.492  0.00  0.00    -0.308 NA
ATOM     16  C   LIG    1       24.363 -26.552   5.515  0.00  0.00    +0.104 C 
ATOM     17  C   LIG    1       25.960 -25.341   6.810  0.00  0.00    +0.104 C 
ENDBRANCH  14  15
ENDBRANCH  12  14
ENDBRANCH   1  12
TORSDOF 6
ENDMDL
MODEL 6
REMARK VINA RESULT:      -7.1      2.826      4.399
REMARK  Name = *****
REMARK                            x       y       z     vdW  Elec       q    Type
REMARK                         _______ _______ _______ _____ _____    ______ ____
ROOT
ATOM      1  C   LIG    1       26.696 -21.495   6.466  0.00  0.00    +0.023 C 
ENDROOT
BRANCH   1   2
ATOM      2  C   LIG    1       28.004 -20.720   6.649  0.00  0.00    -0.041 A 
ATOM      3  C   LIG    1       28.356 -19.630   5.836  0.00  0.00    +0.049 A 
ATOM      4  C   LIG    1       29.581 -18.975   6.027  0.00  0.00    +0.117 A 
ATOM      5  C   LIG    1       30.459 -19.373   7.025  0.00  0.00    +0.045 A 
ATOM      6  C   LIG    1       30.120 -20.449   7.842  0.00  0.00    +0.004 A 
ATOM      7  C   LIG    1       28.902 -21.116   7.653  0.00  0.00    +0.004 A 
BRANCH   4   8
ATOM      8  O   LIG    1       29.882 -17.933   5.205  0.00  0.00    -0.507 OA
ATOM      9  H   LIG    1       30.248 -17.209   5.736  0.00  0.00    +0.292 HD
ENDBRANCH   4   8
ENDBRANCH   1   2
BRANCH   1  11
ATOM     10  C   LIG    1       25.003 -20.628   4.722  0.00  0.00    +0.004 C 
ATOM     11  C   LIG    1       25.525 -20.519   6.150  0.00  0.00    +0.005 C 
ENDBRANCH   1  11
BRANCH   1  12
ATOM     12  C   LIG    1       26.342 -22.442   7.672  0.00  0.00    +0.007 C 
ATOM     13  C   LIG    1       25.300 -21.773   8.594  0.00  0.00    +0.009 C 
BRANCH  12  14
ATOM     14  C   LIG    1       25.822 -23.845   7.222  0.00  0.00    +0.087 C 
BRANCH  14  15
ATOM     15  N   LIG    1       24.781 -23.846   6.166  0.00  0.00    -0.308 NA
ATOM     16  C   LIG    1       23.443 -24.134   6.683  0.00  0.00    +0.104 C 
ATOM     17  C   LIG    1       25.117 -24.836   5.134  0.00  0.00    +0.104 C 
ENDBRANCH  14  15
ENDBRANCH  12  14
ENDBRANCH   1  12
TORSDOF 6
ENDMDL
MODEL 7
REMARK VINA RESULT:      -7.1      2.959      5.048
REMARK  Name = *****
REMARK                            x       y       z     vdW  Elec       q    Type
REMARK                         _______ _______ _______ _____ _____    ______ ____
ROOT
ATOM      1  C   LIG    1       25.171 -20.686   6.332  0.00  0.00    +0.023 C 
ENDROOT
BRANCH   1   2
ATOM      2  C   LIG    1       24.719 -22.149   6.348  0.00  0.00    -0.041 A 
ATOM      3  C   LIG    1       25.555 -23.202   5.941  0.00  0.00    +0.049 A 
ATOM      4  C   LIG    1       25.080 -24.521   5.946  0.00  0.00    +0.117 A 
ATOM      5  C   LIG    1       23.790 -24.817   6.363  0.00  0.00    +0.045 A 
ATOM      6  C   LIG    1       22.953 -23.783   6.773  0.00  0.00    +0.004 A 
ATOM      7  C   LIG    1       23.415 -22.460   6.764  0.00  0.00    +0.004 A 
BRANCH   4   8
ATOM      8  O   LIG    1       25.924 -25.504   5.531  0.00  0.00    -0.507 OA
ATOM      9  H   LIG    1       25.524 -26.365   5.725  0.00  0.00    +0.292 HD
ENDBRANCH   4   8
ENDBRANCH   1   2
BRANCH   1  11
ATOM     10  C   LIG    1       24.441 -19.879   3.992  0.00  0.00    +0.004 C 
ATOM     11  C   LIG    1       25.605 -20.266   4.897  0.00  0.00    +0.005 C 
ENDBRANCH   1  11
BRANCH   1  12
ATOM     12  C   LIG    1       26.289 -20.352   7.389  0.00  0.00    +0.007 C 
ATOM     13  C   LIG    1       26.001 -21.075   8.723  0.00  0.00    +0.009 C 
BRANCH  12  14
ATOM     14  C   LIG    1       27.728 -20.711   6.897  0.00  0.00    +0.087 C 
BRANCH  14  15
ATOM     15  N   LIG    1       28.799 -19.751   7.261  0.00  0.00    -0.308 NA
ATOM     16  C   LIG    1       29.288 -18.980   6.117  0.00  0.00    +0.104 C 
ATOM     17  C   LIG    1       29.926 -20.469   7.871  0.00  0.00    +0.104 C 
ENDBRANCH  14  15
ENDBRANCH  12  14
ENDBRANCH   1  12
TORSDOF 6
ENDMDL
MODEL 8
REMARK VINA RESULT:      -7.0      3.043      5.234
REMARK  Name = *****
REMARK                            x       y       z     vdW  Elec       q    Type
REMARK                         _______ _______ _______ _____ _____    ______ ____
ROOT
ATOM      1  C   LIG    1       25.577 -20.608   6.568  0.00  0.00    +0.023 C 
ENDROOT
BRANCH   1   2
ATOM      2  C   LIG    1       24.999 -22.027   6.553  0.00  0.00    -0.041 A 
ATOM      3  C   LIG    1       23.619 -22.280   6.621  0.00  0.00    +0.049 A 
ATOM      4  C   LIG    1       23.145 -23.599   6.635  0.00  0.00    +0.117 A 
ATOM      5  C   LIG    1       24.018 -24.676   6.568  0.00  0.00    +0.045 A 
ATOM      6  C   LIG    1       25.388 -24.438   6.496  0.00  0.00    +0.004 A 
ATOM      7  C   LIG    1       25.873 -23.123   6.490  0.00  0.00    +0.004 A 
BRANCH   4   8
ATOM      8  O   LIG    1       21.800 -23.793   6.713  0.00  0.00    -0.507 OA
ATOM      9  H   LIG    1       21.629 -24.711   6.972  0.00  0.00    +0.292 HD
ENDBRANCH   4   8
ENDBRANCH   1   2
BRANCH   1  11
ATOM     10  C   LIG    1       25.287 -19.970   4.084  0.00  0.00    +0.004 C 
ATOM     11  C   LIG    1       26.266 -20.288   5.209  0.00  0.00    +0.005 C 
ENDBRANCH   1  11
BRANCH   1  12
ATOM     12  C   LIG    1       26.542 -20.326   7.779  0.00  0.00    +0.007 C 
ATOM     13  C   LIG    1       25.904 -20.810   9.099  0.00  0.00    +0.009 C 
BRANCH  12  14
ATOM     14  C   LIG    1       27.952 -20.974   7.608  0.00  0.00    +0.087 C 
BRANCH  14  15
ATOM     15  N   LIG    1       29.110 -20.126   7.983  0.00  0.00    -0.308 NA
ATOM     16  C   LIG    1       29.518 -19.212   6.916  0.00  0.00    +0.104 C 
ATOM     17  C   LIG    1       30.252 -20.974   8.349  0.00  0.00    +0.104 C 
ENDBRANCH  14  15
ENDBRANCH  12  14
ENDBRANCH   1  12
TORSDOF 6
ENDMDL
MODEL 9
REMARK VINA RESULT:      -6.7      2.990      5.609
REMARK  Name = *****
REMARK                            x       y       z     vdW  Elec       q    Type
REMARK                         _______ _______ _______ _____ _____    ______ ____
ROOT
ATOM      1  C   LIG    1       25.334 -23.119   6.329  0.00  0.00    +0.023 C 
ENDROOT
BRANCH   1   2
ATOM      2  C   LIG    1       25.452 -24.627   6.088  0.00  0.00    -0.041 A 
ATOM      3  C   LIG    1       25.836 -25.525   7.099  0.00  0.00    +0.049 A 
ATOM      4  C   LIG    1       25.959 -26.892   6.816  0.00  0.00    +0.117 A 
ATOM      5  C   LIG    1       25.691 -27.390   5.549  0.00  0.00    +0.045 A 
ATOM      6  C   LIG    1       25.306 -26.511   4.539  0.00  0.00    +0.004 A 
ATOM      7  C   LIG    1       25.189 -25.141   4.809  0.00  0.00    +0.004 A 
BRANCH   4   8
ATOM      8  O   LIG    1       26.345 -27.719   7.825  0.00  0.00    -0.507 OA
ATOM      9  H   LIG    1       25.712 -28.450   7.893  0.00  0.00    +0.292 HD
ENDBRANCH   4   8
ENDBRANCH   1   2
BRANCH   1  11
ATOM     10  C   LIG    1       27.039 -21.868   7.808  0.00  0.00    +0.004 C 
ATOM     11  C   LIG    1       25.803 -22.760   7.769  0.00  0.00    +0.005 C 
ENDBRANCH   1  11
BRANCH   1  12
ATOM     12  C   LIG    1       23.902 -22.536   6.031  0.00  0.00    +0.007 C 
ATOM     13  C   LIG    1       22.833 -23.292   6.849  0.00  0.00    +0.009 C 
BRANCH  12  14
ATOM     14  C   LIG    1       23.791 -21.003   6.309  0.00  0.00    +0.087 C 
BRANCH  14  15
ATOM     15  N   LIG    1       23.751 -20.124   5.115  0.00  0.00    -0.308 NA
ATOM     16  C   LIG    1       22.490 -19.394   4.986  0.00  0.00    +0.104 C 
ATOM     17  C   LIG    1       23.969 -20.921   3.901  0.00  0.00    +0.104 C 
ENDBRANCH  14  15
ENDBRANCH  12  14
ENDBRANCH   1  12
TORSDOF 6
ENDMDL
