MODEL 1
REMARK VINA RESULT:      -5.8      0.000      0.000
REMARK  Name = *****
REMARK                            x       y       z     vdW  Elec       q    Type
REMARK                         _______ _______ _______ _____ _____    ______ ____
ROOT
ATOM      1  CA  PHE A  1       28.123 -20.455   6.157  0.00  0.00    +0.165 C 
ENDROOT
BRANCH   1   2
ATOM      2  N   PHE A  1       29.100 -21.477   6.647  0.00  0.00    -0.318 NA
ATOM      3  H1  PHE A  1       29.324 -22.096   5.860  0.00  0.00    +0.119 HD
ATOM      4  H2  PHE A  1       29.985 -20.988   6.821  0.00  0.00    +0.119 HD
ENDBRANCH   1   2
BRANCH   1   5
ATOM      5  C   PHE A  1       28.866 -19.109   6.058  0.00  0.00    +0.322 C 
ATOM      6  O   PHE A  1       29.475 -18.559   6.956  0.00  0.00    -0.249 OA
BRANCH   5   7
ATOM      7  OXT PHE A  1       28.718 -18.573   4.814  0.00  0.00    -0.479 OA
ATOM      8  HXT PHE A  1       29.466 -17.936   4.700  0.00  0.00    +0.295 HD
ENDBRANCH   5   7
ENDBRANCH   1   5
BRANCH   1   9
ATOM      9  CB  PHE A  1       26.876 -20.320   7.047  0.00  0.00    +0.065 C 
BRANCH   9  10
ATOM     10  CG  PHE A  1       25.562 -20.487   6.316  0.00  0.00    -0.045 A 
ATOM     11  CD2 PHE A  1       25.467 -20.259   4.935  0.00  0.00    +0.003 A 
ATOM     12  CE2 PHE A  1       24.235 -20.353   4.282  0.00  0.00    +0.000 A 
ATOM     13  CZ  PHE A  1       23.086 -20.679   4.999  0.00  0.00    +0.000 A 
ATOM     14  CE1 PHE A  1       23.168 -20.918   6.368  0.00  0.00    +0.000 A 
ATOM     15  CD1 PHE A  1       24.398 -20.822   7.024  0.00  0.00    +0.003 A 
ENDBRANCH   9  10
ENDBRANCH   1   9
TORSDOF 5
ENDMDL
MODEL 2
REMARK VINA RESULT:      -5.1      1.785      2.454
REMARK  Name = *****
REMARK                            x       y       z     vdW  Elec       q    Type
REMARK                         _______ _______ _______ _____ _____    ______ ____
ROOT
ATOM      1  CA  PHE A  1       27.427 -19.601   5.725  0.00  0.00    +0.165 C 
ENDROOT
BRANCH   1   2
ATOM      2  N   PHE A  1       28.287 -18.779   4.816  0.00  0.00    -0.318 NA
ATOM      3  H1  PHE A  1       28.191 -17.798   5.100  0.00  0.00    +0.119 HD
ATOM      4  H2  PHE A  1       29.262 -18.997   5.045  0.00  0.00    +0.119 HD
ENDBRANCH   1   2
BRANCH   1   5
ATOM      5  C   PHE A  1       28.362 -20.389   6.662  0.00  0.00    +0.322 C 
ATOM      6  O   PHE A  1       29.475 -20.050   7.017  0.00  0.00    -0.249 OA
BRANCH   5   7
ATOM      7  OXT PHE A  1       27.788 -21.572   7.023  0.00  0.00    -0.479 OA
ATOM      8  HXT PHE A  1       26.832 -21.497   6.779  0.00  0.00    +0.295 HD
ENDBRANCH   5   7
ENDBRANCH   1   5
BRANCH   1   9
ATOM      9  CB  PHE A  1       26.479 -20.555   4.980  0.00  0.00    +0.065 C 
BRANCH   9  10
ATOM     10  CG  PHE A  1       25.043 -20.082   4.906  0.00  0.00    -0.045 A 
ATOM     11  CD2 PHE A  1       24.104 -20.464   5.875  0.00  0.00    +0.003 A 
ATOM     12  CE2 PHE A  1       22.767 -20.075   5.762  0.00  0.00    +0.000 A 
ATOM     13  CZ  PHE A  1       22.354 -19.298   4.681  0.00  0.00    +0.000 A 
ATOM     14  CE1 PHE A  1       23.278 -18.903   3.718  0.00  0.00    +0.000 A 
ATOM     15  CD1 PHE A  1       24.615 -19.293   3.828  0.00  0.00    +0.003 A 
ENDBRANCH   9  10
ENDBRANCH   1   9
TORSDOF 5
ENDMDL
MODEL 3
REMARK VINA RESULT:      -4.9      6.752      7.325
REMARK  Name = *****
REMARK                            x       y       z     vdW  Elec       q    Type
REMARK                         _______ _______ _______ _____ _____    ______ ____
ROOT
ATOM      1  CA  PHE A  1       27.329 -15.221   3.602  0.00  0.00    +0.165 C 
ENDROOT
BRANCH   1   2
ATOM      2  N   PHE A  1       27.962 -16.365   4.331  0.00  0.00    -0.318 NA
ATOM      3  H1  PHE A  1       28.979 -16.258   4.255  0.00  0.00    +0.119 HD
ATOM      4  H2  PHE A  1       27.784 -16.219   5.331  0.00  0.00    +0.119 HD
ENDBRANCH   1   2
BRANCH   1   5
ATOM      5  C   PHE A  1       27.887 -13.919   4.206  0.00  0.00    +0.322 C 
ATOM      6  O   PHE A  1       27.660 -13.490   5.321  0.00  0.00    -0.249 OA
BRANCH   5   7
ATOM      7  OXT PHE A  1       28.658 -13.262   3.293  0.00  0.00    -0.479 OA
ATOM      8  HXT PHE A  1       28.856 -13.920   2.580  0.00  0.00    +0.295 HD
ENDBRANCH   5   7
ENDBRANCH   1   5
BRANCH   1   9
ATOM      9  CB  PHE A  1       25.793 -15.229   3.660  0.00  0.00    +0.065 C 
BRANCH   9  10
ATOM     10  CG  PHE A  1       25.148 -13.883   3.406  0.00  0.00    -0.045 A 
ATOM     11  CD2 PHE A  1       24.456 -13.208   4.422  0.00  0.00    +0.003 A 
ATOM     12  CE2 PHE A  1       23.810 -11.997   4.159  0.00  0.00    +0.000 A 
ATOM     13  CZ  PHE A  1       23.849 -11.447   2.880  0.00  0.00    +0.000 A 
ATOM     14  CE1 PHE A  1       24.542 -12.102   1.865  0.00  0.00    +0.000 A 
ATOM     15  CD1 PHE A  1       25.186 -13.313   2.124  0.00  0.00    +0.003 A 
ENDBRANCH   9  10
ENDBRANCH   1   9
TORSDOF 5
ENDMDL
MODEL 4
REMARK VINA RESULT:      -4.2      3.656      4.861
REMARK  Name = *****
REMARK                            x       y       z     vdW  Elec       q    Type
REMARK                         _______ _______ _______ _____ _____    ______ ____
ROOT
ATOM      1  CA  PHE A  1       23.682 -19.247   3.526  0.00  0.00    +0.165 C 
ENDROOT
BRANCH   1   2
ATOM      2  N   PHE A  1       24.549 -18.035   3.662  0.00  0.00    -0.318 NA
ATOM      3  H1  PHE A  1       24.824 -17.958   4.647  0.00  0.00    +0.119 HD
ATOM      4  H2  PHE A  1       25.433 -18.243   3.186  0.00  0.00    +0.119 HD
ENDBRANCH   1   2
BRANCH   1   5
ATOM      5  C   PHE A  1       22.537 -19.117   4.548  0.00  0.00    +0.322 C 
ATOM      6  O   PHE A  1       22.112 -20.002   5.266  0.00  0.00    -0.249 OA
BRANCH   5   7
ATOM      7  OXT PHE A  1       22.012 -17.859   4.518  0.00  0.00    -0.479 OA
ATOM      8  HXT PHE A  1       22.780 -17.246   4.403  0.00  0.00    +0.295 HD
ENDBRANCH   5   7
ENDBRANCH   1   5
BRANCH   1   9
ATOM      9  CB  PHE A  1       24.438 -20.570   3.728  0.00  0.00    +0.065 C 
BRANCH   9  10
ATOM     10  CG  PHE A  1       25.415 -20.565   4.885  0.00  0.00    -0.045 A 
ATOM     11  CD2 PHE A  1       26.599 -19.816   4.829  0.00  0.00    +0.003 A 
ATOM     12  CE2 PHE A  1       27.524 -19.869   5.876  0.00  0.00    +0.000 A 
ATOM     13  CZ  PHE A  1       27.275 -20.669   6.989  0.00  0.00    +0.000 A 
ATOM     14  CE1 PHE A  1       26.098 -21.410   7.061  0.00  0.00    +0.000 A 
ATOM     15  CD1 PHE A  1       25.174 -21.360   6.016  0.00  0.00    +0.003 A 
ENDBRANCH   9  10
ENDBRANCH   1   9
TORSDOF 5
ENDMDL
MODEL 5
REMARK VINA RESULT:      -4.2      3.890      4.590
REMARK  Name = *****
REMARK                            x       y       z     vdW  Elec       q    Type
REMARK                         _______ _______ _______ _____ _____    ______ ____
ROOT
ATOM      1  CA  PHE A  1       25.752 -16.040   3.801  0.00  0.00    +0.165 C 
ENDROOT
BRANCH   1   2
ATOM      2  N   PHE A  1       24.449 -15.303   3.835  0.00  0.00    -0.318 NA
ATOM      3  H1  PHE A  1       24.331 -14.839   2.928  0.00  0.00    +0.119 HD
ATOM      4  H2  PHE A  1       23.705 -16.009   3.838  0.00  0.00    +0.119 HD
ENDBRANCH   1   2
BRANCH   1   5
ATOM      5  C   PHE A  1       26.801 -15.102   3.175  0.00  0.00    +0.322 C 
ATOM      6  O   PHE A  1       26.704 -14.529   2.106  0.00  0.00    -0.249 OA
BRANCH   5   7
ATOM      7  OXT PHE A  1       27.904 -15.022   3.971  0.00  0.00    -0.479 OA
ATOM      8  HXT PHE A  1       27.896 -15.838   4.531  0.00  0.00    +0.295 HD
ENDBRANCH   5   7
ENDBRANCH   1   5
BRANCH   1   9
ATOM      9  CB  PHE A  1       25.687 -17.369   3.031  0.00  0.00    +0.065 C 
BRANCH   9  10
ATOM     10  CG  PHE A  1       24.912 -18.464   3.732  0.00  0.00    -0.045 A 
ATOM     11  CD2 PHE A  1       23.516 -18.402   3.848  0.00  0.00    +0.003 A 
ATOM     12  CE2 PHE A  1       22.816 -19.385   4.553  0.00  0.00    +0.000 A 
ATOM     13  CZ  PHE A  1       23.503 -20.441   5.148  0.00  0.00    +0.000 A 
ATOM     14  CE1 PHE A  1       24.889 -20.520   5.032  0.00  0.00    +0.000 A 
ATOM     15  CD1 PHE A  1       25.590 -19.537   4.330  0.00  0.00    +0.003 A 
ENDBRANCH   9  10
ENDBRANCH   1   9
TORSDOF 5
ENDMDL
MODEL 6
REMARK VINA RESULT:      -4.2      3.966      4.633
REMARK  Name = *****
REMARK                            x       y       z     vdW  Elec       q    Type
REMARK                         _______ _______ _______ _____ _____    ______ ____
ROOT
ATOM      1  CA  PHE A  1       25.767 -15.936   3.779  0.00  0.00    +0.165 C 
ENDROOT
BRANCH   1   2
ATOM      2  N   PHE A  1       24.466 -15.197   3.804  0.00  0.00    -0.318 NA
ATOM      3  H1  PHE A  1       24.657 -14.222   3.548  0.00  0.00    +0.119 HD
ATOM      4  H2  PHE A  1       23.908 -15.543   3.017  0.00  0.00    +0.119 HD
ENDBRANCH   1   2
BRANCH   1   5
ATOM      5  C   PHE A  1       26.818 -15.007   3.144  0.00  0.00    +0.322 C 
ATOM      6  O   PHE A  1       26.726 -14.449   2.067  0.00  0.00    -0.249 OA
BRANCH   5   7
ATOM      7  OXT PHE A  1       27.919 -14.916   3.944  0.00  0.00    -0.479 OA
ATOM      8  HXT PHE A  1       27.847 -14.045   4.408  0.00  0.00    +0.295 HD
ENDBRANCH   5   7
ENDBRANCH   1   5
BRANCH   1   9
ATOM      9  CB  PHE A  1       25.700 -17.273   3.022  0.00  0.00    +0.065 C 
BRANCH   9  10
ATOM     10  CG  PHE A  1       24.912 -18.356   3.727  0.00  0.00    -0.045 A 
ATOM     11  CD2 PHE A  1       25.538 -19.521   4.191  0.00  0.00    +0.003 A 
ATOM     12  CE2 PHE A  1       24.789 -20.543   4.783  0.00  0.00    +0.000 A 
ATOM     13  CZ  PHE A  1       23.409 -20.410   4.919  0.00  0.00    +0.000 A 
ATOM     14  CE1 PHE A  1       22.777 -19.253   4.471  0.00  0.00    +0.000 A 
ATOM     15  CD1 PHE A  1       23.522 -18.232   3.877  0.00  0.00    +0.003 A 
ENDBRANCH   9  10
ENDBRANCH   1   9
TORSDOF 5
ENDMDL
MODEL 7
REMARK VINA RESULT:      -4.1      4.689      5.863
REMARK  Name = *****
REMARK                            x       y       z     vdW  Elec       q    Type
REMARK                         _______ _______ _______ _____ _____    ______ ____
ROOT
ATOM      1  CA  PHE A  1       25.444 -18.639   4.076  0.00  0.00    +0.165 C 
ENDROOT
BRANCH   1   2
ATOM      2  N   PHE A  1       26.398 -19.776   4.273  0.00  0.00    -0.318 NA
ATOM      3  H1  PHE A  1       26.888 -19.620   5.161  0.00  0.00    +0.119 HD
ATOM      4  H2  PHE A  1       25.835 -20.612   4.457  0.00  0.00    +0.119 HD
ENDBRANCH   1   2
BRANCH   1   5
ATOM      5  C   PHE A  1       24.073 -19.240   3.714  0.00  0.00    +0.322 C 
ATOM      6  O   PHE A  1       22.987 -18.745   3.952  0.00  0.00    -0.249 OA
BRANCH   5   7
ATOM      7  OXT PHE A  1       24.228 -20.453   3.112  0.00  0.00    -0.479 OA
ATOM      8  HXT PHE A  1       23.315 -20.770   2.898  0.00  0.00    +0.295 HD
ENDBRANCH   5   7
ENDBRANCH   1   5
BRANCH   1   9
ATOM      9  CB  PHE A  1       25.895 -17.635   3.003  0.00  0.00    +0.065 C 
BRANCH   9  10
ATOM     10  CG  PHE A  1       25.969 -16.200   3.476  0.00  0.00    -0.045 A 
ATOM     11  CD2 PHE A  1       27.204 -15.577   3.709  0.00  0.00    +0.003 A 
ATOM     12  CE2 PHE A  1       27.259 -14.273   4.208  0.00  0.00    +0.000 A 
ATOM     13  CZ  PHE A  1       26.083 -13.576   4.478  0.00  0.00    +0.000 A 
ATOM     14  CE1 PHE A  1       24.851 -14.179   4.241  0.00  0.00    +0.000 A 
ATOM     15  CD1 PHE A  1       24.793 -15.484   3.745  0.00  0.00    +0.003 A 
ENDBRANCH   9  10
ENDBRANCH   1   9
TORSDOF 5
ENDMDL
MODEL 8
REMARK VINA RESULT:      -4.1      4.656      5.912
REMARK  Name = *****
REMARK                            x       y       z     vdW  Elec       q    Type
REMARK                         _______ _______ _______ _____ _____    ______ ____
ROOT
ATOM      1  CA  PHE A  1       25.407 -18.762   4.091  0.00  0.00    +0.165 C 
ENDROOT
BRANCH   1   2
ATOM      2  N   PHE A  1       26.354 -19.912   4.237  0.00  0.00    -0.318 NA
ATOM      3  H1  PHE A  1       26.051 -20.648   3.590  0.00  0.00    +0.119 HD
ATOM      4  H2  PHE A  1       27.254 -19.611   3.848  0.00  0.00    +0.119 HD
ENDBRANCH   1   2
BRANCH   1   5
ATOM      5  C   PHE A  1       24.018 -19.341   3.762  0.00  0.00    +0.322 C 
ATOM      6  O   PHE A  1       22.954 -18.764   3.879  0.00  0.00    -0.249 OA
BRANCH   5   7
ATOM      7  OXT PHE A  1       24.127 -20.635   3.349  0.00  0.00    -0.479 OA
ATOM      8  HXT PHE A  1       23.736 -21.186   4.073  0.00  0.00    +0.295 HD
ENDBRANCH   5   7
ENDBRANCH   1   5
BRANCH   1   9
ATOM      9  CB  PHE A  1       25.835 -17.744   3.021  0.00  0.00    +0.065 C 
BRANCH   9  10
ATOM     10  CG  PHE A  1       25.929 -16.316   3.514  0.00  0.00    -0.045 A 
ATOM     11  CD2 PHE A  1       24.775 -15.555   3.752  0.00  0.00    +0.003 A 
ATOM     12  CE2 PHE A  1       24.874 -14.217   4.145  0.00  0.00    +0.000 A 
ATOM     13  CZ  PHE A  1       26.126 -13.627   4.306  0.00  0.00    +0.000 A 
ATOM     14  CE1 PHE A  1       27.279 -14.374   4.082  0.00  0.00    +0.000 A 
ATOM     15  CD1 PHE A  1       27.183 -15.710   3.687  0.00  0.00    +0.003 A 
ENDBRANCH   9  10
ENDBRANCH   1   9
TORSDOF 5
ENDMDL
MODEL 9
REMARK VINA RESULT:      -4.1      5.246      5.962
REMARK  Name = *****
REMARK                            x       y       z     vdW  Elec       q    Type
REMARK                         _______ _______ _______ _____ _____    ______ ____
ROOT
ATOM      1  CA  PHE A  1       25.534 -14.477   3.878  0.00  0.00    +0.165 C 
ENDROOT
BRANCH   1   2
ATOM      2  N   PHE A  1       26.160 -13.625   4.938  0.00  0.00    -0.318 NA
ATOM      3  H1  PHE A  1       25.490 -12.886   5.178  0.00  0.00    +0.119 HD
ATOM      4  H2  PHE A  1       26.203 -14.191   5.792  0.00  0.00    +0.119 HD
ENDBRANCH   1   2
BRANCH   1   5
ATOM      5  C   PHE A  1       25.709 -13.749   2.532  0.00  0.00    +0.322 C 
ATOM      6  O   PHE A  1       24.928 -12.958   2.038  0.00  0.00    -0.249 OA
BRANCH   5   7
ATOM      7  OXT PHE A  1       26.863 -14.144   1.923  0.00  0.00    -0.479 OA
ATOM      8  HXT PHE A  1       27.586 -13.985   2.579  0.00  0.00    +0.295 HD
ENDBRANCH   5   7
ENDBRANCH   1   5
BRANCH   1   9
ATOM      9  CB  PHE A  1       24.051 -14.789   4.135  0.00  0.00    +0.065 C 
BRANCH   9  10
ATOM     10  CG  PHE A  1       23.702 -16.261   4.094  0.00  0.00    -0.045 A 
ATOM     11  CD2 PHE A  1       22.461 -16.724   4.554  0.00  0.00    +0.003 A 
ATOM     12  CE2 PHE A  1       22.174 -18.092   4.571  0.00  0.00    +0.000 A 
ATOM     13  CZ  PHE A  1       23.123 -19.011   4.126  0.00  0.00    +0.000 A 
ATOM     14  CE1 PHE A  1       24.355 -18.563   3.657  0.00  0.00    +0.000 A 
ATOM     15  CD1 PHE A  1       24.644 -17.197   3.641  0.00  0.00    +0.003 A 
ENDBRANCH   9  10
ENDBRANCH   1   9
TORSDOF 5
ENDMDL
