MODEL 1
REMARK VINA RESULT:      -6.4      0.000      0.000
REMARK  Name = *****
REMARK                            x       y       z     vdW  Elec       q    Type
REMARK                         _______ _______ _______ _____ _____    ______ ____
ROOT
ATOM      1  C   LIG    1       30.573 -19.281   7.812  0.00  0.00    +0.132 C 
ATOM      2  C   LIG    1       29.365 -20.261   8.000  0.00  0.00    +0.011 C 
ATOM      3  C   LIG    1       29.814 -21.457   8.865  0.00  0.00    +0.015 C 
ATOM      4  C   LIG    1       29.044 -20.626   6.535  0.00  0.00    +0.002 C 
ATOM      5  C   LIG    1       27.712 -21.378   6.317  0.00  0.00    +0.001 C 
ATOM      6  C   LIG    1       26.512 -20.664   6.974  0.00  0.00    +0.023 C 
ATOM      7  C   LIG    1       26.801 -20.293   8.441  0.00  0.00    +0.009 C 
ATOM      8  C   LIG    1       25.235 -21.492   6.901  0.00  0.00    -0.041 A 
ATOM      9  C   LIG    1       25.266 -22.889   6.715  0.00  0.00    -0.041 A 
ATOM     10  C   LIG    1       24.067 -23.619   6.742  0.00  0.00    +0.049 A 
ATOM     11  C   LIG    1       22.857 -22.964   6.940  0.00  0.00    +0.117 A 
ATOM     12  C   LIG    1       22.811 -21.587   7.096  0.00  0.00    +0.045 A 
ATOM     13  C   LIG    1       26.549 -23.626   6.431  0.00  0.00    +0.036 C 
ATOM     14  C   LIG    1       23.996 -20.853   7.079  0.00  0.00    +0.008 A 
ATOM     15  C   LIG    1       27.782 -22.829   6.828  0.00  0.00    +0.009 C 
ATOM     16  C   LIG    1       29.116 -19.247   5.839  0.00  0.00    +0.008 C 
ATOM     17  C   LIG    1       28.125 -19.557   8.636  0.00  0.00    +0.011 C 
ATOM     18  C   LIG    1       30.262 -18.487   6.536  0.00  0.00    +0.049 C 
ENDROOT
BRANCH   1  20
ATOM     19  C   LIG    1       30.964 -17.653   9.858  0.00  0.00    +0.007 C 
ATOM     20  C   LIG    1       30.784 -18.521   9.058  0.00  0.00    -0.070 C 
ENDBRANCH   1  20
BRANCH   1  21
ATOM     21  O   LIG    1       31.772 -20.019   7.546  0.00  0.00    -0.376 OA
ATOM     22  H   LIG    1       31.767 -20.779   8.153  0.00  0.00    +0.211 HD
ENDBRANCH   1  21
BRANCH  11  23
ATOM     23  O   LIG    1       21.680 -23.651   6.983  0.00  0.00    -0.507 OA
ATOM     24  H   LIG    1       21.010 -23.082   7.396  0.00  0.00    +0.292 HD
ENDBRANCH  11  23
TORSDOF 3
ENDMDL
MODEL 2
REMARK VINA RESULT:      -6.0      8.870     11.357
REMARK  Name = *****
REMARK                            x       y       z     vdW  Elec       q    Type
REMARK                         _______ _______ _______ _____ _____    ______ ____
ROOT
ATOM      1  C   LIG    1       24.680 -30.801   5.922  0.00  0.00    +0.132 C 
ATOM      2  C   LIG    1       24.949 -31.012   7.451  0.00  0.00    +0.011 C 
ATOM      3  C   LIG    1       24.068 -32.170   7.964  0.00  0.00    +0.015 C 
ATOM      4  C   LIG    1       24.566 -29.628   8.018  0.00  0.00    +0.002 C 
ATOM      5  C   LIG    1       24.969 -29.380   9.488  0.00  0.00    +0.001 C 
ATOM      6  C   LIG    1       26.459 -29.682   9.755  0.00  0.00    +0.023 C 
ATOM      7  C   LIG    1       26.869 -31.062   9.207  0.00  0.00    +0.009 C 
ATOM      8  C   LIG    1       26.810 -29.598  11.236  0.00  0.00    -0.041 A 
ATOM      9  C   LIG    1       25.828 -29.723  12.239  0.00  0.00    -0.041 A 
ATOM     10  C   LIG    1       26.213 -29.726  13.589  0.00  0.00    +0.049 A 
ATOM     11  C   LIG    1       27.554 -29.597  13.931  0.00  0.00    +0.117 A 
ATOM     12  C   LIG    1       28.526 -29.446  12.954  0.00  0.00    +0.045 A 
ATOM     13  C   LIG    1       24.359 -29.798  11.911  0.00  0.00    +0.036 C 
ATOM     14  C   LIG    1       28.156 -29.449  11.610  0.00  0.00    +0.008 A 
ATOM     15  C   LIG    1       24.102 -30.195  10.466  0.00  0.00    +0.009 C 
ATOM     16  C   LIG    1       25.237 -28.672   7.005  0.00  0.00    +0.008 C 
ATOM     17  C   LIG    1       26.455 -31.290   7.754  0.00  0.00    +0.011 C 
ATOM     18  C   LIG    1       25.095 -29.353   5.629  0.00  0.00    +0.049 C 
ENDROOT
BRANCH   1  20
ATOM     19  C   LIG    1       25.875 -32.514   4.301  0.00  0.00    +0.007 C 
ATOM     20  C   LIG    1       25.343 -31.873   5.157  0.00  0.00    -0.070 C 
ENDBRANCH   1  20
BRANCH   1  21
ATOM     21  O   LIG    1       23.275 -30.881   5.652  0.00  0.00    -0.376 OA
ATOM     22  H   LIG    1       22.966 -29.968   5.531  0.00  0.00    +0.211 HD
ENDBRANCH   1  21
BRANCH  11  23
ATOM     23  O   LIG    1       27.955 -29.610  15.235  0.00  0.00    -0.507 OA
ATOM     24  H   LIG    1       27.200 -29.875  15.783  0.00  0.00    +0.292 HD
ENDBRANCH  11  23
TORSDOF 3
ENDMDL
MODEL 3
REMARK VINA RESULT:      -5.8      9.148     11.295
REMARK  Name = *****
REMARK                            x       y       z     vdW  Elec       q    Type
REMARK                         _______ _______ _______ _____ _____    ______ ____
ROOT
ATOM      1  C   LIG    1       25.250 -31.899   5.652  0.00  0.00    +0.132 C 
ATOM      2  C   LIG    1       25.194 -31.712   7.206  0.00  0.00    +0.011 C 
ATOM      3  C   LIG    1       24.526 -32.950   7.840  0.00  0.00    +0.015 C 
ATOM      4  C   LIG    1       24.362 -30.416   7.323  0.00  0.00    +0.002 C 
ATOM      5  C   LIG    1       24.333 -29.772   8.727  0.00  0.00    +0.001 C 
ATOM      6  C   LIG    1       25.745 -29.566   9.315  0.00  0.00    +0.023 C 
ATOM      7  C   LIG    1       26.597 -30.846   9.219  0.00  0.00    +0.009 C 
ATOM      8  C   LIG    1       25.704 -29.089  10.762  0.00  0.00    -0.041 A 
ATOM      9  C   LIG    1       24.574 -29.292  11.579  0.00  0.00    -0.041 A 
ATOM     10  C   LIG    1       24.617 -28.913  12.930  0.00  0.00    +0.049 A 
ATOM     11  C   LIG    1       25.767 -28.332  13.453  0.00  0.00    +0.117 A 
ATOM     12  C   LIG    1       26.875 -28.101  12.653  0.00  0.00    +0.045 A 
ATOM     13  C   LIG    1       23.288 -29.858  11.033  0.00  0.00    +0.036 C 
ATOM     14  C   LIG    1       26.846 -28.481  11.312  0.00  0.00    +0.008 A 
ATOM     15  C   LIG    1       23.485 -30.593   9.717  0.00  0.00    +0.009 C 
ATOM     16  C   LIG    1       25.000 -29.528   6.230  0.00  0.00    +0.008 C 
ATOM     17  C   LIG    1       26.606 -31.471   7.825  0.00  0.00    +0.011 C 
ATOM     18  C   LIG    1       25.357 -30.482   5.072  0.00  0.00    +0.049 C 
ENDROOT
BRANCH   1  20
ATOM     19  C   LIG    1       27.171 -33.478   4.754  0.00  0.00    +0.007 C 
ATOM     20  C   LIG    1       26.316 -32.860   5.314  0.00  0.00    -0.070 C 
ENDBRANCH   1  20
BRANCH   1  21
ATOM     21  O   LIG    1       24.012 -32.439   5.173  0.00  0.00    -0.376 OA
ATOM     22  H   LIG    1       24.109 -32.537   4.210  0.00  0.00    +0.211 HD
ENDBRANCH   1  21
BRANCH  11  23
ATOM     23  O   LIG    1       25.839 -27.966  14.765  0.00  0.00    -0.507 OA
ATOM     24  H   LIG    1       25.028 -28.261  15.209  0.00  0.00    +0.292 HD
ENDBRANCH  11  23
TORSDOF 3
ENDMDL
MODEL 4
REMARK VINA RESULT:      -5.8      9.656     11.361
REMARK  Name = *****
REMARK                            x       y       z     vdW  Elec       q    Type
REMARK                         _______ _______ _______ _____ _____    ______ ____
ROOT
ATOM      1  C   LIG    1       25.601 -30.132  11.921  0.00  0.00    +0.132 C 
ATOM      2  C   LIG    1       24.449 -29.626  12.854  0.00  0.00    +0.011 C 
ATOM      3  C   LIG    1       24.731 -30.085  14.300  0.00  0.00    +0.015 C 
ATOM      4  C   LIG    1       23.220 -30.300  12.206  0.00  0.00    +0.002 C 
ATOM      5  C   LIG    1       21.848 -29.798  12.710  0.00  0.00    +0.001 C 
ATOM      6  C   LIG    1       21.718 -28.262  12.652  0.00  0.00    +0.023 C 
ATOM      7  C   LIG    1       22.928 -27.561  13.299  0.00  0.00    +0.009 C 
ATOM      8  C   LIG    1       20.435 -27.765  13.306  0.00  0.00    -0.041 A 
ATOM      9  C   LIG    1       19.733 -28.541  14.250  0.00  0.00    -0.041 A 
ATOM     10  C   LIG    1       18.604 -28.004  14.888  0.00  0.00    +0.049 A 
ATOM     11  C   LIG    1       18.177 -26.718  14.581  0.00  0.00    +0.117 A 
ATOM     12  C   LIG    1       18.841 -25.954  13.633  0.00  0.00    +0.045 A 
ATOM     13  C   LIG    1       20.126 -29.962  14.561  0.00  0.00    +0.036 C 
ATOM     14  C   LIG    1       19.968 -26.475  12.999  0.00  0.00    +0.008 A 
ATOM     15  C   LIG    1       21.553 -30.280  14.143  0.00  0.00    +0.009 C 
ATOM     16  C   LIG    1       23.474 -30.048  10.702  0.00  0.00    +0.008 C 
ATOM     17  C   LIG    1       24.275 -28.076  12.793  0.00  0.00    +0.011 C 
ATOM     18  C   LIG    1       24.999 -30.169  10.509  0.00  0.00    +0.049 C 
ENDROOT
BRANCH   1  20
ATOM     19  C   LIG    1       27.806 -28.675  11.981  0.00  0.00    +0.007 C 
ATOM     20  C   LIG    1       26.801 -29.302  12.133  0.00  0.00    -0.070 C 
ENDBRANCH   1  20
BRANCH   1  21
ATOM     21  O   LIG    1       25.945 -31.484  12.249  0.00  0.00    -0.376 OA
ATOM     22  H   LIG    1       25.973 -31.533  13.220  0.00  0.00    +0.211 HD
ENDBRANCH   1  21
BRANCH  11  23
ATOM     23  O   LIG    1       17.090 -26.168  15.195  0.00  0.00    -0.507 OA
ATOM     24  H   LIG    1       16.434 -25.949  14.515  0.00  0.00    +0.292 HD
ENDBRANCH  11  23
TORSDOF 3
ENDMDL
MODEL 5
REMARK VINA RESULT:      -5.8      7.049     10.425
REMARK  Name = *****
REMARK                            x       y       z     vdW  Elec       q    Type
REMARK                         _______ _______ _______ _____ _____    ______ ____
ROOT
ATOM      1  C   LIG    1       25.311 -32.691   9.719  0.00  0.00    +0.132 C 
ATOM      2  C   LIG    1       24.763 -31.379   9.060  0.00  0.00    +0.011 C 
ATOM      3  C   LIG    1       23.221 -31.413   9.072  0.00  0.00    +0.015 C 
ATOM      4  C   LIG    1       25.387 -31.469   7.649  0.00  0.00    +0.002 C 
ATOM      5  C   LIG    1       25.279 -30.186   6.796  0.00  0.00    +0.001 C 
ATOM      6  C   LIG    1       25.793 -28.934   7.537  0.00  0.00    +0.023 C 
ATOM      7  C   LIG    1       25.182 -28.813   8.946  0.00  0.00    +0.009 C 
ATOM      8  C   LIG    1       25.529 -27.651   6.757  0.00  0.00    -0.041 A 
ATOM      9  C   LIG    1       24.532 -27.578   5.764  0.00  0.00    -0.041 A 
ATOM     10  C   LIG    1       24.269 -26.351   5.135  0.00  0.00    +0.049 A 
ATOM     11  C   LIG    1       24.996 -25.219   5.485  0.00  0.00    +0.117 A 
ATOM     12  C   LIG    1       25.998 -25.284   6.440  0.00  0.00    +0.045 A 
ATOM     13  C   LIG    1       23.769 -28.796   5.311  0.00  0.00    +0.036 C 
ATOM     14  C   LIG    1       26.263 -26.496   7.077  0.00  0.00    +0.008 A 
ATOM     15  C   LIG    1       23.838 -29.936   6.314  0.00  0.00    +0.009 C 
ATOM     16  C   LIG    1       26.837 -31.900   7.968  0.00  0.00    +0.008 C 
ATOM     17  C   LIG    1       25.292 -30.094   9.772  0.00  0.00    +0.011 C 
ATOM     18  C   LIG    1       26.732 -32.865   9.166  0.00  0.00    +0.049 C 
ENDROOT
BRANCH   1  20
ATOM     19  C   LIG    1       24.860 -32.822  12.320  0.00  0.00    +0.007 C 
ATOM     20  C   LIG    1       25.149 -32.606  11.182  0.00  0.00    -0.070 C 
ENDBRANCH   1  20
BRANCH   1  21
ATOM     21  O   LIG    1       24.559 -33.823   9.264  0.00  0.00    -0.376 OA
ATOM     22  H   LIG    1       23.685 -33.760   9.685  0.00  0.00    +0.211 HD
ENDBRANCH   1  21
BRANCH  11  23
ATOM     23  O   LIG    1       24.751 -24.013   4.898  0.00  0.00    -0.507 OA
ATOM     24  H   LIG    1       23.997 -23.601   5.351  0.00  0.00    +0.292 HD
ENDBRANCH  11  23
TORSDOF 3
ENDMDL
MODEL 6
REMARK VINA RESULT:      -5.8      1.882      2.670
REMARK  Name = *****
REMARK                            x       y       z     vdW  Elec       q    Type
REMARK                         _______ _______ _______ _____ _____    ______ ____
ROOT
ATOM      1  C   LIG    1       30.803 -19.992   8.628  0.00  0.00    +0.132 C 
ATOM      2  C   LIG    1       29.313 -19.694   8.248  0.00  0.00    +0.011 C 
ATOM      3  C   LIG    1       28.744 -18.642   9.223  0.00  0.00    +0.015 C 
ATOM      4  C   LIG    1       28.680 -21.096   8.392  0.00  0.00    +0.002 C 
ATOM      5  C   LIG    1       27.250 -21.238   7.825  0.00  0.00    +0.001 C 
ATOM      6  C   LIG    1       27.135 -20.737   6.370  0.00  0.00    +0.023 C 
ATOM      7  C   LIG    1       27.752 -19.336   6.197  0.00  0.00    +0.009 C 
ATOM      8  C   LIG    1       25.694 -20.723   5.876  0.00  0.00    -0.041 A 
ATOM      9  C   LIG    1       24.603 -20.690   6.768  0.00  0.00    -0.041 A 
ATOM     10  C   LIG    1       23.297 -20.590   6.264  0.00  0.00    +0.049 A 
ATOM     11  C   LIG    1       23.083 -20.533   4.892  0.00  0.00    +0.117 A 
ATOM     12  C   LIG    1       24.145 -20.592   4.003  0.00  0.00    +0.045 A 
ATOM     13  C   LIG    1       24.790 -20.816   8.258  0.00  0.00    +0.036 C 
ATOM     14  C   LIG    1       25.447 -20.684   4.493  0.00  0.00    +0.008 A 
ATOM     15  C   LIG    1       26.212 -20.507   8.698  0.00  0.00    +0.009 C 
ATOM     16  C   LIG    1       29.731 -21.993   7.697  0.00  0.00    +0.008 C 
ATOM     17  C   LIG    1       29.163 -19.214   6.771  0.00  0.00    +0.011 C 
ATOM     18  C   LIG    1       31.102 -21.385   8.054  0.00  0.00    +0.049 C 
ENDROOT
BRANCH   1  20
ATOM     19  C   LIG    1       32.243 -17.836   8.112  0.00  0.00    +0.007 C 
ATOM     20  C   LIG    1       31.653 -18.872   8.185  0.00  0.00    -0.070 C 
ENDBRANCH   1  20
BRANCH   1  21
ATOM     21  O   LIG    1       30.939 -20.103  10.050  0.00  0.00    -0.376 OA
ATOM     22  H   LIG    1       30.506 -19.320  10.430  0.00  0.00    +0.211 HD
ENDBRANCH   1  21
BRANCH  11  23
ATOM     23  O   LIG    1       21.825 -20.423   4.377  0.00  0.00    -0.507 OA
ATOM     24  H   LIG    1       21.246 -21.041   4.852  0.00  0.00    +0.292 HD
ENDBRANCH  11  23
TORSDOF 3
ENDMDL
MODEL 7
REMARK VINA RESULT:      -5.6      8.717     11.224
REMARK  Name = *****
REMARK                            x       y       z     vdW  Elec       q    Type
REMARK                         _______ _______ _______ _____ _____    ______ ____
ROOT
ATOM      1  C   LIG    1       25.474 -31.925   6.942  0.00  0.00    +0.132 C 
ATOM      2  C   LIG    1       25.235 -30.750   7.950  0.00  0.00    +0.011 C 
ATOM      3  C   LIG    1       25.175 -29.419   7.170  0.00  0.00    +0.015 C 
ATOM      4  C   LIG    1       26.468 -30.888   8.869  0.00  0.00    +0.002 C 
ATOM      5  C   LIG    1       26.425 -30.047  10.165  0.00  0.00    +0.001 C 
ATOM      6  C   LIG    1       25.123 -30.256  10.966  0.00  0.00    +0.023 C 
ATOM      7  C   LIG    1       23.874 -30.117  10.075  0.00  0.00    +0.009 C 
ATOM      8  C   LIG    1       25.012 -29.302  12.149  0.00  0.00    -0.041 A 
ATOM      9  C   LIG    1       25.737 -28.094  12.199  0.00  0.00    -0.041 A 
ATOM     10  C   LIG    1       25.535 -27.208  13.269  0.00  0.00    +0.049 A 
ATOM     11  C   LIG    1       24.633 -27.527  14.277  0.00  0.00    +0.117 A 
ATOM     12  C   LIG    1       23.934 -28.724  14.253  0.00  0.00    +0.045 A 
ATOM     13  C   LIG    1       26.772 -27.744  11.161  0.00  0.00    +0.036 C 
ATOM     14  C   LIG    1       24.121 -29.608  13.192  0.00  0.00    +0.008 A 
ATOM     15  C   LIG    1       26.609 -28.544   9.879  0.00  0.00    +0.009 C 
ATOM     16  C   LIG    1       26.521 -32.415   9.105  0.00  0.00    +0.008 C 
ATOM     17  C   LIG    1       23.940 -30.951   8.796  0.00  0.00    +0.011 C 
ATOM     18  C   LIG    1       26.090 -33.059   7.772  0.00  0.00    +0.049 C 
ENDROOT
BRANCH   1  20
ATOM     19  C   LIG    1       23.293 -32.748   5.695  0.00  0.00    +0.007 C 
ATOM     20  C   LIG    1       24.222 -32.208   6.216  0.00  0.00    -0.070 C 
ENDBRANCH   1  20
BRANCH   1  21
ATOM     21  O   LIG    1       26.462 -31.552   5.972  0.00  0.00    -0.376 OA
ATOM     22  H   LIG    1       26.455 -30.581   5.932  0.00  0.00    +0.211 HD
ENDBRANCH   1  21
BRANCH  11  23
ATOM     23  O   LIG    1       24.409 -26.677  15.320  0.00  0.00    -0.507 OA
ATOM     24  H   LIG    1       23.513 -26.839  15.658  0.00  0.00    +0.292 HD
ENDBRANCH  11  23
TORSDOF 3
ENDMDL
MODEL 8
REMARK VINA RESULT:      -5.5      1.551      6.742
REMARK  Name = *****
REMARK                            x       y       z     vdW  Elec       q    Type
REMARK                         _______ _______ _______ _____ _____    ______ ____
ROOT
ATOM      1  C   LIG    1       24.833 -22.675   6.311  0.00  0.00    +0.132 C 
ATOM      2  C   LIG    1       25.708 -21.391   6.517  0.00  0.00    +0.011 C 
ATOM      3  C   LIG    1       25.281 -20.319   5.492  0.00  0.00    +0.015 C 
ATOM      4  C   LIG    1       27.127 -21.955   6.287  0.00  0.00    +0.002 C 
ATOM      5  C   LIG    1       28.286 -21.013   6.681  0.00  0.00    +0.001 C 
ATOM      6  C   LIG    1       28.145 -20.466   8.117  0.00  0.00    +0.023 C 
ATOM      7  C   LIG    1       26.740 -19.889   8.374  0.00  0.00    +0.009 C 
ATOM      8  C   LIG    1       29.195 -19.410   8.440  0.00  0.00    -0.041 A 
ATOM      9  C   LIG    1       29.861 -18.691   7.426  0.00  0.00    -0.041 A 
ATOM     10  C   LIG    1       30.756 -17.668   7.775  0.00  0.00    +0.049 A 
ATOM     11  C   LIG    1       30.989 -17.374   9.113  0.00  0.00    +0.117 A 
ATOM     12  C   LIG    1       30.362 -18.092  10.120  0.00  0.00    +0.045 A 
ATOM     13  C   LIG    1       29.684 -19.024   5.967  0.00  0.00    +0.036 C 
ATOM     14  C   LIG    1       29.465 -19.105   9.785  0.00  0.00    +0.008 A 
ATOM     15  C   LIG    1       28.425 -19.833   5.700  0.00  0.00    +0.009 C 
ATOM     16  C   LIG    1       27.080 -23.275   7.091  0.00  0.00    +0.008 C 
ATOM     17  C   LIG    1       25.608 -20.834   7.971  0.00  0.00    +0.011 C 
ATOM     18  C   LIG    1       25.654 -23.830   6.902  0.00  0.00    +0.049 C 
ENDROOT
BRANCH   1  20
ATOM     19  C   LIG    1       22.338 -22.547   7.177  0.00  0.00    +0.007 C 
ATOM     20  C   LIG    1       23.485 -22.440   6.861  0.00  0.00    -0.070 C 
ENDBRANCH   1  20
BRANCH   1  21
ATOM     21  O   LIG    1       24.688 -22.956   4.914  0.00  0.00    -0.376 OA
ATOM     22  H   LIG    1       24.510 -22.105   4.479  0.00  0.00    +0.211 HD
ENDBRANCH   1  21
BRANCH  11  23
ATOM     23  O   LIG    1       31.844 -16.376   9.479  0.00  0.00    -0.507 OA
ATOM     24  H   LIG    1       32.449 -16.725  10.154  0.00  0.00    +0.292 HD
ENDBRANCH  11  23
TORSDOF 3
ENDMDL
MODEL 9
REMARK VINA RESULT:      -5.3      9.190     11.065
REMARK  Name = *****
REMARK                            x       y       z     vdW  Elec       q    Type
REMARK                         _______ _______ _______ _____ _____    ______ ____
ROOT
ATOM      1  C   LIG    1       25.289 -29.159  12.125  0.00  0.00    +0.132 C 
ATOM      2  C   LIG    1       25.228 -30.245  10.997  0.00  0.00    +0.011 C 
ATOM      3  C   LIG    1       24.799 -31.592  11.616  0.00  0.00    +0.015 C 
ATOM      4  C   LIG    1       26.682 -30.223  10.479  0.00  0.00    +0.002 C 
ATOM      5  C   LIG    1       26.926 -30.989   9.160  0.00  0.00    +0.001 C 
ATOM      6  C   LIG    1       25.945 -30.577   8.042  0.00  0.00    +0.023 C 
ATOM      7  C   LIG    1       24.484 -30.597   8.529  0.00  0.00    +0.009 C 
ATOM      8  C   LIG    1       26.080 -31.452   6.802  0.00  0.00    -0.041 A 
ATOM      9  C   LIG    1       26.652 -32.739   6.860  0.00  0.00    -0.041 A 
ATOM     10  C   LIG    1       26.675 -33.540   5.709  0.00  0.00    +0.049 A 
ATOM     11  C   LIG    1       26.145 -33.061   4.516  0.00  0.00    +0.117 A 
ATOM     12  C   LIG    1       25.605 -31.787   4.439  0.00  0.00    +0.045 A 
ATOM     13  C   LIG    1       27.296 -33.267   8.116  0.00  0.00    +0.036 C 
ATOM     14  C   LIG    1       25.570 -30.985   5.579  0.00  0.00    +0.008 A 
ATOM     15  C   LIG    1       26.856 -32.515   9.361  0.00  0.00    +0.009 C 
ATOM     16  C   LIG    1       26.967 -28.705  10.394  0.00  0.00    +0.008 C 
ATOM     17  C   LIG    1       24.264 -29.840   9.838  0.00  0.00    +0.011 C 
ATOM     18  C   LIG    1       26.240 -28.075  11.598  0.00  0.00    +0.049 C 
ENDROOT
BRANCH   1  20
ATOM     19  C   LIG    1       22.961 -28.143  12.857  0.00  0.00    +0.007 C 
ATOM     20  C   LIG    1       23.919 -28.753  12.487  0.00  0.00    -0.070 C 
ENDBRANCH   1  20
BRANCH   1  21
ATOM     21  O   LIG    1       25.906 -29.701  13.300  0.00  0.00    -0.376 OA
ATOM     22  H   LIG    1       25.372 -30.470  13.561  0.00  0.00    +0.211 HD
ENDBRANCH   1  21
BRANCH  11  23
ATOM     23  O   LIG    1       26.144 -33.825   3.386  0.00  0.00    -0.507 OA
ATOM     24  H   LIG    1       25.608 -34.617   3.554  0.00  0.00    +0.292 HD
ENDBRANCH  11  23
TORSDOF 3
ENDMDL
