MODEL 1
REMARK VINA RESULT:      -3.6      0.000      0.000
REMARK  Name = *****
REMARK                            x       y       z     vdW  Elec       q    Type
REMARK                         _______ _______ _______ _____ _____    ______ ____
ROOT
ATOM      1  N   LIG    1       24.252 -19.035   3.370  0.00  0.00    -0.196 N 
ATOM      2  H   LIG    1       25.265 -18.995   3.245  0.00  0.00    +0.175 HD
ENDROOT
BRANCH   1   5
ATOM      3  C   LIG    1       24.175 -15.424   4.099  0.00  0.00    +0.263 A 
ATOM      4  C   LIG    1       24.720 -16.606   3.611  0.00  0.00    +0.223 A 
ATOM      5  C   LIG    1       23.892 -17.708   3.785  0.00  0.00    +0.187 A 
ATOM      6  N   LIG    1       22.688 -17.691   4.383  0.00  0.00    -0.215 NA
ATOM      7  C   LIG    1       22.282 -16.489   4.807  0.00  0.00    +0.227 A 
ATOM      8  N   LIG    1       22.965 -15.344   4.695  0.00  0.00    -0.198 NA
BRANCH   3  10
ATOM      9  C   LIG    1       24.138 -13.087   3.723  0.00  0.00    +0.279 C 
ATOM     10  O   LIG    1       24.902 -14.256   3.994  0.00  0.00    -0.477 OA
ENDBRANCH   3  10
BRANCH   4  11
ATOM     11  O   LIG    1       25.949 -16.825   3.058  0.00  0.00    -0.487 OA
ATOM     12  C   LIG    1       27.094 -16.356   3.759  0.00  0.00    +0.277 C 
ENDBRANCH   4  11
ENDBRANCH   1   5
BRANCH   1  13
ATOM     13  S   LIG    1       24.010 -20.204   4.579  0.00  0.00    +0.074 S 
ATOM     14  O   LIG    1       23.724 -21.491   3.978  0.00  0.00    -0.150 OA
ATOM     15  O   LIG    1       23.124 -19.618   5.557  0.00  0.00    -0.150 OA
BRANCH  13  16
ATOM     16  C   LIG    1       25.622 -20.323   5.348  0.00  0.00    +0.109 A 
ATOM     17  C   LIG    1       25.822 -21.218   6.406  0.00  0.00    +0.030 A 
ATOM     18  C   LIG    1       27.099 -21.361   6.966  0.00  0.00    +0.024 A 
ATOM     19  C   LIG    1       28.197 -20.681   6.430  0.00  0.00    +0.025 A 
ATOM     20  C   LIG    1       27.976 -19.764   5.398  0.00  0.00    +0.024 A 
ATOM     21  C   LIG    1       26.702 -19.602   4.834  0.00  0.00    +0.030 A 
BRANCH  19  22
ATOM     22  N   LIG    1       29.445 -20.752   7.061  0.00  0.00    -0.358 N 
ATOM     23  H   LIG    1       29.849 -21.684   7.064  0.00  0.00    +0.142 HD
ATOM     24  H   LIG    1       30.109 -20.056   6.732  0.00  0.00    +0.142 HD
ENDBRANCH  19  22
ENDBRANCH  13  16
ENDBRANCH   1  13
TORSDOF 6
ENDMDL
MODEL 2
REMARK VINA RESULT:      -3.0      2.718      3.814
REMARK  Name = *****
REMARK                            x       y       z     vdW  Elec       q    Type
REMARK                         _______ _______ _______ _____ _____    ______ ____
ROOT
ATOM      1  N   LIG    1       24.973 -16.894   3.005  0.00  0.00    -0.196 N 
ATOM      2  H   LIG    1       24.956 -16.803   1.988  0.00  0.00    +0.175 HD
ENDROOT
BRANCH   1   5
ATOM      3  C   LIG    1       25.438 -13.494   4.347  0.00  0.00    +0.263 A 
ATOM      4  C   LIG    1       24.713 -14.619   3.974  0.00  0.00    +0.223 A 
ATOM      5  C   LIG    1       25.505 -15.642   3.466  0.00  0.00    +0.187 A 
ATOM      6  N   LIG    1       26.839 -15.588   3.306  0.00  0.00    -0.215 NA
ATOM      7  C   LIG    1       27.413 -14.448   3.706  0.00  0.00    +0.227 A 
ATOM      8  N   LIG    1       26.780 -13.389   4.224  0.00  0.00    -0.198 NA
BRANCH   3  10
ATOM      9  C   LIG    1       23.874 -11.760   3.958  0.00  0.00    +0.279 C 
ATOM     10  O   LIG    1       24.767 -12.403   4.860  0.00  0.00    -0.477 OA
ENDBRANCH   3  10
BRANCH   4  11
ATOM     11  O   LIG    1       23.363 -14.818   3.983  0.00  0.00    -0.487 OA
ATOM     12  C   LIG    1       22.758 -15.274   5.188  0.00  0.00    +0.277 C 
ENDBRANCH   4  11
ENDBRANCH   1   5
BRANCH   1  13
ATOM     13  S   LIG    1       26.004 -18.211   3.304  0.00  0.00    +0.074 S 
ATOM     14  O   LIG    1       27.161 -17.776   4.059  0.00  0.00    -0.150 OA
ATOM     15  O   LIG    1       26.145 -18.924   2.057  0.00  0.00    -0.150 OA
BRANCH  13  16
ATOM     16  C   LIG    1       25.025 -19.248   4.386  0.00  0.00    +0.109 A 
ATOM     17  C   LIG    1       25.662 -20.099   5.295  0.00  0.00    +0.030 A 
ATOM     18  C   LIG    1       24.898 -20.864   6.188  0.00  0.00    +0.024 A 
ATOM     19  C   LIG    1       23.508 -20.728   6.240  0.00  0.00    +0.025 A 
ATOM     20  C   LIG    1       22.881 -19.902   5.301  0.00  0.00    +0.024 A 
ATOM     21  C   LIG    1       23.632 -19.139   4.394  0.00  0.00    +0.030 A 
BRANCH  19  22
ATOM     22  N   LIG    1       22.748 -21.570   7.062  0.00  0.00    -0.358 N 
ATOM     23  H   LIG    1       22.796 -22.550   6.798  0.00  0.00    +0.142 HD
ATOM     24  H   LIG    1       22.923 -21.439   8.054  0.00  0.00    +0.142 HD
ENDBRANCH  19  22
ENDBRANCH  13  16
ENDBRANCH   1  13
TORSDOF 6
ENDMDL
MODEL 3
REMARK VINA RESULT:      -2.8      3.053      6.059
REMARK  Name = *****
REMARK                            x       y       z     vdW  Elec       q    Type
REMARK                         _______ _______ _______ _____ _____    ______ ____
ROOT
ATOM      1  N   LIG    1       26.525 -16.998   3.297  0.00  0.00    -0.196 N 
ATOM      2  H   LIG    1       26.711 -17.174   2.308  0.00  0.00    +0.175 HD
ENDROOT
BRANCH   1   5
ATOM      3  C   LIG    1       25.358 -20.177   4.747  0.00  0.00    +0.263 A 
ATOM      4  C   LIG    1       26.284 -19.182   4.459  0.00  0.00    +0.223 A 
ATOM      5  C   LIG    1       25.752 -18.131   3.721  0.00  0.00    +0.187 A 
ATOM      6  N   LIG    1       24.483 -18.050   3.284  0.00  0.00    -0.215 NA
ATOM      7  C   LIG    1       23.697 -19.074   3.632  0.00  0.00    +0.227 A 
ATOM      8  N   LIG    1       24.067 -20.142   4.347  0.00  0.00    -0.198 NA
BRANCH   3  10
ATOM      9  C   LIG    1       25.135 -21.444   6.735  0.00  0.00    +0.279 C 
ATOM     10  O   LIG    1       25.763 -21.282   5.469  0.00  0.00    -0.477 OA
ENDBRANCH   3  10
BRANCH   4  11
ATOM     11  O   LIG    1       27.618 -19.137   4.743  0.00  0.00    -0.487 OA
ATOM     12  C   LIG    1       28.073 -19.760   5.938  0.00  0.00    +0.277 C 
ENDBRANCH   4  11
ENDBRANCH   1   5
BRANCH   1  13
ATOM     13  S   LIG    1       25.649 -15.542   3.320  0.00  0.00    +0.074 S 
ATOM     14  O   LIG    1       24.521 -15.654   4.223  0.00  0.00    -0.150 OA
ATOM     15  O   LIG    1       25.474 -15.137   1.946  0.00  0.00    -0.150 OA
BRANCH  13  16
ATOM     16  C   LIG    1       26.805 -14.391   4.056  0.00  0.00    +0.109 A 
ATOM     17  C   LIG    1       27.901 -13.937   3.314  0.00  0.00    +0.030 A 
ATOM     18  C   LIG    1       28.772 -12.987   3.864  0.00  0.00    +0.024 A 
ATOM     19  C   LIG    1       28.515 -12.421   5.117  0.00  0.00    +0.025 A 
ATOM     20  C   LIG    1       27.437 -12.909   5.863  0.00  0.00    +0.024 A 
ATOM     21  C   LIG    1       26.565 -13.868   5.329  0.00  0.00    +0.030 A 
BRANCH  19  22
ATOM     22  N   LIG    1       29.445 -11.550   5.700  0.00  0.00    -0.358 N 
ATOM     23  H   LIG    1       29.263 -10.569   5.506  0.00  0.00    +0.142 HD
ATOM     24  H   LIG    1       29.593 -11.716   6.691  0.00  0.00    +0.142 HD
ENDBRANCH  19  22
ENDBRANCH  13  16
ENDBRANCH   1  13
TORSDOF 6
ENDMDL
MODEL 4
REMARK VINA RESULT:      -2.3      2.876      5.768
REMARK  Name = *****
REMARK                            x       y       z     vdW  Elec       q    Type
REMARK                         _______ _______ _______ _____ _____    ______ ____
ROOT
ATOM      1  N   LIG    1       24.575 -16.305   3.295  0.00  0.00    -0.196 N 
ATOM      2  H   LIG    1       24.261 -16.225   2.326  0.00  0.00    +0.175 HD
ENDROOT
BRANCH   1   5
ATOM      3  C   LIG    1       23.503 -19.625   4.479  0.00  0.00    +0.263 A 
ATOM      4  C   LIG    1       24.397 -18.691   3.970  0.00  0.00    +0.223 A 
ATOM      5  C   LIG    1       23.843 -17.426   3.815  0.00  0.00    +0.187 A 
ATOM      6  N   LIG    1       22.570 -17.094   4.090  0.00  0.00    -0.215 NA
ATOM      7  C   LIG    1       21.816 -18.088   4.574  0.00  0.00    +0.227 A 
ATOM      8  N   LIG    1       22.217 -19.346   4.787  0.00  0.00    -0.198 NA
BRANCH   3  10
ATOM      9  C   LIG    1       23.704 -21.448   5.976  0.00  0.00    +0.279 C 
ATOM     10  O   LIG    1       23.928 -20.924   4.673  0.00  0.00    -0.477 OA
ENDBRANCH   3  10
BRANCH   4  11
ATOM     11  O   LIG    1       25.687 -18.865   3.558  0.00  0.00    -0.487 OA
ATOM     12  C   LIG    1       26.676 -19.135   4.544  0.00  0.00    +0.277 C 
ENDBRANCH   4  11
ENDBRANCH   1   5
BRANCH   1  13
ATOM     13  S   LIG    1       24.141 -14.828   4.014  0.00  0.00    +0.074 S 
ATOM     14  O   LIG    1       23.649 -15.055   5.358  0.00  0.00    -0.150 OA
ATOM     15  O   LIG    1       23.360 -14.102   3.041  0.00  0.00    -0.150 OA
BRANCH  13  16
ATOM     16  C   LIG    1       25.708 -13.977   4.159  0.00  0.00    +0.109 A 
ATOM     17  C   LIG    1       26.168 -13.580   5.420  0.00  0.00    +0.030 A 
ATOM     18  C   LIG    1       27.425 -12.972   5.544  0.00  0.00    +0.024 A 
ATOM     19  C   LIG    1       28.265 -12.829   4.435  0.00  0.00    +0.025 A 
ATOM     20  C   LIG    1       27.778 -13.197   3.176  0.00  0.00    +0.024 A 
ATOM     21  C   LIG    1       26.518 -13.796   3.036  0.00  0.00    +0.030 A 
BRANCH  19  22
ATOM     22  N   LIG    1       29.472 -12.129   4.551  0.00  0.00    -0.358 N 
ATOM     23  H   LIG    1       30.282 -12.656   4.236  0.00  0.00    +0.142 HD
ATOM     24  H   LIG    1       29.446 -11.199   4.141  0.00  0.00    +0.142 HD
ENDBRANCH  19  22
ENDBRANCH  13  16
ENDBRANCH   1  13
TORSDOF 6
ENDMDL
MODEL 5
REMARK VINA RESULT:      -1.6      3.184      6.178
REMARK  Name = *****
REMARK                            x       y       z     vdW  Elec       q    Type
REMARK                         _______ _______ _______ _____ _____    ______ ____
ROOT
ATOM      1  N   LIG    1       25.317 -16.198   2.681  0.00  0.00    -0.196 N 
ATOM      2  H   LIG    1       24.505 -16.594   2.206  0.00  0.00    +0.175 HD
ENDROOT
BRANCH   1   5
ATOM      3  C   LIG    1       25.911 -19.398   4.407  0.00  0.00    +0.263 A 
ATOM      4  C   LIG    1       25.176 -18.469   3.680  0.00  0.00    +0.223 A 
ATOM      5  C   LIG    1       25.879 -17.302   3.408  0.00  0.00    +0.187 A 
ATOM      6  N   LIG    1       27.135 -17.038   3.807  0.00  0.00    -0.215 NA
ATOM      7  C   LIG    1       27.728 -18.017   4.499  0.00  0.00    +0.227 A 
ATOM      8  N   LIG    1       27.180 -19.194   4.823  0.00  0.00    -0.198 NA
BRANCH   3  10
ATOM      9  C   LIG    1       25.561 -21.033   6.083  0.00  0.00    +0.279 C 
ATOM     10  O   LIG    1       25.323 -20.598   4.750  0.00  0.00    -0.477 OA
ENDBRANCH   3  10
BRANCH   4  11
ATOM     11  O   LIG    1       23.876 -18.529   3.268  0.00  0.00    -0.487 OA
ATOM     12  C   LIG    1       22.864 -18.683   4.256  0.00  0.00    +0.277 C 
ENDBRANCH   4  11
ENDBRANCH   1   5
BRANCH   1  13
ATOM     13  S   LIG    1       24.682 -14.986   3.689  0.00  0.00    +0.074 S 
ATOM     14  O   LIG    1       24.134 -15.577   4.893  0.00  0.00    -0.150 OA
ATOM     15  O   LIG    1       23.889 -14.118   2.851  0.00  0.00    -0.150 OA
BRANCH  13  16
ATOM     16  C   LIG    1       26.136 -14.059   4.166  0.00  0.00    +0.109 A 
ATOM     17  C   LIG    1       27.034 -13.623   3.186  0.00  0.00    +0.030 A 
ATOM     18  C   LIG    1       28.139 -12.841   3.550  0.00  0.00    +0.024 A 
ATOM     19  C   LIG    1       28.314 -12.419   4.871  0.00  0.00    +0.025 A 
ATOM     20  C   LIG    1       27.430 -12.892   5.846  0.00  0.00    +0.024 A 
ATOM     21  C   LIG    1       26.326 -13.684   5.498  0.00  0.00    +0.030 A 
BRANCH  19  22
ATOM     22  N   LIG    1       29.474 -11.727   5.241  0.00  0.00    -0.358 N 
ATOM     23  H   LIG    1       29.325 -10.733   5.395  0.00  0.00    +0.142 HD
ATOM     24  H   LIG    1       29.976 -12.155   6.015  0.00  0.00    +0.142 HD
ENDBRANCH  19  22
ENDBRANCH  13  16
ENDBRANCH   1  13
TORSDOF 6
ENDMDL
MODEL 6
REMARK VINA RESULT:      -1.5      2.561      6.673
REMARK  Name = *****
REMARK                            x       y       z     vdW  Elec       q    Type
REMARK                         _______ _______ _______ _____ _____    ______ ____
ROOT
ATOM      1  N   LIG    1       25.943 -16.702   2.951  0.00  0.00    -0.196 N 
ATOM      2  H   LIG    1       25.019 -16.429   3.290  0.00  0.00    +0.175 HD
ENDROOT
BRANCH   1   5
ATOM      3  C   LIG    1       25.919 -19.941   4.706  0.00  0.00    +0.263 A 
ATOM      4  C   LIG    1       25.391 -18.922   3.921  0.00  0.00    +0.223 A 
ATOM      5  C   LIG    1       26.275 -17.869   3.719  0.00  0.00    +0.187 A 
ATOM      6  N   LIG    1       27.515 -17.784   4.229  0.00  0.00    -0.215 NA
ATOM      7  C   LIG    1       27.899 -18.832   4.966  0.00  0.00    +0.227 A 
ATOM      8  N   LIG    1       27.163 -19.916   5.234  0.00  0.00    -0.198 NA
BRANCH   3  10
ATOM      9  C   LIG    1       24.678 -21.133   6.333  0.00  0.00    +0.279 C 
ATOM     10  O   LIG    1       25.138 -21.043   4.989  0.00  0.00    -0.477 OA
ENDBRANCH   3  10
BRANCH   4  11
ATOM     11  O   LIG    1       24.138 -18.800   3.395  0.00  0.00    -0.487 OA
ATOM     12  C   LIG    1       23.058 -18.542   4.285  0.00  0.00    +0.277 C 
ENDBRANCH   4  11
ENDBRANCH   1   5
BRANCH   1  13
ATOM     13  S   LIG    1       26.941 -15.369   3.293  0.00  0.00    +0.074 S 
ATOM     14  O   LIG    1       27.489 -14.830   2.065  0.00  0.00    -0.150 OA
ATOM     15  O   LIG    1       27.794 -15.756   4.391  0.00  0.00    -0.150 OA
BRANCH  13  16
ATOM     16  C   LIG    1       25.787 -14.161   3.935  0.00  0.00    +0.109 A 
ATOM     17  C   LIG    1       24.518 -14.036   3.358  0.00  0.00    +0.030 A 
ATOM     18  C   LIG    1       23.590 -13.137   3.900  0.00  0.00    +0.024 A 
ATOM     19  C   LIG    1       23.884 -12.417   5.062  0.00  0.00    +0.025 A 
ATOM     20  C   LIG    1       25.168 -12.523   5.607  0.00  0.00    +0.024 A 
ATOM     21  C   LIG    1       26.111 -13.411   5.069  0.00  0.00    +0.030 A 
BRANCH  19  22
ATOM     22  N   LIG    1       22.991 -11.447   5.534  0.00  0.00    -0.358 N 
ATOM     23  H   LIG    1       22.149 -11.835   5.949  0.00  0.00    +0.142 HD
ATOM     24  H   LIG    1       23.424 -10.755   6.140  0.00  0.00    +0.142 HD
ENDBRANCH  19  22
ENDBRANCH  13  16
ENDBRANCH   1  13
TORSDOF 6
ENDMDL
MODEL 7
REMARK VINA RESULT:      -1.0      3.166      6.301
REMARK  Name = *****
REMARK                            x       y       z     vdW  Elec       q    Type
REMARK                         _______ _______ _______ _____ _____    ______ ____
ROOT
ATOM      1  N   LIG    1       24.113 -15.172   4.042  0.00  0.00    -0.196 N 
ATOM      2  H   LIG    1       24.518 -14.905   4.941  0.00  0.00    +0.175 HD
ENDROOT
BRANCH   1   5
ATOM      3  C   LIG    1       24.453 -18.827   3.729  0.00  0.00    +0.263 A 
ATOM      4  C   LIG    1       23.786 -17.635   3.983  0.00  0.00    +0.223 A 
ATOM      5  C   LIG    1       24.585 -16.510   3.822  0.00  0.00    +0.187 A 
ATOM      6  N   LIG    1       25.886 -16.521   3.481  0.00  0.00    -0.215 NA
ATOM      7  C   LIG    1       26.405 -17.734   3.265  0.00  0.00    +0.227 A 
ATOM      8  N   LIG    1       25.754 -18.898   3.370  0.00  0.00    -0.198 NA
BRANCH   3  10
ATOM      9  C   LIG    1       24.548 -21.113   4.336  0.00  0.00    +0.279 C 
ATOM     10  O   LIG    1       23.772 -20.019   3.862  0.00  0.00    -0.477 OA
ENDBRANCH   3  10
BRANCH   4  11
ATOM     11  O   LIG    1       22.507 -17.438   4.418  0.00  0.00    -0.487 OA
ATOM     12  C   LIG    1       21.498 -18.333   3.965  0.00  0.00    +0.277 C 
ENDBRANCH   4  11
ENDBRANCH   1   5
BRANCH   1  13
ATOM     13  S   LIG    1       24.744 -14.048   2.934  0.00  0.00    +0.074 S 
ATOM     14  O   LIG    1       23.794 -12.974   2.719  0.00  0.00    -0.150 OA
ATOM     15  O   LIG    1       25.283 -14.806   1.830  0.00  0.00    -0.150 OA
BRANCH  13  16
ATOM     16  C   LIG    1       26.138 -13.355   3.816  0.00  0.00    +0.109 A 
ATOM     17  C   LIG    1       26.107 -13.278   5.213  0.00  0.00    +0.030 A 
ATOM     18  C   LIG    1       27.224 -12.796   5.910  0.00  0.00    +0.024 A 
ATOM     19  C   LIG    1       28.403 -12.466   5.234  0.00  0.00    +0.025 A 
ATOM     20  C   LIG    1       28.407 -12.513   3.836  0.00  0.00    +0.024 A 
ATOM     21  C   LIG    1       27.294 -12.983   3.125  0.00  0.00    +0.030 A 
BRANCH  19  22
ATOM     22  N   LIG    1       29.474 -11.890   5.928  0.00  0.00    -0.358 N 
ATOM     23  H   LIG    1       30.338 -12.420   5.859  0.00  0.00    +0.142 HD
ATOM     24  H   LIG    1       29.619 -10.907   5.712  0.00  0.00    +0.142 HD
ENDBRANCH  19  22
ENDBRANCH  13  16
ENDBRANCH   1  13
TORSDOF 6
ENDMDL
MODEL 8
REMARK VINA RESULT:      -1.0      2.998      6.918
REMARK  Name = *****
REMARK                            x       y       z     vdW  Elec       q    Type
REMARK                         _______ _______ _______ _____ _____    ______ ____
ROOT
ATOM      1  N   LIG    1       27.952 -15.297   4.202  0.00  0.00    -0.196 N 
ATOM      2  H   LIG    1       28.897 -15.614   3.976  0.00  0.00    +0.175 HD
ENDROOT
BRANCH   1   5
ATOM      3  C   LIG    1       26.597 -18.722   4.095  0.00  0.00    +0.263 A 
ATOM      4  C   LIG    1       27.546 -17.744   4.369  0.00  0.00    +0.223 A 
ATOM      5  C   LIG    1       27.133 -16.463   4.023  0.00  0.00    +0.187 A 
ATOM      6  N   LIG    1       25.956 -16.152   3.453  0.00  0.00    -0.215 NA
ATOM      7  C   LIG    1       25.135 -17.187   3.244  0.00  0.00    +0.227 A 
ATOM      8  N   LIG    1       25.393 -18.466   3.538  0.00  0.00    -0.198 NA
BRANCH   3  10
ATOM      9  C   LIG    1       25.926 -20.710   5.191  0.00  0.00    +0.279 C 
ATOM     10  O   LIG    1       26.888 -20.039   4.386  0.00  0.00    -0.477 OA
ENDBRANCH   3  10
BRANCH   4  11
ATOM     11  O   LIG    1       28.812 -17.884   4.859  0.00  0.00    -0.487 OA
ATOM     12  C   LIG    1       29.036 -18.851   5.879  0.00  0.00    +0.277 C 
ENDBRANCH   4  11
ENDBRANCH   1   5
BRANCH   1  13
ATOM     13  S   LIG    1       27.626 -14.068   3.075  0.00  0.00    +0.074 S 
ATOM     14  O   LIG    1       27.204 -14.648   1.816  0.00  0.00    -0.150 OA
ATOM     15  O   LIG    1       28.726 -13.136   3.142  0.00  0.00    -0.150 OA
BRANCH  13  16
ATOM     16  C   LIG    1       26.204 -13.244   3.783  0.00  0.00    +0.109 A 
ATOM     17  C   LIG    1       25.144 -12.855   2.956  0.00  0.00    +0.030 A 
ATOM     18  C   LIG    1       24.001 -12.268   3.516  0.00  0.00    +0.024 A 
ATOM     19  C   LIG    1       23.868 -12.138   4.902  0.00  0.00    +0.025 A 
ATOM     20  C   LIG    1       24.950 -12.497   5.714  0.00  0.00    +0.024 A 
ATOM     21  C   LIG    1       26.104 -13.075   5.166  0.00  0.00    +0.030 A 
BRANCH  19  22
ATOM     22  N   LIG    1       22.770 -11.458   5.444  0.00  0.00    -0.358 N 
ATOM     23  H   LIG    1       22.789 -10.455   5.279  0.00  0.00    +0.142 HD
ATOM     24  H   LIG    1       21.874 -11.864   5.191  0.00  0.00    +0.142 HD
ENDBRANCH  19  22
ENDBRANCH  13  16
ENDBRANCH   1  13
TORSDOF 6
ENDMDL
MODEL 9
REMARK VINA RESULT:      -0.8      1.243      2.055
REMARK  Name = *****
REMARK                            x       y       z     vdW  Elec       q    Type
REMARK                         _______ _______ _______ _____ _____    ______ ____
ROOT
ATOM      1  N   LIG    1       24.354 -18.994   3.093  0.00  0.00    -0.196 N 
ATOM      2  H   LIG    1       25.157 -19.469   2.678  0.00  0.00    +0.175 HD
ENDROOT
BRANCH   1   5
ATOM      3  C   LIG    1       24.692 -15.454   4.057  0.00  0.00    +0.263 A 
ATOM      4  C   LIG    1       24.014 -16.648   3.841  0.00  0.00    +0.223 A 
ATOM      5  C   LIG    1       24.837 -17.676   3.394  0.00  0.00    +0.187 A 
ATOM      6  N   LIG    1       26.155 -17.570   3.155  0.00  0.00    -0.215 NA
ATOM      7  C   LIG    1       26.682 -16.366   3.404  0.00  0.00    +0.227 A 
ATOM      8  N   LIG    1       26.017 -15.293   3.847  0.00  0.00    -0.198 NA
BRANCH   3  10
ATOM      9  C   LIG    1       23.920 -13.269   3.575  0.00  0.00    +0.279 C 
ATOM     10  O   LIG    1       23.986 -14.352   4.495  0.00  0.00    -0.477 OA
ENDBRANCH   3  10
BRANCH   4  11
ATOM     11  O   LIG    1       22.680 -16.914   3.947  0.00  0.00    -0.487 OA
ATOM     12  C   LIG    1       21.956 -16.309   5.012  0.00  0.00    +0.277 C 
ENDBRANCH   4  11
ENDBRANCH   1   5
BRANCH   1  13
ATOM     13  S   LIG    1       23.983 -19.904   4.480  0.00  0.00    +0.074 S 
ATOM     14  O   LIG    1       23.521 -21.224   4.100  0.00  0.00    -0.150 OA
ATOM     15  O   LIG    1       23.197 -19.053   5.341  0.00  0.00    -0.150 OA
BRANCH  13  16
ATOM     16  C   LIG    1       25.577 -20.105   5.266  0.00  0.00    +0.109 A 
ATOM     17  C   LIG    1       25.672 -20.801   6.477  0.00  0.00    +0.030 A 
ATOM     18  C   LIG    1       26.928 -21.016   7.062  0.00  0.00    +0.024 A 
ATOM     19  C   LIG    1       28.099 -20.617   6.411  0.00  0.00    +0.025 A 
ATOM     20  C   LIG    1       27.988 -19.891   5.220  0.00  0.00    +0.024 A 
ATOM     21  C   LIG    1       26.738 -19.659   4.629  0.00  0.00    +0.030 A 
BRANCH  19  22
ATOM     22  N   LIG    1       29.338 -20.744   7.051  0.00  0.00    -0.358 N 
ATOM     23  H   LIG    1       29.703 -19.867   7.413  0.00  0.00    +0.142 HD
ATOM     24  H   LIG    1       29.362 -21.479   7.752  0.00  0.00    +0.142 HD
ENDBRANCH  19  22
ENDBRANCH  13  16
ENDBRANCH   1  13
TORSDOF 6
ENDMDL
