MODEL 1
REMARK VINA RESULT:      -7.8      0.000      0.000
REMARK  Name = *****
REMARK                            x       y       z     vdW  Elec       q    Type
REMARK                         _______ _______ _______ _____ _____    ______ ____
ROOT
ATOM      1  C   LIG    1       25.702 -19.986   4.253  0.00  0.00    -0.027 C 
ATOM      2  C   LIG    1       26.657 -19.973   5.205  0.00  0.00    -0.031 C 
ENDROOT
BRANCH   1   3
ATOM      3  C   LIG    1       24.386 -20.715   4.102  0.00  0.00    +0.054 C 
BRANCH   3   5
ATOM      4  C   LIG    1       22.802 -20.241   6.111  0.00  0.00    -0.027 C 
ATOM      5  C   LIG    1       23.239 -20.064   4.845  0.00  0.00    -0.027 C 
BRANCH   4   6
ATOM      6  C   LIG    1       23.304 -21.150   7.199  0.00  0.00    +0.054 C 
BRANCH   6   8
ATOM      7  C   LIG    1       23.411 -23.747   6.676  0.00  0.00    -0.031 C 
ATOM      8  C   LIG    1       22.869 -22.609   7.152  0.00  0.00    -0.027 C 
BRANCH   7   9
ATOM      9  C   LIG    1       24.655 -23.865   5.863  0.00  0.00    +0.027 C 
BRANCH   9  10
ATOM     10  C   LIG    1       25.917 -24.348   6.596  0.00  0.00    +0.004 C 
BRANCH  10  11
ATOM     11  C   LIG    1       25.926 -25.852   6.926  0.00  0.00    +0.000 C 
BRANCH  11  13
ATOM     12  C   LIG    1       24.553 -27.560   5.516  0.00  0.00    +0.004 C 
ATOM     13  C   LIG    1       25.858 -26.804   5.723  0.00  0.00    -0.003 C 
ENDBRANCH  11  13
ENDBRANCH  10  11
ENDBRANCH   9  10
ENDBRANCH   7   9
ENDBRANCH   6   8
ENDBRANCH   4   6
ENDBRANCH   3   5
ENDBRANCH   1   3
BRANCH   2  14
ATOM     14  C   LIG    1       26.733 -20.658   6.539  0.00  0.00    +0.027 C 
BRANCH  14  15
ATOM     15  C   LIG    1       28.096 -20.391   7.184  0.00  0.00    +0.004 C 
BRANCH  15  16
ATOM     16  C   LIG    1       29.226 -19.845   6.304  0.00  0.00    +0.000 C 
BRANCH  16  17
ATOM     17  C   LIG    1       30.257 -18.981   7.037  0.00  0.00    +0.001 C 
BRANCH  17  18
ATOM     18  C   LIG    1       30.137 -18.910   8.561  0.00  0.00    +0.011 C 
BRANCH  18  19
ATOM     19  C   LIG    1       30.227 -17.478   9.120  0.00  0.00    +0.120 C 
BRANCH  19  20
ATOM     20  C   LIG    1       30.371 -17.426  10.602  0.00  0.00    +0.305 C 
ATOM     21  O   LIG    1       30.221 -16.387  11.272  0.00  0.00    -0.251 OA
BRANCH  20  22
ATOM     22  O   LIG    1       30.627 -18.592  11.191  0.00  0.00    -0.481 OA
ATOM     23  H   LIG    1       31.558 -18.890  11.110  0.00  0.00    +0.295 HD
ENDBRANCH  20  22
ENDBRANCH  19  20
ENDBRANCH  18  19
ENDBRANCH  17  18
ENDBRANCH  16  17
ENDBRANCH  15  16
ENDBRANCH  14  15
ENDBRANCH   2  14
TORSDOF 16
ENDMDL
MODEL 2
REMARK VINA RESULT:      -7.7      1.233      3.931
REMARK  Name = *****
REMARK                            x       y       z     vdW  Elec       q    Type
REMARK                         _______ _______ _______ _____ _____    ______ ____
ROOT
ATOM      1  C   LIG    1       25.896 -21.191   8.159  0.00  0.00    -0.027 C 
ATOM      2  C   LIG    1       26.924 -20.371   7.858  0.00  0.00    -0.031 C 
ENDROOT
BRANCH   1   3
ATOM      3  C   LIG    1       25.715 -22.693   8.138  0.00  0.00    +0.054 C 
BRANCH   3   5
ATOM      4  C   LIG    1       25.373 -24.171   6.024  0.00  0.00    -0.027 C 
ATOM      5  C   LIG    1       26.078 -23.333   6.815  0.00  0.00    -0.027 C 
BRANCH   4   6
ATOM      6  C   LIG    1       23.999 -24.756   6.201  0.00  0.00    +0.054 C 
BRANCH   6   8
ATOM      7  C   LIG    1       22.374 -22.706   6.638  0.00  0.00    -0.031 C 
ATOM      8  C   LIG    1       22.954 -23.894   6.899  0.00  0.00    -0.027 C 
BRANCH   7   9
ATOM      9  C   LIG    1       22.743 -21.760   5.547  0.00  0.00    +0.027 C 
BRANCH   9  10
ATOM     10  C   LIG    1       22.980 -20.296   5.952  0.00  0.00    +0.004 C 
BRANCH  10  11
ATOM     11  C   LIG    1       22.985 -19.303   4.775  0.00  0.00    +0.000 C 
BRANCH  11  13
ATOM     12  C   LIG    1       25.485 -19.847   4.284  0.00  0.00    +0.004 C 
ATOM     13  C   LIG    1       24.107 -19.488   3.745  0.00  0.00    -0.003 C 
ENDBRANCH  11  13
ENDBRANCH  10  11
ENDBRANCH   9  10
ENDBRANCH   7   9
ENDBRANCH   6   8
ENDBRANCH   4   6
ENDBRANCH   3   5
ENDBRANCH   1   3
BRANCH   2  14
ATOM     14  C   LIG    1       28.334 -20.668   7.436  0.00  0.00    +0.027 C 
BRANCH  14  15
ATOM     15  C   LIG    1       28.721 -19.777   6.252  0.00  0.00    +0.004 C 
BRANCH  15  16
ATOM     16  C   LIG    1       29.869 -18.777   6.434  0.00  0.00    +0.000 C 
BRANCH  16  17
ATOM     17  C   LIG    1       31.103 -19.333   7.152  0.00  0.00    +0.001 C 
BRANCH  17  18
ATOM     18  C   LIG    1       31.208 -19.056   8.654  0.00  0.00    +0.011 C 
BRANCH  18  19
ATOM     19  C   LIG    1       30.462 -17.784   9.099  0.00  0.00    +0.120 C 
BRANCH  19  20
ATOM     20  C   LIG    1       30.476 -17.572  10.574  0.00  0.00    +0.305 C 
ATOM     21  O   LIG    1       30.809 -18.451  11.392  0.00  0.00    -0.251 OA
BRANCH  20  22
ATOM     22  O   LIG    1       30.154 -16.345  10.977  0.00  0.00    -0.481 OA
ATOM     23  H   LIG    1       29.412 -15.939  10.481  0.00  0.00    +0.295 HD
ENDBRANCH  20  22
ENDBRANCH  19  20
ENDBRANCH  18  19
ENDBRANCH  17  18
ENDBRANCH  16  17
ENDBRANCH  15  16
ENDBRANCH  14  15
ENDBRANCH   2  14
TORSDOF 16
ENDMDL
MODEL 3
REMARK VINA RESULT:      -7.6      1.480      1.780
REMARK  Name = *****
REMARK                            x       y       z     vdW  Elec       q    Type
REMARK                         _______ _______ _______ _____ _____    ______ ____
ROOT
ATOM      1  C   LIG    1       25.444 -18.985   3.657  0.00  0.00    -0.027 C 
ATOM      2  C   LIG    1       26.304 -19.579   4.509  0.00  0.00    -0.031 C 
ENDROOT
BRANCH   1   3
ATOM      3  C   LIG    1       24.008 -19.253   3.264  0.00  0.00    +0.054 C 
BRANCH   3   5
ATOM      4  C   LIG    1       22.403 -19.687   5.265  0.00  0.00    -0.027 C 
ATOM      5  C   LIG    1       23.005 -18.905   4.343  0.00  0.00    -0.027 C 
BRANCH   4   6
ATOM      6  C   LIG    1       22.521 -21.164   5.520  0.00  0.00    +0.054 C 
BRANCH   6   8
ATOM      7  C   LIG    1       23.735 -22.674   7.331  0.00  0.00    -0.031 C 
ATOM      8  C   LIG    1       23.056 -21.602   6.878  0.00  0.00    -0.027 C 
BRANCH   7   9
ATOM      9  C   LIG    1       24.058 -23.909   6.562  0.00  0.00    +0.027 C 
BRANCH   9  10
ATOM     10  C   LIG    1       25.546 -24.271   6.425  0.00  0.00    +0.004 C 
BRANCH  10  11
ATOM     11  C   LIG    1       25.878 -25.737   6.757  0.00  0.00    +0.000 C 
BRANCH  11  13
ATOM     12  C   LIG    1       24.356 -27.567   5.698  0.00  0.00    +0.004 C 
ATOM     13  C   LIG    1       25.639 -26.751   5.630  0.00  0.00    -0.003 C 
ENDBRANCH  11  13
ENDBRANCH  10  11
ENDBRANCH   9  10
ENDBRANCH   7   9
ENDBRANCH   6   8
ENDBRANCH   4   6
ENDBRANCH   3   5
ENDBRANCH   1   3
BRANCH   2  14
ATOM     14  C   LIG    1       26.121 -20.729   5.457  0.00  0.00    +0.027 C 
BRANCH  14  15
ATOM     15  C   LIG    1       26.636 -20.344   6.847  0.00  0.00    +0.004 C 
BRANCH  15  16
ATOM     16  C   LIG    1       27.533 -21.338   7.594  0.00  0.00    +0.000 C 
BRANCH  16  17
ATOM     17  C   LIG    1       29.031 -21.021   7.545  0.00  0.00    +0.001 C 
BRANCH  17  18
ATOM     18  C   LIG    1       29.426 -19.545   7.637  0.00  0.00    +0.011 C 
BRANCH  18  19
ATOM     19  C   LIG    1       30.876 -19.267   7.200  0.00  0.00    +0.120 C 
BRANCH  19  20
ATOM     20  C   LIG    1       31.718 -18.671   8.275  0.00  0.00    +0.305 C 
ATOM     21  O   LIG    1       32.027 -17.464   8.317  0.00  0.00    -0.251 OA
BRANCH  20  22
ATOM     22  O   LIG    1       32.089 -19.509   9.240  0.00  0.00    -0.481 OA
ATOM     23  H   LIG    1       32.325 -20.408   8.925  0.00  0.00    +0.295 HD
ENDBRANCH  20  22
ENDBRANCH  19  20
ENDBRANCH  18  19
ENDBRANCH  17  18
ENDBRANCH  16  17
ENDBRANCH  15  16
ENDBRANCH  14  15
ENDBRANCH   2  14
TORSDOF 16
ENDMDL
MODEL 4
REMARK VINA RESULT:      -7.5      4.581      8.124
REMARK  Name = *****
REMARK                            x       y       z     vdW  Elec       q    Type
REMARK                         _______ _______ _______ _____ _____    ______ ____
ROOT
ATOM      1  C   LIG    1       22.872 -22.671   7.005  0.00  0.00    -0.027 C 
ATOM      2  C   LIG    1       23.515 -23.758   6.533  0.00  0.00    -0.031 C 
ENDROOT
BRANCH   1   3
ATOM      3  C   LIG    1       23.269 -21.225   7.207  0.00  0.00    +0.054 C 
BRANCH   3   5
ATOM      4  C   LIG    1       23.398 -20.080   4.875  0.00  0.00    -0.027 C 
ATOM      5  C   LIG    1       22.837 -20.310   6.081  0.00  0.00    -0.027 C 
BRANCH   4   6
ATOM      6  C   LIG    1       24.645 -20.647   4.253  0.00  0.00    +0.054 C 
BRANCH   6   8
ATOM      7  C   LIG    1       26.826 -20.143   5.674  0.00  0.00    -0.031 C 
ATOM      8  C   LIG    1       25.974 -20.011   4.638  0.00  0.00    -0.027 C 
BRANCH   7   9
ATOM      9  C   LIG    1       26.599 -20.938   6.914  0.00  0.00    +0.027 C 
BRANCH   9  10
ATOM     10  C   LIG    1       27.835 -21.248   7.774  0.00  0.00    +0.004 C 
BRANCH  10  11
ATOM     11  C   LIG    1       29.173 -20.817   7.145  0.00  0.00    +0.000 C 
BRANCH  11  13
ATOM     12  C   LIG    1       31.207 -19.192   7.243  0.00  0.00    +0.004 C 
ATOM     13  C   LIG    1       29.805 -19.542   7.721  0.00  0.00    -0.003 C 
ENDBRANCH  11  13
ENDBRANCH  10  11
ENDBRANCH   9  10
ENDBRANCH   7   9
ENDBRANCH   6   8
ENDBRANCH   4   6
ENDBRANCH   3   5
ENDBRANCH   1   3
BRANCH   2  14
ATOM     14  C   LIG    1       24.893 -23.918   5.957  0.00  0.00    +0.027 C 
BRANCH  14  15
ATOM     15  C   LIG    1       25.824 -24.538   7.003  0.00  0.00    +0.004 C 
BRANCH  15  16
ATOM     16  C   LIG    1       26.011 -26.060   7.004  0.00  0.00    +0.000 C 
BRANCH  16  17
ATOM     17  C   LIG    1       26.733 -26.624   5.777  0.00  0.00    +0.001 C 
BRANCH  17  18
ATOM     18  C   LIG    1       25.872 -27.377   4.759  0.00  0.00    +0.011 C 
BRANCH  18  19
ATOM     19  C   LIG    1       24.507 -27.823   5.316  0.00  0.00    +0.120 C 
BRANCH  19  20
ATOM     20  C   LIG    1       24.384 -29.299   5.476  0.00  0.00    +0.305 C 
ATOM     21  O   LIG    1       25.362 -30.068   5.536  0.00  0.00    -0.251 OA
BRANCH  20  22
ATOM     22  O   LIG    1       23.140 -29.756   5.605  0.00  0.00    -0.481 OA
ATOM     23  H   LIG    1       22.668 -29.887   4.755  0.00  0.00    +0.295 HD
ENDBRANCH  20  22
ENDBRANCH  19  20
ENDBRANCH  18  19
ENDBRANCH  17  18
ENDBRANCH  16  17
ENDBRANCH  15  16
ENDBRANCH  14  15
ENDBRANCH   2  14
TORSDOF 16
ENDMDL
MODEL 5
REMARK VINA RESULT:      -7.5      4.437      8.419
REMARK  Name = *****
REMARK                            x       y       z     vdW  Elec       q    Type
REMARK                         _______ _______ _______ _____ _____    ______ ____
ROOT
ATOM      1  C   LIG    1       23.286 -20.762   6.998  0.00  0.00    -0.027 C 
ATOM      2  C   LIG    1       23.452 -22.031   7.422  0.00  0.00    -0.031 C 
ENDROOT
BRANCH   1   3
ATOM      3  C   LIG    1       22.788 -20.146   5.709  0.00  0.00    +0.054 C 
BRANCH   3   5
ATOM      4  C   LIG    1       24.744 -20.585   4.050  0.00  0.00    -0.027 C 
ATOM      5  C   LIG    1       23.465 -20.693   4.470  0.00  0.00    -0.027 C 
BRANCH   4   6
ATOM      6  C   LIG    1       25.918 -19.878   4.669  0.00  0.00    +0.054 C 
BRANCH   6   8
ATOM      7  C   LIG    1       27.690 -20.339   6.588  0.00  0.00    -0.031 C 
ATOM      8  C   LIG    1       26.527 -20.492   5.923  0.00  0.00    -0.027 C 
BRANCH   7   9
ATOM      9  C   LIG    1       28.866 -19.537   6.146  0.00  0.00    +0.027 C 
BRANCH   9  10
ATOM     10  C   LIG    1       30.162 -19.705   6.956  0.00  0.00    +0.004 C 
BRANCH  10  11
ATOM     11  C   LIG    1       30.616 -18.435   7.699  0.00  0.00    +0.000 C 
BRANCH  11  13
ATOM     12  C   LIG    1       30.493 -17.004   9.873  0.00  0.00    +0.004 C 
ATOM     13  C   LIG    1       30.026 -18.231   9.101  0.00  0.00    -0.003 C 
ENDBRANCH  11  13
ENDBRANCH  10  11
ENDBRANCH   9  10
ENDBRANCH   7   9
ENDBRANCH   6   8
ENDBRANCH   4   6
ENDBRANCH   3   5
ENDBRANCH   1   3
BRANCH   2  14
ATOM     14  C   LIG    1       23.131 -23.343   6.764  0.00  0.00    +0.027 C 
BRANCH  14  15
ATOM     15  C   LIG    1       24.353 -23.850   5.993  0.00  0.00    +0.004 C 
BRANCH  15  16
ATOM     16  C   LIG    1       25.559 -24.361   6.790  0.00  0.00    +0.000 C 
BRANCH  16  17
ATOM     17  C   LIG    1       26.109 -25.716   6.333  0.00  0.00    +0.001 C 
BRANCH  17  18
ATOM     18  C   LIG    1       25.236 -26.942   6.613  0.00  0.00    +0.011 C 
BRANCH  18  19
ATOM     19  C   LIG    1       25.047 -27.855   5.387  0.00  0.00    +0.120 C 
BRANCH  19  20
ATOM     20  C   LIG    1       24.461 -29.184   5.720  0.00  0.00    +0.305 C 
ATOM     21  O   LIG    1       25.075 -30.068   6.347  0.00  0.00    -0.251 OA
BRANCH  20  22
ATOM     22  O   LIG    1       23.196 -29.360   5.344  0.00  0.00    -0.481 OA
ATOM     23  H   LIG    1       23.002 -30.252   4.984  0.00  0.00    +0.295 HD
ENDBRANCH  20  22
ENDBRANCH  19  20
ENDBRANCH  18  19
ENDBRANCH  17  18
ENDBRANCH  16  17
ENDBRANCH  15  16
ENDBRANCH  14  15
ENDBRANCH   2  14
TORSDOF 16
ENDMDL
MODEL 6
REMARK VINA RESULT:      -7.5      1.465      2.529
REMARK  Name = *****
REMARK                            x       y       z     vdW  Elec       q    Type
REMARK                         _______ _______ _______ _____ _____    ______ ____
ROOT
ATOM      1  C   LIG    1       23.584 -19.490   4.149  0.00  0.00    -0.027 C 
ATOM      2  C   LIG    1       24.903 -19.696   3.960  0.00  0.00    -0.031 C 
ENDROOT
BRANCH   1   3
ATOM      3  C   LIG    1       22.520 -20.199   4.957  0.00  0.00    +0.054 C 
BRANCH   3   5
ATOM      4  C   LIG    1       23.212 -21.385   7.167  0.00  0.00    -0.027 C 
ATOM      5  C   LIG    1       22.848 -20.313   6.431  0.00  0.00    -0.027 C 
BRANCH   4   6
ATOM      6  C   LIG    1       23.403 -22.823   6.770  0.00  0.00    +0.054 C 
BRANCH   6   8
ATOM      7  C   LIG    1       25.558 -24.312   6.354  0.00  0.00    -0.031 C 
ATOM      8  C   LIG    1       24.770 -23.446   7.022  0.00  0.00    -0.027 C 
BRANCH   7   9
ATOM      9  C   LIG    1       25.197 -25.072   5.124  0.00  0.00    +0.027 C 
BRANCH   9  10
ATOM     10  C   LIG    1       25.437 -26.591   5.153  0.00  0.00    +0.004 C 
BRANCH  10  11
ATOM     11  C   LIG    1       24.309 -27.401   5.818  0.00  0.00    +0.000 C 
BRANCH  11  13
ATOM     12  C   LIG    1       24.774 -29.671   7.010  0.00  0.00    +0.004 C 
ATOM     13  C   LIG    1       24.436 -28.928   5.725  0.00  0.00    -0.003 C 
ENDBRANCH  11  13
ENDBRANCH  10  11
ENDBRANCH   9  10
ENDBRANCH   7   9
ENDBRANCH   6   8
ENDBRANCH   4   6
ENDBRANCH   3   5
ENDBRANCH   1   3
BRANCH   2  14
ATOM     14  C   LIG    1       25.841 -20.706   4.554  0.00  0.00    +0.027 C 
BRANCH  14  15
ATOM     15  C   LIG    1       26.689 -20.049   5.646  0.00  0.00    +0.004 C 
BRANCH  15  16
ATOM     16  C   LIG    1       26.499 -20.511   7.096  0.00  0.00    +0.000 C 
BRANCH  16  17
ATOM     17  C   LIG    1       27.777 -20.532   7.941  0.00  0.00    +0.001 C 
BRANCH  17  18
ATOM     18  C   LIG    1       29.044 -19.973   7.288  0.00  0.00    +0.011 C 
BRANCH  18  19
ATOM     19  C   LIG    1       29.851 -19.041   8.210  0.00  0.00    +0.120 C 
BRANCH  19  20
ATOM     20  C   LIG    1       31.312 -19.332   8.217  0.00  0.00    +0.305 C 
ATOM     21  O   LIG    1       32.031 -19.219   9.228  0.00  0.00    -0.251 OA
BRANCH  20  22
ATOM     22  O   LIG    1       31.811 -19.778   7.066  0.00  0.00    -0.481 OA
ATOM     23  H   LIG    1       32.779 -19.935   7.079  0.00  0.00    +0.295 HD
ENDBRANCH  20  22
ENDBRANCH  19  20
ENDBRANCH  18  19
ENDBRANCH  17  18
ENDBRANCH  16  17
ENDBRANCH  15  16
ENDBRANCH  14  15
ENDBRANCH   2  14
TORSDOF 16
ENDMDL
MODEL 7
REMARK VINA RESULT:      -7.4      1.384      2.005
REMARK  Name = *****
REMARK                            x       y       z     vdW  Elec       q    Type
REMARK                         _______ _______ _______ _____ _____    ______ ____
ROOT
ATOM      1  C   LIG    1       23.593 -19.240   3.939  0.00  0.00    -0.027 C 
ATOM      2  C   LIG    1       24.879 -19.553   3.683  0.00  0.00    -0.031 C 
ENDROOT
BRANCH   1   3
ATOM      3  C   LIG    1       22.644 -19.561   5.073  0.00  0.00    +0.054 C 
BRANCH   3   5
ATOM      4  C   LIG    1       22.893 -21.810   6.359  0.00  0.00    -0.027 C 
ATOM      5  C   LIG    1       22.476 -21.044   5.327  0.00  0.00    -0.027 C 
BRANCH   4   6
ATOM      6  C   LIG    1       23.670 -21.445   7.594  0.00  0.00    +0.054 C 
BRANCH   6   8
ATOM      7  C   LIG    1       25.995 -22.685   7.296  0.00  0.00    -0.031 C 
ATOM      8  C   LIG    1       25.180 -21.644   7.558  0.00  0.00    -0.027 C 
BRANCH   7   9
ATOM      9  C   LIG    1       25.583 -24.102   7.081  0.00  0.00    +0.027 C 
BRANCH   9  10
ATOM     10  C   LIG    1       25.129 -24.483   5.662  0.00  0.00    +0.004 C 
BRANCH  10  11
ATOM     11  C   LIG    1       24.354 -25.811   5.577  0.00  0.00    +0.000 C 
BRANCH  11  13
ATOM     12  C   LIG    1       24.300 -28.357   6.128  0.00  0.00    +0.004 C 
ATOM     13  C   LIG    1       25.070 -27.043   6.147  0.00  0.00    -0.003 C 
ENDBRANCH  11  13
ENDBRANCH  10  11
ENDBRANCH   9  10
ENDBRANCH   7   9
ENDBRANCH   6   8
ENDBRANCH   4   6
ENDBRANCH   3   5
ENDBRANCH   1   3
BRANCH   2  14
ATOM     14  C   LIG    1       25.892 -20.311   4.492  0.00  0.00    +0.027 C 
BRANCH  14  15
ATOM     15  C   LIG    1       26.958 -19.349   5.024  0.00  0.00    +0.004 C 
BRANCH  15  16
ATOM     16  C   LIG    1       28.154 -19.931   5.786  0.00  0.00    +0.000 C 
BRANCH  16  17
ATOM     17  C   LIG    1       29.313 -18.956   6.015  0.00  0.00    +0.001 C 
BRANCH  17  18
ATOM     18  C   LIG    1       30.403 -19.401   6.993  0.00  0.00    +0.011 C 
BRANCH  18  19
ATOM     19  C   LIG    1       30.543 -18.481   8.220  0.00  0.00    +0.120 C 
BRANCH  19  20
ATOM     20  C   LIG    1       31.602 -18.917   9.173  0.00  0.00    +0.305 C 
ATOM     21  O   LIG    1       32.083 -18.177  10.053  0.00  0.00    -0.251 OA
BRANCH  20  22
ATOM     22  O   LIG    1       31.980 -20.189   9.062  0.00  0.00    -0.481 OA
ATOM     23  H   LIG    1       31.601 -20.656   8.288  0.00  0.00    +0.295 HD
ENDBRANCH  20  22
ENDBRANCH  19  20
ENDBRANCH  18  19
ENDBRANCH  17  18
ENDBRANCH  16  17
ENDBRANCH  15  16
ENDBRANCH  14  15
ENDBRANCH   2  14
TORSDOF 16
ENDMDL
MODEL 8
REMARK VINA RESULT:      -7.4      2.910      7.504
REMARK  Name = *****
REMARK                            x       y       z     vdW  Elec       q    Type
REMARK                         _______ _______ _______ _____ _____    ______ ____
ROOT
ATOM      1  C   LIG    1       24.890 -24.376   6.609  0.00  0.00    -0.027 C 
ATOM      2  C   LIG    1       23.551 -24.220   6.571  0.00  0.00    -0.031 C 
ENDROOT
BRANCH   1   3
ATOM      3  C   LIG    1       26.038 -23.471   6.996  0.00  0.00    +0.054 C 
BRANCH   3   5
ATOM      4  C   LIG    1       26.105 -21.329   8.472  0.00  0.00    -0.027 C 
ATOM      5  C   LIG    1       25.751 -22.605   8.204  0.00  0.00    -0.027 C 
BRANCH   4   6
ATOM      6  C   LIG    1       26.911 -20.350   7.664  0.00  0.00    +0.054 C 
BRANCH   6   8
ATOM      7  C   LIG    1       29.413 -20.397   6.787  0.00  0.00    -0.031 C 
ATOM      8  C   LIG    1       28.166 -20.872   6.977  0.00  0.00    -0.027 C 
BRANCH   7   9
ATOM      9  C   LIG    1       29.902 -19.030   7.123  0.00  0.00    +0.027 C 
BRANCH   9  10
ATOM     10  C   LIG    1       31.381 -18.902   7.523  0.00  0.00    +0.004 C 
BRANCH  10  11
ATOM     11  C   LIG    1       31.631 -18.027   8.765  0.00  0.00    +0.000 C 
BRANCH  11  13
ATOM     12  C   LIG    1       30.421 -17.419  10.991  0.00  0.00    +0.004 C 
ATOM     13  C   LIG    1       30.379 -17.489   9.471  0.00  0.00    -0.003 C 
ENDBRANCH  11  13
ENDBRANCH  10  11
ENDBRANCH   9  10
ENDBRANCH   7   9
ENDBRANCH   6   8
ENDBRANCH   4   6
ENDBRANCH   3   5
ENDBRANCH   1   3
BRANCH   2  14
ATOM     14  C   LIG    1       22.678 -23.067   6.976  0.00  0.00    +0.027 C 
BRANCH  14  15
ATOM     15  C   LIG    1       22.599 -22.050   5.834  0.00  0.00    +0.004 C 
BRANCH  15  16
ATOM     16  C   LIG    1       23.231 -20.669   6.040  0.00  0.00    +0.000 C 
BRANCH  16  17
ATOM     17  C   LIG    1       22.456 -19.502   5.420  0.00  0.00    +0.001 C 
BRANCH  17  18
ATOM     18  C   LIG    1       23.008 -18.925   4.114  0.00  0.00    +0.011 C 
BRANCH  18  19
ATOM     19  C   LIG    1       24.124 -19.782   3.486  0.00  0.00    +0.120 C 
BRANCH  19  20
ATOM     20  C   LIG    1       25.483 -19.191   3.638  0.00  0.00    +0.305 C 
ATOM     21  O   LIG    1       25.762 -18.018   3.322  0.00  0.00    -0.251 OA
BRANCH  20  22
ATOM     22  O   LIG    1       26.393 -19.990   4.190  0.00  0.00    -0.481 OA
ATOM     23  H   LIG    1       27.297 -19.887   3.821  0.00  0.00    +0.295 HD
ENDBRANCH  20  22
ENDBRANCH  19  20
ENDBRANCH  18  19
ENDBRANCH  17  18
ENDBRANCH  16  17
ENDBRANCH  15  16
ENDBRANCH  14  15
ENDBRANCH   2  14
TORSDOF 16
ENDMDL
MODEL 9
REMARK VINA RESULT:      -7.4      2.068      3.757
REMARK  Name = *****
REMARK                            x       y       z     vdW  Elec       q    Type
REMARK                         _______ _______ _______ _____ _____    ______ ____
ROOT
ATOM      1  C   LIG    1       23.138 -20.629   6.316  0.00  0.00    -0.027 C 
ATOM      2  C   LIG    1       23.965 -20.322   5.296  0.00  0.00    -0.031 C 
ENDROOT
BRANCH   1   3
ATOM      3  C   LIG    1       23.171 -21.671   7.411  0.00  0.00    +0.054 C 
BRANCH   3   5
ATOM      4  C   LIG    1       23.658 -24.086   6.572  0.00  0.00    -0.027 C 
ATOM      5  C   LIG    1       22.844 -23.070   6.932  0.00  0.00    -0.027 C 
BRANCH   4   6
ATOM      6  C   LIG    1       25.160 -24.161   6.517  0.00  0.00    +0.054 C 
BRANCH   6   8
ATOM      7  C   LIG    1       25.683 -26.760   6.465  0.00  0.00    -0.031 C 
ATOM      8  C   LIG    1       25.810 -25.487   6.889  0.00  0.00    -0.027 C 
BRANCH   7   9
ATOM      9  C   LIG    1       24.664 -27.279   5.509  0.00  0.00    +0.027 C 
BRANCH   9  10
ATOM     10  C   LIG    1       24.134 -28.699   5.764  0.00  0.00    +0.004 C 
BRANCH  10  11
ATOM     11  C   LIG    1       24.744 -29.394   6.996  0.00  0.00    +0.000 C 
BRANCH  11  13
ATOM     12  C   LIG    1       25.822 -31.280   5.557  0.00  0.00    +0.004 C 
ATOM     13  C   LIG    1       25.083 -30.881   6.827  0.00  0.00    -0.003 C 
ENDBRANCH  11  13
ENDBRANCH  10  11
ENDBRANCH   9  10
ENDBRANCH   7   9
ENDBRANCH   6   8
ENDBRANCH   4   6
ENDBRANCH   3   5
ENDBRANCH   1   3
BRANCH   2  14
ATOM     14  C   LIG    1       25.299 -20.886   4.900  0.00  0.00    +0.027 C 
BRANCH  14  15
ATOM     15  C   LIG    1       26.412 -20.194   5.693  0.00  0.00    +0.004 C 
BRANCH  15  16
ATOM     16  C   LIG    1       26.740 -20.713   7.097  0.00  0.00    +0.000 C 
BRANCH  16  17
ATOM     17  C   LIG    1       28.074 -20.226   7.672  0.00  0.00    +0.001 C 
BRANCH  17  18
ATOM     18  C   LIG    1       29.274 -21.164   7.515  0.00  0.00    +0.011 C 
BRANCH  18  19
ATOM     19  C   LIG    1       30.514 -20.716   8.311  0.00  0.00    +0.120 C 
BRANCH  19  20
ATOM     20  C   LIG    1       31.120 -21.805   9.128  0.00  0.00    +0.305 C 
ATOM     21  O   LIG    1       30.724 -22.110  10.270  0.00  0.00    -0.251 OA
BRANCH  20  22
ATOM     22  O   LIG    1       32.101 -22.483   8.537  0.00  0.00    -0.481 OA
ATOM     23  H   LIG    1       32.271 -23.368   8.926  0.00  0.00    +0.295 HD
ENDBRANCH  20  22
ENDBRANCH  19  20
ENDBRANCH  18  19
ENDBRANCH  17  18
ENDBRANCH  16  17
ENDBRANCH  15  16
ENDBRANCH  14  15
ENDBRANCH   2  14
TORSDOF 16
ENDMDL
