MODEL 1
REMARK VINA RESULT:      -5.1      0.000      0.000
REMARK  Name = *****
REMARK                            x       y       z     vdW  Elec       q    Type
REMARK                         _______ _______ _______ _____ _____    ______ ____
ROOT
ATOM      1  C   LIG    1       26.031 -13.663   3.014  0.00  0.00    +0.185 C 
ENDROOT
BRANCH   1   2
ATOM      2  O   LIG    1       26.539 -14.281   1.812  0.00  0.00    -0.386 OA
ATOM      3  H   LIG    1       27.289 -14.850   2.092  0.00  0.00    +0.210 HD
ENDBRANCH   1   2
BRANCH   1   4
ATOM      4  C   LIG    1       24.490 -13.593   2.981  0.00  0.00    +0.254 C 
BRANCH   4   6
ATOM      5  O   LIG    1       23.842 -11.533   4.117  0.00  0.00    -0.248 OA
ATOM      6  C   LIG    1       24.029 -12.135   3.082  0.00  0.00    +0.336 C 
BRANCH   6   7
ATOM      7  O   LIG    1       23.856 -11.581   1.852  0.00  0.00    -0.479 OA
ATOM      8  H   LIG    1       23.082 -11.998   1.413  0.00  0.00    +0.295 HD
ENDBRANCH   6   7
ENDBRANCH   4   6
BRANCH   4   9
ATOM      9  O   LIG    1       23.869 -14.381   4.009  0.00  0.00    -0.378 OA
ATOM     10  H   LIG    1       24.583 -14.916   4.425  0.00  0.00    +0.211 HD
ENDBRANCH   4   9
ENDBRANCH   1   4
BRANCH   1  11
ATOM     11  C   LIG    1       26.587 -14.453   4.215  0.00  0.00    +0.185 C 
BRANCH  11  12
ATOM     12  O   LIG    1       27.598 -15.351   3.691  0.00  0.00    -0.386 OA
ATOM     13  H   LIG    1       28.115 -15.641   4.474  0.00  0.00    +0.210 HD
ENDBRANCH  11  12
BRANCH  11  14
ATOM     14  C   LIG    1       27.200 -13.541   5.299  0.00  0.00    +0.254 C 
BRANCH  14  15
ATOM     15  O   LIG    1       26.181 -12.631   5.739  0.00  0.00    -0.378 OA
ATOM     16  H   LIG    1       26.610 -11.755   5.826  0.00  0.00    +0.211 HD
ENDBRANCH  14  15
BRANCH  14  17
ATOM     17  C   LIG    1       28.409 -12.785   4.737  0.00  0.00    +0.336 C 
ATOM     18  O   LIG    1       28.870 -12.976   3.620  0.00  0.00    -0.248 OA
BRANCH  17  19
ATOM     19  O   LIG    1       28.902 -11.836   5.565  0.00  0.00    -0.479 OA
ATOM     20  H   LIG    1       29.194 -11.007   5.131  0.00  0.00    +0.295 HD
ENDBRANCH  17  19
ENDBRANCH  14  17
ENDBRANCH  11  14
ENDBRANCH   1  11
TORSDOF 11
ENDMDL
MODEL 2
REMARK VINA RESULT:      -4.8      0.786      4.286
REMARK  Name = *****
REMARK                            x       y       z     vdW  Elec       q    Type
REMARK                         _______ _______ _______ _____ _____    ______ ____
ROOT
ATOM      1  C   LIG    1       26.586 -14.134   4.192  0.00  0.00    +0.185 C 
ENDROOT
BRANCH   1   2
ATOM      2  O   LIG    1       27.546 -15.169   3.889  0.00  0.00    -0.386 OA
ATOM      3  H   LIG    1       27.630 -15.187   2.911  0.00  0.00    +0.210 HD
ENDBRANCH   1   2
BRANCH   1   4
ATOM      4  C   LIG    1       27.165 -13.139   5.220  0.00  0.00    +0.254 C 
BRANCH   4   6
ATOM      5  O   LIG    1       29.068 -12.940   3.705  0.00  0.00    -0.248 OA
ATOM      6  C   LIG    1       28.540 -12.646   4.755  0.00  0.00    +0.336 C 
BRANCH   6   7
ATOM      7  O   LIG    1       29.108 -11.817   5.672  0.00  0.00    -0.479 OA
ATOM      8  H   LIG    1       29.711 -11.191   5.216  0.00  0.00    +0.295 HD
ENDBRANCH   6   7
ENDBRANCH   4   6
BRANCH   4   9
ATOM      9  O   LIG    1       27.258 -13.687   6.545  0.00  0.00    -0.378 OA
ATOM     10  H   LIG    1       27.809 -13.064   7.069  0.00  0.00    +0.211 HD
ENDBRANCH   4   9
ENDBRANCH   1   4
BRANCH   1  11
ATOM     11  C   LIG    1       26.173 -13.476   2.861  0.00  0.00    +0.185 C 
BRANCH  11  12
ATOM     12  O   LIG    1       26.895 -14.169   1.812  0.00  0.00    -0.386 OA
ATOM     13  H   LIG    1       27.779 -14.363   2.194  0.00  0.00    +0.210 HD
ENDBRANCH  11  12
BRANCH  11  14
ATOM     14  C   LIG    1       24.654 -13.557   2.600  0.00  0.00    +0.254 C 
BRANCH  14  15
ATOM     15  O   LIG    1       24.280 -12.417   1.812  0.00  0.00    -0.378 OA
ATOM     16  H   LIG    1       23.336 -12.536   1.582  0.00  0.00    +0.211 HD
ENDBRANCH  14  15
BRANCH  14  17
ATOM     17  C   LIG    1       23.886 -13.587   3.926  0.00  0.00    +0.336 C 
ATOM     18  O   LIG    1       23.433 -14.608   4.424  0.00  0.00    -0.248 OA
BRANCH  17  19
ATOM     19  O   LIG    1       23.796 -12.386   4.540  0.00  0.00    -0.479 OA
ATOM     20  H   LIG    1       23.043 -12.283   5.160  0.00  0.00    +0.295 HD
ENDBRANCH  17  19
ENDBRANCH  14  17
ENDBRANCH  11  14
ENDBRANCH   1  11
TORSDOF 11
ENDMDL
MODEL 3
REMARK VINA RESULT:      -4.7      6.548      8.819
REMARK  Name = *****
REMARK                            x       y       z     vdW  Elec       q    Type
REMARK                         _______ _______ _______ _____ _____    ______ ____
ROOT
ATOM      1  C   LIG    1       26.413 -20.204   5.781  0.00  0.00    +0.185 C 
ENDROOT
BRANCH   1   2
ATOM      2  O   LIG    1       26.431 -21.572   6.242  0.00  0.00    -0.386 OA
ATOM      3  H   LIG    1       27.072 -21.602   6.985  0.00  0.00    +0.210 HD
ENDBRANCH   1   2
BRANCH   1   4
ATOM      4  C   LIG    1       27.800 -19.791   5.246  0.00  0.00    +0.254 C 
BRANCH   4   6
ATOM      5  O   LIG    1       29.325 -18.995   6.977  0.00  0.00    -0.248 OA
ATOM      6  C   LIG    1       28.851 -19.920   6.356  0.00  0.00    +0.336 C 
BRANCH   6   7
ATOM      7  O   LIG    1       29.190 -21.219   6.571  0.00  0.00    -0.479 OA
ATOM      8  H   LIG    1       28.516 -21.804   6.160  0.00  0.00    +0.295 HD
ENDBRANCH   6   7
ENDBRANCH   4   6
BRANCH   4   9
ATOM      9  O   LIG    1       27.820 -18.462   4.698  0.00  0.00    -0.378 OA
ATOM     10  H   LIG    1       28.764 -18.189   4.657  0.00  0.00    +0.211 HD
ENDBRANCH   4   9
ENDBRANCH   1   4
BRANCH   1  11
ATOM     11  C   LIG    1       25.287 -20.078   4.737  0.00  0.00    +0.185 C 
BRANCH  11  12
ATOM     12  O   LIG    1       25.929 -20.005   3.439  0.00  0.00    -0.386 OA
ATOM     13  H   LIG    1       26.027 -20.938   3.148  0.00  0.00    +0.210 HD
ENDBRANCH  11  12
BRANCH  11  14
ATOM     14  C   LIG    1       24.302 -21.266   4.774  0.00  0.00    +0.254 C 
BRANCH  14  15
ATOM     15  O   LIG    1       23.926 -21.571   3.422  0.00  0.00    -0.378 OA
ATOM     16  H   LIG    1       23.966 -22.545   3.336  0.00  0.00    +0.211 HD
ENDBRANCH  14  15
BRANCH  14  17
ATOM     17  C   LIG    1       23.074 -20.913   5.621  0.00  0.00    +0.336 C 
ATOM     18  O   LIG    1       23.140 -20.419   6.738  0.00  0.00    -0.248 OA
BRANCH  17  19
ATOM     19  O   LIG    1       21.892 -21.144   5.005  0.00  0.00    -0.479 OA
ATOM     20  H   LIG    1       21.341 -20.350   4.837  0.00  0.00    +0.295 HD
ENDBRANCH  17  19
ENDBRANCH  14  17
ENDBRANCH  11  14
ENDBRANCH   1  11
TORSDOF 11
ENDMDL
MODEL 4
REMARK VINA RESULT:      -4.7      6.404      7.470
REMARK  Name = *****
REMARK                            x       y       z     vdW  Elec       q    Type
REMARK                         _______ _______ _______ _____ _____    ______ ____
ROOT
ATOM      1  C   LIG    1       25.766 -20.059   5.388  0.00  0.00    +0.185 C 
ENDROOT
BRANCH   1   2
ATOM      2  O   LIG    1       26.268 -20.478   4.102  0.00  0.00    -0.386 OA
ATOM      3  H   LIG    1       26.674 -19.682   3.694  0.00  0.00    +0.210 HD
ENDBRANCH   1   2
BRANCH   1   4
ATOM      4  C   LIG    1       24.453 -20.796   5.727  0.00  0.00    +0.254 C 
BRANCH   4   6
ATOM      5  O   LIG    1       23.472 -19.577   3.855  0.00  0.00    -0.248 OA
ATOM      6  C   LIG    1       23.367 -20.430   4.708  0.00  0.00    +0.336 C 
BRANCH   6   7
ATOM      7  O   LIG    1       22.254 -21.193   4.870  0.00  0.00    -0.479 OA
ATOM      8  H   LIG    1       21.681 -21.108   4.077  0.00  0.00    +0.295 HD
ENDBRANCH   6   7
ENDBRANCH   4   6
BRANCH   4   9
ATOM      9  O   LIG    1       23.988 -20.535   7.061  0.00  0.00    -0.378 OA
ATOM     10  H   LIG    1       24.727 -20.768   7.667  0.00  0.00    +0.211 HD
ENDBRANCH   4   9
ENDBRANCH   1   4
BRANCH   1  11
ATOM     11  C   LIG    1       26.885 -20.288   6.423  0.00  0.00    +0.185 C 
BRANCH  11  12
ATOM     12  O   LIG    1       26.624 -21.572   7.043  0.00  0.00    -0.386 OA
ATOM     13  H   LIG    1       26.680 -21.406   8.010  0.00  0.00    +0.210 HD
ENDBRANCH  11  12
BRANCH  11  14
ATOM     14  C   LIG    1       28.294 -20.283   5.791  0.00  0.00    +0.254 C 
BRANCH  14  15
ATOM     15  O   LIG    1       29.068 -21.310   6.428  0.00  0.00    -0.378 OA
ATOM     16  H   LIG    1       28.870 -21.253   7.385  0.00  0.00    +0.211 HD
ENDBRANCH  14  15
BRANCH  14  17
ATOM     17  C   LIG    1       28.951 -18.909   5.965  0.00  0.00    +0.336 C 
ATOM     18  O   LIG    1       29.475 -18.535   7.005  0.00  0.00    -0.248 OA
BRANCH  17  19
ATOM     19  O   LIG    1       28.955 -18.152   4.844  0.00  0.00    -0.479 OA
ATOM     20  H   LIG    1       29.675 -18.345   4.207  0.00  0.00    +0.295 HD
ENDBRANCH  17  19
ENDBRANCH  14  17
ENDBRANCH  11  14
ENDBRANCH   1  11
TORSDOF 11
ENDMDL
MODEL 5
REMARK VINA RESULT:      -4.4      1.179      4.129
REMARK  Name = *****
REMARK                            x       y       z     vdW  Elec       q    Type
REMARK                         _______ _______ _______ _____ _____    ______ ____
ROOT
ATOM      1  C   LIG    1       26.827 -14.059   2.811  0.00  0.00    +0.185 C 
ENDROOT
BRANCH   1   2
ATOM      2  O   LIG    1       26.705 -12.695   2.357  0.00  0.00    -0.386 OA
ATOM      3  H   LIG    1       27.372 -12.178   2.860  0.00  0.00    +0.210 HD
ENDBRANCH   1   2
BRANCH   1   4
ATOM      4  C   LIG    1       27.593 -14.122   4.149  0.00  0.00    +0.254 C 
BRANCH   4   6
ATOM      5  O   LIG    1       28.729 -12.179   5.091  0.00  0.00    -0.248 OA
ATOM      6  C   LIG    1       28.639 -13.002   4.208  0.00  0.00    +0.336 C 
BRANCH   6   7
ATOM      7  O   LIG    1       29.475 -13.045   3.136  0.00  0.00    -0.479 OA
ATOM      8  H   LIG    1       29.095 -13.637   2.450  0.00  0.00    +0.295 HD
ENDBRANCH   6   7
ENDBRANCH   4   6
BRANCH   4   9
ATOM      9  O   LIG    1       28.218 -15.396   4.381  0.00  0.00    -0.378 OA
ATOM     10  H   LIG    1       28.978 -15.230   4.984  0.00  0.00    +0.211 HD
ENDBRANCH   4   9
ENDBRANCH   1   4
BRANCH   1  11
ATOM     11  C   LIG    1       25.407 -14.654   2.886  0.00  0.00    +0.185 C 
BRANCH  11  12
ATOM     12  O   LIG    1       25.562 -16.074   3.137  0.00  0.00    -0.386 OA
ATOM     13  H   LIG    1       25.154 -16.518   2.362  0.00  0.00    +0.210 HD
ENDBRANCH  11  12
BRANCH  11  14
ATOM     14  C   LIG    1       24.547 -14.012   3.995  0.00  0.00    +0.254 C 
BRANCH  14  15
ATOM     15  O   LIG    1       23.506 -14.940   4.341  0.00  0.00    -0.378 OA
ATOM     16  H   LIG    1       23.667 -15.747   3.810  0.00  0.00    +0.211 HD
ENDBRANCH  14  15
BRANCH  14  17
ATOM     17  C   LIG    1       23.960 -12.681   3.511  0.00  0.00    +0.336 C 
ATOM     18  O   LIG    1       23.756 -11.723   4.244  0.00  0.00    -0.248 OA
BRANCH  17  19
ATOM     19  O   LIG    1       23.734 -12.628   2.179  0.00  0.00    -0.479 OA
ATOM     20  H   LIG    1       24.252 -13.260   1.636  0.00  0.00    +0.295 HD
ENDBRANCH  17  19
ENDBRANCH  14  17
ENDBRANCH  11  14
ENDBRANCH   1  11
TORSDOF 11
ENDMDL
MODEL 6
REMARK VINA RESULT:      -4.2      1.364      3.206
REMARK  Name = *****
REMARK                            x       y       z     vdW  Elec       q    Type
REMARK                         _______ _______ _______ _____ _____    ______ ____
ROOT
ATOM      1  C   LIG    1       26.056 -13.691   5.026  0.00  0.00    +0.185 C 
ENDROOT
BRANCH   1   2
ATOM      2  O   LIG    1       26.640 -13.303   6.287  0.00  0.00    -0.386 OA
ATOM      3  H   LIG    1       27.434 -12.769   6.069  0.00  0.00    +0.210 HD
ENDBRANCH   1   2
BRANCH   1   4
ATOM      4  C   LIG    1       24.641 -13.093   4.874  0.00  0.00    +0.254 C 
BRANCH   4   6
ATOM      5  O   LIG    1       23.323 -15.077   4.348  0.00  0.00    -0.248 OA
ATOM      6  C   LIG    1       23.775 -14.009   4.001  0.00  0.00    +0.336 C 
BRANCH   6   7
ATOM      7  O   LIG    1       23.562 -13.469   2.772  0.00  0.00    -0.479 OA
ATOM      8  H   LIG    1       24.371 -13.577   2.224  0.00  0.00    +0.295 HD
ENDBRANCH   6   7
ENDBRANCH   4   6
BRANCH   4   9
ATOM      9  O   LIG    1       24.648 -11.760   4.337  0.00  0.00    -0.378 OA
ATOM     10  H   LIG    1       24.376 -11.835   3.394  0.00  0.00    +0.211 HD
ENDBRANCH   4   9
ENDBRANCH   1   4
BRANCH   1  11
ATOM     11  C   LIG    1       27.029 -13.263   3.910  0.00  0.00    +0.185 C 
BRANCH  11  12
ATOM     12  O   LIG    1       28.299 -12.981   4.550  0.00  0.00    -0.386 OA
ATOM     13  H   LIG    1       28.079 -12.804   5.491  0.00  0.00    +0.210 HD
ENDBRANCH  11  12
BRANCH  11  14
ATOM     14  C   LIG    1       27.212 -14.347   2.827  0.00  0.00    +0.254 C 
BRANCH  14  15
ATOM     15  O   LIG    1       26.218 -14.132   1.813  0.00  0.00    -0.378 OA
ATOM     16  H   LIG    1       26.242 -14.917   1.230  0.00  0.00    +0.211 HD
ENDBRANCH  14  15
BRANCH  14  17
ATOM     17  C   LIG    1       27.077 -15.744   3.444  0.00  0.00    +0.336 C 
ATOM     18  O   LIG    1       26.164 -16.516   3.183  0.00  0.00    -0.248 OA
BRANCH  17  19
ATOM     19  O   LIG    1       28.091 -16.084   4.271  0.00  0.00    -0.479 OA
ATOM     20  H   LIG    1       28.219 -15.499   5.047  0.00  0.00    +0.295 HD
ENDBRANCH  17  19
ENDBRANCH  14  17
ENDBRANCH  11  14
ENDBRANCH   1  11
TORSDOF 11
ENDMDL
MODEL 7
REMARK VINA RESULT:      -4.2      6.025      8.126
REMARK  Name = *****
REMARK                            x       y       z     vdW  Elec       q    Type
REMARK                         _______ _______ _______ _____ _____    ______ ____
ROOT
ATOM      1  C   LIG    1       25.603 -19.970   4.045  0.00  0.00    +0.185 C 
ENDROOT
BRANCH   1   2
ATOM      2  O   LIG    1       25.951 -18.622   3.664  0.00  0.00    -0.386 OA
ATOM      3  H   LIG    1       25.703 -18.532   2.718  0.00  0.00    +0.210 HD
ENDBRANCH   1   2
BRANCH   1   4
ATOM      4  C   LIG    1       26.038 -20.254   5.498  0.00  0.00    +0.254 C 
BRANCH   4   6
ATOM      5  O   LIG    1       28.164 -19.091   5.210  0.00  0.00    -0.248 OA
ATOM      6  C   LIG    1       27.549 -20.039   5.645  0.00  0.00    +0.336 C 
BRANCH   6   7
ATOM      7  O   LIG    1       28.130 -21.052   6.341  0.00  0.00    -0.479 OA
ATOM      8  H   LIG    1       29.037 -21.207   5.996  0.00  0.00    +0.295 HD
ENDBRANCH   6   7
ENDBRANCH   4   6
BRANCH   4   9
ATOM      9  O   LIG    1       25.680 -21.572   5.946  0.00  0.00    -0.378 OA
ATOM     10  H   LIG    1       25.064 -21.453   6.704  0.00  0.00    +0.211 HD
ENDBRANCH   4   9
ENDBRANCH   1   4
BRANCH   1  11
ATOM     11  C   LIG    1       24.091 -20.146   3.809  0.00  0.00    +0.185 C 
BRANCH  11  12
ATOM     12  O   LIG    1       23.852 -21.570   3.678  0.00  0.00    -0.386 OA
ATOM     13  H   LIG    1       24.412 -21.856   2.924  0.00  0.00    +0.210 HD
ENDBRANCH  11  12
BRANCH  11  14
ATOM     14  C   LIG    1       23.235 -19.569   4.956  0.00  0.00    +0.254 C 
BRANCH  14  15
ATOM     15  O   LIG    1       22.630 -20.670   5.653  0.00  0.00    -0.378 OA
ATOM     16  H   LIG    1       23.289 -21.394   5.652  0.00  0.00    +0.211 HD
ENDBRANCH  14  15
BRANCH  14  17
ATOM     17  C   LIG    1       22.170 -18.617   4.400  0.00  0.00    +0.336 C 
ATOM     18  O   LIG    1       21.219 -18.984   3.723  0.00  0.00    -0.248 OA
BRANCH  17  19
ATOM     19  O   LIG    1       22.335 -17.327   4.769  0.00  0.00    -0.479 OA
ATOM     20  H   LIG    1       23.106 -16.868   4.372  0.00  0.00    +0.295 HD
ENDBRANCH  17  19
ENDBRANCH  14  17
ENDBRANCH  11  14
ENDBRANCH   1  11
TORSDOF 11
ENDMDL
MODEL 8
REMARK VINA RESULT:      -4.0      1.122      4.218
REMARK  Name = *****
REMARK                            x       y       z     vdW  Elec       q    Type
REMARK                         _______ _______ _______ _____ _____    ______ ____
ROOT
ATOM      1  C   LIG    1       26.777 -13.996   3.151  0.00  0.00    +0.185 C 
ENDROOT
BRANCH   1   2
ATOM      2  O   LIG    1       27.088 -14.436   1.812  0.00  0.00    -0.386 OA
ATOM      3  H   LIG    1       26.418 -15.116   1.584  0.00  0.00    +0.210 HD
ENDBRANCH   1   2
BRANCH   1   4
ATOM      4  C   LIG    1       28.070 -13.755   3.959  0.00  0.00    +0.254 C 
BRANCH   4   6
ATOM      5  O   LIG    1       26.868 -13.542   6.073  0.00  0.00    -0.248 OA
ATOM      6  C   LIG    1       27.730 -13.140   5.322  0.00  0.00    +0.336 C 
BRANCH   6   7
ATOM      7  O   LIG    1       28.527 -12.074   5.600  0.00  0.00    -0.479 OA
ATOM      8  H   LIG    1       28.719 -11.585   4.769  0.00  0.00    +0.295 HD
ENDBRANCH   6   7
ENDBRANCH   4   6
BRANCH   4   9
ATOM      9  O   LIG    1       29.020 -12.929   3.267  0.00  0.00    -0.378 OA
ATOM     10  H   LIG    1       28.959 -13.167   2.314  0.00  0.00    +0.211 HD
ENDBRANCH   4   9
ENDBRANCH   1   4
BRANCH   1  11
ATOM     11  C   LIG    1       25.880 -12.748   3.037  0.00  0.00    +0.185 C 
BRANCH  11  12
ATOM     12  O   LIG    1       26.326 -12.021   1.864  0.00  0.00    -0.386 OA
ATOM     13  H   LIG    1       25.519 -11.895   1.318  0.00  0.00    +0.210 HD
ENDBRANCH  11  12
BRANCH  11  14
ATOM     14  C   LIG    1       24.382 -13.099   2.903  0.00  0.00    +0.254 C 
BRANCH  14  15
ATOM     15  O   LIG    1       23.668 -11.886   2.621  0.00  0.00    -0.378 OA
ATOM     16  H   LIG    1       22.966 -11.813   3.300  0.00  0.00    +0.211 HD
ENDBRANCH  14  15
BRANCH  14  17
ATOM     17  C   LIG    1       23.872 -13.752   4.192  0.00  0.00    +0.336 C 
ATOM     18  O   LIG    1       23.489 -14.913   4.259  0.00  0.00    -0.248 OA
BRANCH  17  19
ATOM     19  O   LIG    1       23.930 -12.951   5.280  0.00  0.00    -0.479 OA
ATOM     20  H   LIG    1       24.383 -12.091   5.148  0.00  0.00    +0.295 HD
ENDBRANCH  17  19
ENDBRANCH  14  17
ENDBRANCH  11  14
ENDBRANCH   1  11
TORSDOF 11
ENDMDL
MODEL 9
REMARK VINA RESULT:      -3.9      1.449      3.350
REMARK  Name = *****
REMARK                            x       y       z     vdW  Elec       q    Type
REMARK                         _______ _______ _______ _____ _____    ______ ____
ROOT
ATOM      1  C   LIG    1       25.168 -14.419   4.033  0.00  0.00    +0.185 C 
ENDROOT
BRANCH   1   2
ATOM      2  O   LIG    1       23.836 -13.939   3.752  0.00  0.00    -0.386 OA
ATOM      3  H   LIG    1       23.481 -13.601   4.603  0.00  0.00    +0.210 HD
ENDBRANCH   1   2
BRANCH   1   4
ATOM      4  C   LIG    1       25.747 -15.165   2.813  0.00  0.00    +0.254 C 
BRANCH   4   6
ATOM      5  O   LIG    1       25.838 -17.579   3.157  0.00  0.00    -0.248 OA
ATOM      6  C   LIG    1       26.368 -16.495   3.257  0.00  0.00    +0.336 C 
BRANCH   6   7
ATOM      7  O   LIG    1       27.610 -16.314   3.781  0.00  0.00    -0.479 OA
ATOM      8  H   LIG    1       27.773 -16.991   4.474  0.00  0.00    +0.295 HD
ENDBRANCH   6   7
ENDBRANCH   4   6
BRANCH   4   9
ATOM      9  O   LIG    1       26.710 -14.389   2.082  0.00  0.00    -0.378 OA
ATOM     10  H   LIG    1       26.788 -13.526   2.549  0.00  0.00    +0.211 HD
ENDBRANCH   4   9
ENDBRANCH   1   4
BRANCH   1  11
ATOM     11  C   LIG    1       26.016 -13.209   4.475  0.00  0.00    +0.185 C 
BRANCH  11  12
ATOM     12  O   LIG    1       25.182 -12.416   5.356  0.00  0.00    -0.386 OA
ATOM     13  H   LIG    1       25.667 -12.386   6.210  0.00  0.00    +0.210 HD
ENDBRANCH  11  12
BRANCH  11  14
ATOM     14  C   LIG    1       27.312 -13.622   5.203  0.00  0.00    +0.254 C 
BRANCH  14  15
ATOM     15  O   LIG    1       27.112 -13.421   6.611  0.00  0.00    -0.378 OA
ATOM     16  H   LIG    1       26.592 -12.596   6.702  0.00  0.00    +0.211 HD
ENDBRANCH  14  15
BRANCH  14  17
ATOM     17  C   LIG    1       28.497 -12.796   4.691  0.00  0.00    +0.336 C 
ATOM     18  O   LIG    1       28.972 -12.914   3.569  0.00  0.00    -0.248 OA
BRANCH  17  19
ATOM     19  O   LIG    1       28.950 -11.874   5.570  0.00  0.00    -0.479 OA
ATOM     20  H   LIG    1       29.728 -11.355   5.276  0.00  0.00    +0.295 HD
ENDBRANCH  17  19
ENDBRANCH  14  17
ENDBRANCH  11  14
ENDBRANCH   1  11
TORSDOF 11
ENDMDL
