MODEL 1
REMARK VINA RESULT:      -5.7      0.000      0.000
REMARK  Name = *****
REMARK                            x       y       z     vdW  Elec       q    Type
REMARK                         _______ _______ _______ _____ _____    ______ ____
ROOT
ATOM      1  C   LIG    1       23.273 -21.111   6.936  0.00  0.00    +0.105 C 
ATOM      2  N   LIG    1       23.639 -20.097   5.954  0.00  0.00    -0.298 NA
ATOM      3  C   LIG    1       24.677 -20.559   5.013  0.00  0.00    +0.088 C 
ATOM      4  C   LIG    1       24.525 -19.613   3.812  0.00  0.00    +0.025 C 
ATOM      5  C   LIG    1       23.166 -18.946   3.991  0.00  0.00    +0.017 C 
ATOM      6  C   LIG    1       22.501 -19.718   5.114  0.00  0.00    +0.085 C 
ENDROOT
BRANCH   3   7
ATOM      7  C   LIG    1       26.078 -20.539   5.570  0.00  0.00    -0.012 A 
ATOM      8  C   LIG    1       26.469 -21.478   6.522  0.00  0.00    +0.115 A 
ATOM      9  N   LIG    1       27.708 -21.552   7.062  0.00  0.00    -0.263 NA
ATOM     10  C   LIG    1       28.609 -20.645   6.630  0.00  0.00    +0.111 A 
ATOM     11  C   LIG    1       28.332 -19.674   5.682  0.00  0.00    +0.020 A 
ATOM     12  C   LIG    1       27.050 -19.627   5.145  0.00  0.00    +0.008 A 
ENDBRANCH   3   7
TORSDOF 1
ENDMDL
MODEL 2
REMARK VINA RESULT:      -4.3      1.437      2.150
REMARK  Name = *****
REMARK                            x       y       z     vdW  Elec       q    Type
REMARK                         _______ _______ _______ _____ _____    ______ ____
ROOT
ATOM      1  C   LIG    1       25.556 -18.441   3.468  0.00  0.00    +0.105 C 
ATOM      2  N   LIG    1       25.317 -19.831   3.836  0.00  0.00    -0.298 NA
ATOM      3  C   LIG    1       25.423 -20.065   5.289  0.00  0.00    +0.088 C 
ATOM      4  C   LIG    1       24.645 -21.373   5.503  0.00  0.00    +0.025 C 
ATOM      5  C   LIG    1       23.828 -21.572   4.231  0.00  0.00    +0.017 C 
ATOM      6  C   LIG    1       23.966 -20.264   3.475  0.00  0.00    +0.085 C 
ENDROOT
BRANCH   3   7
ATOM      7  C   LIG    1       26.836 -20.162   5.804  0.00  0.00    -0.012 A 
ATOM      8  C   LIG    1       27.230 -21.254   6.575  0.00  0.00    +0.115 A 
ATOM      9  N   LIG    1       28.479 -21.438   7.062  0.00  0.00    -0.263 NA
ATOM     10  C   LIG    1       29.389 -20.487   6.764  0.00  0.00    +0.111 A 
ATOM     11  C   LIG    1       29.111 -19.367   6.000  0.00  0.00    +0.020 A 
ATOM     12  C   LIG    1       27.817 -19.208   5.512  0.00  0.00    +0.008 A 
ENDBRANCH   3   7
TORSDOF 1
ENDMDL
MODEL 3
REMARK VINA RESULT:      -4.0      1.424      4.791
REMARK  Name = *****
REMARK                            x       y       z     vdW  Elec       q    Type
REMARK                         _______ _______ _______ _____ _____    ______ ____
ROOT
ATOM      1  C   LIG    1       27.780 -18.213   4.452  0.00  0.00    +0.105 C 
ATOM      2  N   LIG    1       27.981 -18.974   5.679  0.00  0.00    -0.298 NA
ATOM      3  C   LIG    1       27.433 -20.342   5.599  0.00  0.00    +0.088 C 
ATOM      4  C   LIG    1       28.187 -21.098   6.705  0.00  0.00    +0.025 C 
ATOM      5  C   LIG    1       29.377 -20.215   7.061  0.00  0.00    +0.017 C 
ATOM      6  C   LIG    1       29.402 -19.146   5.985  0.00  0.00    +0.085 C 
ENDROOT
BRANCH   3   7
ATOM      7  C   LIG    1       25.939 -20.429   5.779  0.00  0.00    -0.012 A 
ATOM      8  C   LIG    1       25.085 -20.105   4.727  0.00  0.00    +0.115 A 
ATOM      9  N   LIG    1       23.735 -20.172   4.787  0.00  0.00    -0.263 NA
ATOM     10  C   LIG    1       23.203 -20.588   5.956  0.00  0.00    +0.111 A 
ATOM     11  C   LIG    1       23.956 -20.943   7.062  0.00  0.00    +0.020 A 
ATOM     12  C   LIG    1       25.342 -20.865   6.967  0.00  0.00    +0.008 A 
ENDBRANCH   3   7
TORSDOF 1
ENDMDL
MODEL 4
REMARK VINA RESULT:      -3.6      2.928      4.543
REMARK  Name = *****
REMARK                            x       y       z     vdW  Elec       q    Type
REMARK                         _______ _______ _______ _____ _____    ______ ____
ROOT
ATOM      1  C   LIG    1       25.797 -20.111   4.235  0.00  0.00    +0.105 C 
ATOM      2  N   LIG    1       24.531 -19.580   4.726  0.00  0.00    -0.298 NA
ATOM      3  C   LIG    1       23.884 -18.662   3.768  0.00  0.00    +0.088 C 
ATOM      4  C   LIG    1       22.413 -18.656   4.210  0.00  0.00    +0.025 C 
ATOM      5  C   LIG    1       22.259 -19.865   5.127  0.00  0.00    +0.017 C 
ATOM      6  C   LIG    1       23.551 -20.642   4.961  0.00  0.00    +0.085 C 
ENDROOT
BRANCH   3   7
ATOM      7  C   LIG    1       24.468 -17.272   3.744  0.00  0.00    -0.012 A 
ATOM      8  C   LIG    1       25.764 -17.063   3.275  0.00  0.00    +0.115 A 
ATOM      9  N   LIG    1       26.363 -15.853   3.195  0.00  0.00    -0.263 NA
ATOM     10  C   LIG    1       25.635 -14.791   3.600  0.00  0.00    +0.111 A 
ATOM     11  C   LIG    1       24.338 -14.882   4.075  0.00  0.00    +0.020 A 
ATOM     12  C   LIG    1       23.749 -16.141   4.142  0.00  0.00    +0.008 A 
ENDBRANCH   3   7
TORSDOF 1
ENDMDL
MODEL 5
REMARK VINA RESULT:      -3.5      6.210      8.110
REMARK  Name = *****
REMARK                            x       y       z     vdW  Elec       q    Type
REMARK                         _______ _______ _______ _____ _____    ______ ____
ROOT
ATOM      1  C   LIG    1       28.430 -13.466   4.035  0.00  0.00    +0.105 C 
ATOM      2  N   LIG    1       27.410 -14.504   4.123  0.00  0.00    -0.298 NA
ATOM      3  C   LIG    1       26.442 -14.451   3.011  0.00  0.00    +0.088 C 
ATOM      4  C   LIG    1       25.834 -15.862   2.992  0.00  0.00    +0.025 C 
ATOM      5  C   LIG    1       26.776 -16.721   3.829  0.00  0.00    +0.017 C 
ATOM      6  C   LIG    1       27.993 -15.845   4.061  0.00  0.00    +0.085 C 
ENDROOT
BRANCH   3   7
ATOM      7  C   LIG    1       25.384 -13.386   3.154  0.00  0.00    -0.012 A 
ATOM      8  C   LIG    1       24.795 -13.142   4.393  0.00  0.00    +0.115 A 
ATOM      9  N   LIG    1       23.856 -12.196   4.623  0.00  0.00    -0.263 NA
ATOM     10  C   LIG    1       23.483 -11.447   3.564  0.00  0.00    +0.111 A 
ATOM     11  C   LIG    1       24.008 -11.596   2.291  0.00  0.00    +0.020 A 
ATOM     12  C   LIG    1       24.974 -12.577   2.089  0.00  0.00    +0.008 A 
ENDBRANCH   3   7
TORSDOF 1
ENDMDL
MODEL 6
REMARK VINA RESULT:      -3.1      4.386      6.299
REMARK  Name = *****
REMARK                            x       y       z     vdW  Elec       q    Type
REMARK                         _______ _______ _______ _____ _____    ______ ____
ROOT
ATOM      1  C   LIG    1       27.173 -15.269   3.615  0.00  0.00    +0.105 C 
ATOM      2  N   LIG    1       25.975 -14.713   2.997  0.00  0.00    -0.298 NA
ATOM      3  C   LIG    1       24.796 -14.768   3.882  0.00  0.00    +0.088 C 
ATOM      4  C   LIG    1       23.852 -13.707   3.296  0.00  0.00    +0.025 C 
ATOM      5  C   LIG    1       24.719 -12.860   2.371  0.00  0.00    +0.017 C 
ATOM      6  C   LIG    1       26.141 -13.296   2.667  0.00  0.00    +0.085 C 
ENDROOT
BRANCH   3   7
ATOM      7  C   LIG    1       24.138 -16.122   3.962  0.00  0.00    -0.012 A 
ATOM      8  C   LIG    1       24.831 -17.265   3.567  0.00  0.00    +0.115 A 
ATOM      9  N   LIG    1       24.332 -18.521   3.622  0.00  0.00    -0.263 NA
ATOM     10  C   LIG    1       23.077 -18.652   4.100  0.00  0.00    +0.111 A 
ATOM     11  C   LIG    1       22.301 -17.588   4.528  0.00  0.00    +0.020 A 
ATOM     12  C   LIG    1       22.844 -16.309   4.460  0.00  0.00    +0.008 A 
ENDBRANCH   3   7
TORSDOF 1
ENDMDL
MODEL 7
REMARK VINA RESULT:      -3.0      3.955      5.643
REMARK  Name = *****
REMARK                            x       y       z     vdW  Elec       q    Type
REMARK                         _______ _______ _______ _____ _____    ______ ____
ROOT
ATOM      1  C   LIG    1       23.769 -14.036   3.752  0.00  0.00    +0.105 C 
ATOM      2  N   LIG    1       25.065 -14.548   4.182  0.00  0.00    -0.298 NA
ATOM      3  C   LIG    1       25.580 -15.615   3.303  0.00  0.00    +0.088 C 
ATOM      4  C   LIG    1       27.089 -15.624   3.589  0.00  0.00    +0.025 C 
ATOM      5  C   LIG    1       27.374 -14.309   4.307  0.00  0.00    +0.017 C 
ATOM      6  C   LIG    1       26.094 -13.507   4.165  0.00  0.00    +0.085 C 
ENDROOT
BRANCH   3   7
ATOM      7  C   LIG    1       24.957 -16.969   3.533  0.00  0.00    -0.012 A 
ATOM      8  C   LIG    1       25.706 -18.128   3.342  0.00  0.00    +0.115 A 
ATOM      9  N   LIG    1       25.242 -19.383   3.544  0.00  0.00    -0.263 NA
ATOM     10  C   LIG    1       23.963 -19.492   3.963  0.00  0.00    +0.111 A 
ATOM     11  C   LIG    1       23.132 -18.409   4.194  0.00  0.00    +0.020 A 
ATOM     12  C   LIG    1       23.641 -17.132   3.978  0.00  0.00    +0.008 A 
ENDBRANCH   3   7
TORSDOF 1
ENDMDL
MODEL 8
REMARK VINA RESULT:      -2.8      4.383      6.290
REMARK  Name = *****
REMARK                            x       y       z     vdW  Elec       q    Type
REMARK                         _______ _______ _______ _____ _____    ______ ____
ROOT
ATOM      1  C   LIG    1       27.217 -15.224   3.625  0.00  0.00    +0.105 C 
ATOM      2  N   LIG    1       26.006 -14.710   2.996  0.00  0.00    -0.298 NA
ATOM      3  C   LIG    1       24.825 -14.792   3.875  0.00  0.00    +0.088 C 
ATOM      4  C   LIG    1       23.853 -13.765   3.274  0.00  0.00    +0.025 C 
ATOM      5  C   LIG    1       24.699 -12.901   2.346  0.00  0.00    +0.017 C 
ATOM      6  C   LIG    1       26.132 -13.292   2.654  0.00  0.00    +0.085 C 
ENDROOT
BRANCH   3   7
ATOM      7  C   LIG    1       24.207 -16.165   3.964  0.00  0.00    -0.012 A 
ATOM      8  C   LIG    1       22.905 -16.320   4.436  0.00  0.00    +0.115 A 
ATOM      9  N   LIG    1       22.261 -17.506   4.531  0.00  0.00    -0.263 NA
ATOM     10  C   LIG    1       22.945 -18.598   4.131  0.00  0.00    +0.111 A 
ATOM     11  C   LIG    1       24.238 -18.559   3.637  0.00  0.00    +0.020 A 
ATOM     12  C   LIG    1       24.872 -17.324   3.550  0.00  0.00    +0.008 A 
ENDBRANCH   3   7
TORSDOF 1
ENDMDL
