MODEL 1
REMARK VINA RESULT:      -4.8      0.000      0.000
REMARK  Name = *****
REMARK                            x       y       z     vdW  Elec       q    Type
REMARK                         _______ _______ _______ _____ _____    ______ ____
ROOT
ATOM      1  N   LIG    1       25.304 -15.805   3.591  0.00  0.00    -0.140 N 
ATOM      2  C   LIG    1       25.349 -17.189   3.422  0.00  0.00    +0.324 C 
ATOM      3  N   LIG    1       24.239 -17.897   3.838  0.00  0.00    -0.295 N 
ATOM      4  H   LIG    1       23.598 -17.449   4.478  0.00  0.00    +0.151 HD
ATOM      5  O   LIG    1       26.311 -17.754   2.882  0.00  0.00    -0.251 OA
ENDROOT
BRANCH   3   6
ATOM      6  C   LIG    1       24.120 -19.340   3.657  0.00  0.00    +0.074 C 
ATOM      7  C   LIG    1       25.336 -20.082   4.231  0.00  0.00    +0.022 C 
ATOM      8  C   LIG    1       25.324 -20.138   5.757  0.00  0.00    +0.002 C 
ATOM      9  C   LIG    1       24.032 -20.762   6.269  0.00  0.00    +0.000 C 
ATOM     10  C   LIG    1       22.817 -19.984   5.774  0.00  0.00    +0.002 C 
ATOM     11  C   LIG    1       22.803 -19.866   4.249  0.00  0.00    +0.022 C 
ENDBRANCH   3   6
BRANCH   1  13
ATOM     12  O   LIG    1       23.958 -14.066   3.854  0.00  0.00    -0.126 OA
ATOM     13  N   LIG    1       24.203 -15.218   4.229  0.00  0.00    +0.053 NA
ENDBRANCH   1  13
BRANCH   1  14
ATOM     14  C   LIG    1       26.392 -14.976   3.063  0.00  0.00    +0.155 C 
BRANCH  14  15
ATOM     15  C   LIG    1       27.506 -14.746   4.078  0.00  0.00    +0.130 C 
ATOM     16 CL   LIG    1       27.051 -13.443   5.210  0.00  0.00    -0.124 Cl
ENDBRANCH  14  15
ENDBRANCH   1  14
TORSDOF 4
ENDMDL
MODEL 2
REMARK VINA RESULT:      -4.8      2.899      5.669
REMARK  Name = *****
REMARK                            x       y       z     vdW  Elec       q    Type
REMARK                         _______ _______ _______ _____ _____    ______ ____
ROOT
ATOM      1  N   LIG    1       24.833 -18.138   3.554  0.00  0.00    -0.140 N 
ATOM      2  C   LIG    1       25.696 -17.046   3.461  0.00  0.00    +0.324 C 
ATOM      3  N   LIG    1       25.134 -15.799   3.651  0.00  0.00    -0.295 N 
ATOM      4  H   LIG    1       24.131 -15.708   3.563  0.00  0.00    +0.151 HD
ATOM      5  O   LIG    1       26.913 -17.184   3.269  0.00  0.00    -0.251 OA
ENDROOT
BRANCH   3   6
ATOM      6  C   LIG    1       25.929 -14.576   3.652  0.00  0.00    +0.074 C 
ATOM      7  C   LIG    1       25.947 -13.913   2.268  0.00  0.00    +0.022 C 
ATOM      8  C   LIG    1       24.630 -13.214   1.935  0.00  0.00    +0.002 C 
ATOM      9  C   LIG    1       24.268 -12.194   3.007  0.00  0.00    +0.000 C 
ATOM     10  C   LIG    1       24.166 -12.856   4.377  0.00  0.00    +0.002 C 
ATOM     11  C   LIG    1       25.449 -13.604   4.742  0.00  0.00    +0.022 C 
ENDBRANCH   3   6
BRANCH   1  13
ATOM     12  O   LIG    1       22.841 -18.936   4.101  0.00  0.00    -0.126 OA
ATOM     13  N   LIG    1       23.462 -17.927   3.749  0.00  0.00    +0.053 NA
ENDBRANCH   1  13
BRANCH   1  14
ATOM     14  C   LIG    1       25.378 -19.498   3.485  0.00  0.00    +0.155 C 
BRANCH  14  15
ATOM     15  C   LIG    1       25.889 -19.999   4.831  0.00  0.00    +0.130 C 
ATOM     16 CL   LIG    1       24.964 -21.435   5.349  0.00  0.00    -0.124 Cl
ENDBRANCH  14  15
ENDBRANCH   1  14
TORSDOF 4
ENDMDL
MODEL 3
REMARK VINA RESULT:      -4.1      2.782      5.923
REMARK  Name = *****
REMARK                            x       y       z     vdW  Elec       q    Type
REMARK                         _______ _______ _______ _____ _____    ______ ____
ROOT
ATOM      1  N   LIG    1       23.143 -17.786   4.092  0.00  0.00    -0.140 N 
ATOM      2  C   LIG    1       23.167 -16.447   4.483  0.00  0.00    +0.324 C 
ATOM      3  N   LIG    1       24.223 -15.688   4.019  0.00  0.00    -0.295 N 
ATOM      4  H   LIG    1       25.045 -16.170   3.680  0.00  0.00    +0.151 HD
ATOM      5  O   LIG    1       22.263 -15.946   5.169  0.00  0.00    -0.251 OA
ENDROOT
BRANCH   3   6
ATOM      6  C   LIG    1       24.336 -14.259   4.291  0.00  0.00    +0.074 C 
ATOM      7  C   LIG    1       25.733 -13.893   4.811  0.00  0.00    +0.022 C 
ATOM      8  C   LIG    1       26.791 -13.903   3.710  0.00  0.00    +0.002 C 
ATOM      9  C   LIG    1       26.394 -12.981   2.563  0.00  0.00    +0.000 C 
ATOM     10  C   LIG    1       25.043 -13.386   1.983  0.00  0.00    +0.002 C 
ATOM     11  C   LIG    1       23.955 -13.429   3.056  0.00  0.00    +0.022 C 
ENDBRANCH   3   6
BRANCH   1  13
ATOM     12  O   LIG    1       25.230 -18.518   3.988  0.00  0.00    -0.126 OA
ATOM     13  N   LIG    1       24.201 -18.309   3.337  0.00  0.00    +0.053 NA
ENDBRANCH   1  13
BRANCH   1  14
ATOM     14  C   LIG    1       21.990 -18.621   4.444  0.00  0.00    +0.155 C 
BRANCH  14  15
ATOM     15  C   LIG    1       22.374 -20.069   4.729  0.00  0.00    +0.130 C 
ATOM     16 CL   LIG    1       23.112 -20.206   6.348  0.00  0.00    -0.124 Cl
ENDBRANCH  14  15
ENDBRANCH   1  14
TORSDOF 4
ENDMDL
MODEL 4
REMARK VINA RESULT:      -4.1      2.616      5.867
REMARK  Name = *****
REMARK                            x       y       z     vdW  Elec       q    Type
REMARK                         _______ _______ _______ _____ _____    ______ ____
ROOT
ATOM      1  N   LIG    1       23.794 -17.529   4.069  0.00  0.00    -0.140 N 
ATOM      2  C   LIG    1       23.805 -16.134   4.123  0.00  0.00    +0.324 C 
ATOM      3  N   LIG    1       24.963 -15.510   3.703  0.00  0.00    -0.295 N 
ATOM      4  H   LIG    1       25.811 -16.059   3.655  0.00  0.00    +0.151 HD
ATOM      5  O   LIG    1       22.812 -15.483   4.479  0.00  0.00    -0.251 OA
ENDROOT
BRANCH   3   6
ATOM      6  C   LIG    1       25.088 -14.058   3.640  0.00  0.00    +0.074 C 
ATOM      7  C   LIG    1       25.633 -13.481   4.953  0.00  0.00    +0.022 C 
ATOM      8  C   LIG    1       27.128 -13.735   5.131  0.00  0.00    +0.002 C 
ATOM      9  C   LIG    1       27.918 -13.194   3.947  0.00  0.00    +0.000 C 
ATOM     10  C   LIG    1       27.442 -13.822   2.642  0.00  0.00    +0.002 C 
ATOM     11  C   LIG    1       25.939 -13.629   2.434  0.00  0.00    +0.022 C 
ENDBRANCH   3   6
BRANCH   1  13
ATOM     12  O   LIG    1       25.724 -17.554   2.984  0.00  0.00    -0.126 OA
ATOM     13  N   LIG    1       24.950 -18.218   3.681  0.00  0.00    +0.053 NA
ENDBRANCH   1  13
BRANCH   1  14
ATOM     14  C   LIG    1       22.559 -18.255   4.382  0.00  0.00    +0.155 C 
BRANCH  14  15
ATOM     15  C   LIG    1       22.773 -19.758   4.512  0.00  0.00    +0.130 C 
ATOM     16 CL   LIG    1       22.990 -20.206   6.226  0.00  0.00    -0.124 Cl
ENDBRANCH  14  15
ENDBRANCH   1  14
TORSDOF 4
ENDMDL
MODEL 5
REMARK VINA RESULT:      -3.4      2.667      5.848
REMARK  Name = *****
REMARK                            x       y       z     vdW  Elec       q    Type
REMARK                         _______ _______ _______ _____ _____    ______ ____
ROOT
ATOM      1  N   LIG    1       26.174 -18.768   4.038  0.00  0.00    -0.140 N 
ATOM      2  C   LIG    1       25.625 -17.552   3.629  0.00  0.00    +0.324 C 
ATOM      3  N   LIG    1       26.474 -16.463   3.625  0.00  0.00    -0.295 N 
ATOM      4  H   LIG    1       27.327 -16.520   4.164  0.00  0.00    +0.151 HD
ATOM      5  O   LIG    1       24.451 -17.458   3.241  0.00  0.00    -0.251 OA
ENDROOT
BRANCH   3   6
ATOM      6  C   LIG    1       26.053 -15.147   3.154  0.00  0.00    +0.074 C 
ATOM      7  C   LIG    1       25.329 -14.360   4.255  0.00  0.00    +0.022 C 
ATOM      8  C   LIG    1       26.285 -13.821   5.318  0.00  0.00    +0.002 C 
ATOM      9  C   LIG    1       27.378 -12.968   4.686  0.00  0.00    +0.000 C 
ATOM     10  C   LIG    1       28.160 -13.765   3.648  0.00  0.00    +0.002 C 
ATOM     11  C   LIG    1       27.241 -14.360   2.580  0.00  0.00    +0.022 C 
ENDBRANCH   3   6
BRANCH   1  13
ATOM     12  O   LIG    1       27.717 -19.700   5.325  0.00  0.00    -0.126 OA
ATOM     13  N   LIG    1       27.499 -18.815   4.490  0.00  0.00    +0.053 NA
ENDBRANCH   1  13
BRANCH   1  14
ATOM     14  C   LIG    1       25.368 -19.990   3.952  0.00  0.00    +0.155 C 
BRANCH  14  15
ATOM     15  C   LIG    1       24.625 -20.300   5.247  0.00  0.00    +0.130 C 
ATOM     16 CL   LIG    1       22.901 -19.869   5.089  0.00  0.00    -0.124 Cl
ENDBRANCH  14  15
ENDBRANCH   1  14
TORSDOF 4
ENDMDL
MODEL 6
REMARK VINA RESULT:      -3.3      1.794      2.411
REMARK  Name = *****
REMARK                            x       y       z     vdW  Elec       q    Type
REMARK                         _______ _______ _______ _____ _____    ______ ____
ROOT
ATOM      1  N   LIG    1       27.087 -17.077   3.925  0.00  0.00    -0.140 N 
ATOM      2  C   LIG    1       26.185 -18.078   3.563  0.00  0.00    +0.324 C 
ATOM      3  N   LIG    1       26.239 -19.249   4.293  0.00  0.00    -0.295 N 
ATOM      4  H   LIG    1       27.073 -19.438   4.833  0.00  0.00    +0.151 HD
ATOM      5  O   LIG    1       25.343 -17.912   2.668  0.00  0.00    -0.251 OA
ENDROOT
BRANCH   3   6
ATOM      6  C   LIG    1       25.309 -20.351   4.070  0.00  0.00    +0.074 C 
ATOM      7  C   LIG    1       25.256 -21.297   5.278  0.00  0.00    +0.022 C 
ATOM      8  C   LIG    1       24.481 -20.706   6.454  0.00  0.00    +0.002 C 
ATOM      9  C   LIG    1       23.073 -20.304   6.032  0.00  0.00    +0.000 C 
ATOM     10  C   LIG    1       23.114 -19.299   4.886  0.00  0.00    +0.002 C 
ATOM     11  C   LIG    1       23.913 -19.830   3.695  0.00  0.00    +0.022 C 
ENDBRANCH   3   6
BRANCH   1  13
ATOM     12  O   LIG    1       28.822 -18.238   4.664  0.00  0.00    -0.126 OA
ATOM     13  N   LIG    1       28.034 -17.323   4.928  0.00  0.00    +0.053 NA
ENDBRANCH   1  13
BRANCH   1  14
ATOM     14  C   LIG    1       27.007 -15.763   3.278  0.00  0.00    +0.155 C 
BRANCH  14  15
ATOM     15  C   LIG    1       27.663 -14.658   4.098  0.00  0.00    +0.130 C 
ATOM     16 CL   LIG    1       26.420 -13.687   4.932  0.00  0.00    -0.124 Cl
ENDBRANCH  14  15
ENDBRANCH   1  14
TORSDOF 4
ENDMDL
MODEL 7
REMARK VINA RESULT:      -3.0      1.873      2.471
REMARK  Name = *****
REMARK                            x       y       z     vdW  Elec       q    Type
REMARK                         _______ _______ _______ _____ _____    ______ ____
ROOT
ATOM      1  N   LIG    1       24.810 -15.687   3.897  0.00  0.00    -0.140 N 
ATOM      2  C   LIG    1       23.772 -16.599   4.090  0.00  0.00    +0.324 C 
ATOM      3  N   LIG    1       24.067 -17.928   3.856  0.00  0.00    -0.295 N 
ATOM      4  H   LIG    1       24.886 -18.145   3.304  0.00  0.00    +0.151 HD
ATOM      5  O   LIG    1       22.656 -16.248   4.500  0.00  0.00    -0.251 OA
ENDROOT
BRANCH   3   6
ATOM      6  C   LIG    1       23.100 -18.995   4.086  0.00  0.00    +0.074 C 
ATOM      7  C   LIG    1       23.267 -20.136   3.073  0.00  0.00    +0.022 C 
ATOM      8  C   LIG    1       24.491 -21.003   3.361  0.00  0.00    +0.002 C 
ATOM      9  C   LIG    1       24.446 -21.556   4.780  0.00  0.00    +0.000 C 
ATOM     10  C   LIG    1       24.363 -20.427   5.802  0.00  0.00    +0.002 C 
ATOM     11  C   LIG    1       23.173 -19.505   5.534  0.00  0.00    +0.022 C 
ENDBRANCH   3   6
BRANCH   1  13
ATOM     12  O   LIG    1       26.920 -15.259   3.377  0.00  0.00    -0.126 OA
ATOM     13  N   LIG    1       26.046 -16.133   3.410  0.00  0.00    +0.053 NA
ENDBRANCH   1  13
BRANCH   1  14
ATOM     14  C   LIG    1       24.606 -14.277   4.243  0.00  0.00    +0.155 C 
BRANCH  14  15
ATOM     15  C   LIG    1       24.008 -13.467   3.098  0.00  0.00    +0.130 C 
ATOM     16 CL   LIG    1       25.293 -12.594   2.220  0.00  0.00    -0.124 Cl
ENDBRANCH  14  15
ENDBRANCH   1  14
TORSDOF 4
ENDMDL
MODEL 8
REMARK VINA RESULT:      -2.7      1.851      2.230
REMARK  Name = *****
REMARK                            x       y       z     vdW  Elec       q    Type
REMARK                         _______ _______ _______ _____ _____    ______ ____
ROOT
ATOM      1  N   LIG    1       24.863 -14.802   3.866  0.00  0.00    -0.140 N 
ATOM      2  C   LIG    1       25.650 -15.856   3.400  0.00  0.00    +0.324 C 
ATOM      3  N   LIG    1       25.219 -17.130   3.709  0.00  0.00    -0.295 N 
ATOM      4  H   LIG    1       24.554 -17.241   4.463  0.00  0.00    +0.151 HD
ATOM      5  O   LIG    1       26.656 -15.665   2.701  0.00  0.00    -0.251 OA
ENDROOT
BRANCH   3   6
ATOM      6  C   LIG    1       25.904 -18.325   3.227  0.00  0.00    +0.074 C 
ATOM      7  C   LIG    1       26.781 -18.951   4.320  0.00  0.00    +0.022 C 
ATOM      8  C   LIG    1       25.963 -19.686   5.380  0.00  0.00    +0.002 C 
ATOM      9  C   LIG    1       25.072 -20.745   4.743  0.00  0.00    +0.000 C 
ATOM     10  C   LIG    1       24.136 -20.122   3.713  0.00  0.00    +0.002 C 
ATOM     11  C   LIG    1       24.906 -19.339   2.648  0.00  0.00    +0.022 C 
ENDBRANCH   3   6
BRANCH   1  13
ATOM     12  O   LIG    1       22.893 -15.779   4.130  0.00  0.00    -0.126 OA
ATOM     13  N   LIG    1       23.748 -15.070   4.671  0.00  0.00    +0.053 NA
ENDBRANCH   1  13
BRANCH   1  14
ATOM     14  C   LIG    1       25.190 -13.427   3.474  0.00  0.00    +0.155 C 
BRANCH  14  15
ATOM     15  C   LIG    1       23.969 -12.515   3.441  0.00  0.00    +0.130 C 
ATOM     16 CL   LIG    1       23.922 -11.492   4.903  0.00  0.00    -0.124 Cl
ENDBRANCH  14  15
ENDBRANCH   1  14
TORSDOF 4
ENDMDL
MODEL 9
REMARK VINA RESULT:      -2.4      2.611      2.955
REMARK  Name = *****
REMARK                            x       y       z     vdW  Elec       q    Type
REMARK                         _______ _______ _______ _____ _____    ______ ____
ROOT
ATOM      1  N   LIG    1       27.154 -17.986   4.168  0.00  0.00    -0.140 N 
ATOM      2  C   LIG    1       26.669 -19.232   4.570  0.00  0.00    +0.324 C 
ATOM      3  N   LIG    1       25.461 -19.626   4.030  0.00  0.00    -0.295 N 
ATOM      4  H   LIG    1       24.867 -18.918   3.620  0.00  0.00    +0.151 HD
ATOM      5  O   LIG    1       27.309 -19.972   5.331  0.00  0.00    -0.251 OA
ENDROOT
BRANCH   3   6
ATOM      6  C   LIG    1       24.871 -20.931   4.306  0.00  0.00    +0.074 C 
ATOM      7  C   LIG    1       25.303 -21.466   5.678  0.00  0.00    +0.022 C 
ATOM      8  C   LIG    1       24.600 -20.756   6.833  0.00  0.00    +0.002 C 
ATOM      9  C   LIG    1       23.086 -20.839   6.684  0.00  0.00    +0.000 C 
ATOM     10  C   LIG    1       22.635 -20.235   5.358  0.00  0.00    +0.002 C 
ATOM     11  C   LIG    1       23.341 -20.887   4.169  0.00  0.00    +0.022 C 
ENDBRANCH   3   6
BRANCH   1  13
ATOM     12  O   LIG    1       26.770 -16.007   3.253  0.00  0.00    -0.126 OA
ATOM     13  N   LIG    1       26.382 -17.178   3.324  0.00  0.00    +0.053 NA
ENDBRANCH   1  13
BRANCH   1  14
ATOM     14  C   LIG    1       28.487 -17.555   4.604  0.00  0.00    +0.155 C 
BRANCH  14  15
ATOM     15  C   LIG    1       29.249 -18.646   5.347  0.00  0.00    +0.130 C 
ATOM     16 CL   LIG    1       29.471 -18.191   7.058  0.00  0.00    -0.124 Cl
ENDBRANCH  14  15
ENDBRANCH   1  14
TORSDOF 4
ENDMDL
