MODEL 1
REMARK VINA RESULT:      -6.9      0.000      0.000
REMARK  Name = *****
REMARK                            x       y       z     vdW  Elec       q    Type
REMARK                         _______ _______ _______ _____ _____    ______ ____
ROOT
ATOM      1  C   LIG    1       23.287 -21.505   7.097  0.00  0.00    +0.035 C 
ENDROOT
BRANCH   1   2
ATOM      2  C   LIG    1       23.535 -20.619   5.899  0.00  0.00    -0.047 A 
ATOM      3  C   LIG    1       24.758 -20.682   5.217  0.00  0.00    +0.003 A 
ATOM      4  C   LIG    1       24.991 -19.885   4.097  0.00  0.00    +0.000 A 
ATOM      5  C   LIG    1       23.999 -19.021   3.639  0.00  0.00    +0.000 A 
ATOM      6  C   LIG    1       22.779 -18.949   4.307  0.00  0.00    +0.000 A 
ATOM      7  C   LIG    1       22.546 -19.742   5.433  0.00  0.00    +0.003 A 
ENDBRANCH   1   2
BRANCH   1   8
ATOM      8  C   LIG    1       24.076 -22.823   7.065  0.00  0.00    +0.016 C 
BRANCH   8   9
ATOM      9  C   LIG    1       23.230 -24.051   6.708  0.00  0.00    +0.121 C 
BRANCH   9  11
ATOM     10  O   LIG    1       23.970 -26.300   6.222  0.00  0.00    -0.251 OA
ATOM     11  C   LIG    1       24.014 -25.102   5.967  0.00  0.00    +0.305 C 
BRANCH  11  12
ATOM     12  O   LIG    1       24.756 -24.621   4.950  0.00  0.00    -0.481 OA
ATOM     13  H   LIG    1       24.363 -23.860   4.481  0.00  0.00    +0.295 HD
ENDBRANCH  11  12
ENDBRANCH   9  11
ENDBRANCH   8   9
ENDBRANCH   1   8
TORSDOF 5
ENDMDL
MODEL 2
REMARK VINA RESULT:      -6.9      0.465      1.472
REMARK  Name = *****
REMARK                            x       y       z     vdW  Elec       q    Type
REMARK                         _______ _______ _______ _____ _____    ______ ____
ROOT
ATOM      1  C   LIG    1       23.353 -21.443   7.111  0.00  0.00    +0.035 C 
ENDROOT
BRANCH   1   2
ATOM      2  C   LIG    1       23.568 -20.592   5.880  0.00  0.00    -0.047 A 
ATOM      3  C   LIG    1       22.557 -19.728   5.436  0.00  0.00    +0.003 A 
ATOM      4  C   LIG    1       22.752 -18.924   4.315  0.00  0.00    +0.000 A 
ATOM      5  C   LIG    1       23.964 -18.966   3.628  0.00  0.00    +0.000 A 
ATOM      6  C   LIG    1       24.976 -19.821   4.059  0.00  0.00    +0.000 A 
ATOM      7  C   LIG    1       24.781 -20.633   5.180  0.00  0.00    +0.003 A 
ENDBRANCH   1   2
BRANCH   1   8
ATOM      8  C   LIG    1       23.117 -22.929   6.801  0.00  0.00    +0.016 C 
BRANCH   8   9
ATOM      9  C   LIG    1       24.388 -23.787   6.838  0.00  0.00    +0.121 C 
BRANCH   9  11
ATOM     10  O   LIG    1       23.864 -26.058   6.198  0.00  0.00    -0.251 OA
ATOM     11  C   LIG    1       24.324 -24.962   5.898  0.00  0.00    +0.305 C 
BRANCH  11  12
ATOM     12  O   LIG    1       24.785 -24.701   4.658  0.00  0.00    -0.481 OA
ATOM     13  H   LIG    1       24.521 -23.833   4.298  0.00  0.00    +0.295 HD
ENDBRANCH  11  12
ENDBRANCH   9  11
ENDBRANCH   8   9
ENDBRANCH   1   8
TORSDOF 5
ENDMDL
MODEL 3
REMARK VINA RESULT:      -6.8      5.809      7.028
REMARK  Name = *****
REMARK                            x       y       z     vdW  Elec       q    Type
REMARK                         _______ _______ _______ _____ _____    ______ ____
ROOT
ATOM      1  C   LIG    1       28.766 -19.925   6.280  0.00  0.00    +0.035 C 
ENDROOT
BRANCH   1   2
ATOM      2  C   LIG    1       27.358 -20.278   6.700  0.00  0.00    -0.047 A 
ATOM      3  C   LIG    1       27.050 -20.446   8.056  0.00  0.00    +0.003 A 
ATOM      4  C   LIG    1       25.750 -20.751   8.457  0.00  0.00    +0.000 A 
ATOM      5  C   LIG    1       24.740 -20.882   7.506  0.00  0.00    +0.000 A 
ATOM      6  C   LIG    1       25.034 -20.716   6.155  0.00  0.00    +0.000 A 
ATOM      7  C   LIG    1       26.337 -20.417   5.750  0.00  0.00    +0.003 A 
ENDBRANCH   1   2
BRANCH   1   8
ATOM      8  C   LIG    1       29.789 -19.998   7.424  0.00  0.00    +0.016 C 
BRANCH   8   9
ATOM      9  C   LIG    1       30.197 -18.632   7.988  0.00  0.00    +0.121 C 
BRANCH   9  11
ATOM     10  O   LIG    1       32.086 -19.522   9.207  0.00  0.00    -0.251 OA
ATOM     11  C   LIG    1       31.603 -18.622   8.529  0.00  0.00    +0.305 C 
BRANCH  11  12
ATOM     12  O   LIG    1       32.325 -17.541   8.169  0.00  0.00    -0.481 OA
ATOM     13  H   LIG    1       32.335 -16.820   8.827  0.00  0.00    +0.295 HD
ENDBRANCH  11  12
ENDBRANCH   9  11
ENDBRANCH   8   9
ENDBRANCH   1   8
TORSDOF 5
ENDMDL
MODEL 4
REMARK VINA RESULT:      -6.8      5.178      6.290
REMARK  Name = *****
REMARK                            x       y       z     vdW  Elec       q    Type
REMARK                         _______ _______ _______ _____ _____    ______ ____
ROOT
ATOM      1  C   LIG    1       28.696 -19.867   6.346  0.00  0.00    +0.035 C 
ENDROOT
BRANCH   1   2
ATOM      2  C   LIG    1       27.290 -20.263   6.732  0.00  0.00    -0.047 A 
ATOM      3  C   LIG    1       26.956 -20.447   8.081  0.00  0.00    +0.003 A 
ATOM      4  C   LIG    1       25.657 -20.792   8.451  0.00  0.00    +0.000 A 
ATOM      5  C   LIG    1       24.673 -20.948   7.477  0.00  0.00    +0.000 A 
ATOM      6  C   LIG    1       24.992 -20.768   6.133  0.00  0.00    +0.000 A 
ATOM      7  C   LIG    1       26.295 -20.428   5.760  0.00  0.00    +0.003 A 
ENDBRANCH   1   2
BRANCH   1   8
ATOM      8  C   LIG    1       29.522 -19.305   7.513  0.00  0.00    +0.016 C 
BRANCH   8   9
ATOM      9  C   LIG    1       30.927 -19.909   7.634  0.00  0.00    +0.121 C 
BRANCH   9  11
ATOM     10  O   LIG    1       30.117 -21.694   9.048  0.00  0.00    -0.251 OA
ATOM     11  C   LIG    1       31.026 -20.937   8.731  0.00  0.00    +0.305 C 
BRANCH  11  12
ATOM     12  O   LIG    1       32.235 -20.991   9.327  0.00  0.00    -0.481 OA
ATOM     13  H   LIG    1       32.817 -21.707   9.006  0.00  0.00    +0.295 HD
ENDBRANCH  11  12
ENDBRANCH   9  11
ENDBRANCH   8   9
ENDBRANCH   1   8
TORSDOF 5
ENDMDL
MODEL 5
REMARK VINA RESULT:      -6.7      5.911      7.067
REMARK  Name = *****
REMARK                            x       y       z     vdW  Elec       q    Type
REMARK                         _______ _______ _______ _____ _____    ______ ____
ROOT
ATOM      1  C   LIG    1       28.999 -20.469   7.508  0.00  0.00    +0.035 C 
ENDROOT
BRANCH   1   2
ATOM      2  C   LIG    1       27.517 -20.528   7.223  0.00  0.00    -0.047 A 
ATOM      3  C   LIG    1       27.046 -20.400   5.909  0.00  0.00    +0.003 A 
ATOM      4  C   LIG    1       25.682 -20.474   5.632  0.00  0.00    +0.000 A 
ATOM      5  C   LIG    1       24.772 -20.686   6.664  0.00  0.00    +0.000 A 
ATOM      6  C   LIG    1       25.226 -20.815   7.975  0.00  0.00    +0.000 A 
ATOM      7  C   LIG    1       26.592 -20.735   8.256  0.00  0.00    +0.003 A 
ENDBRANCH   1   2
BRANCH   1   8
ATOM      8  C   LIG    1       29.618 -19.081   7.279  0.00  0.00    +0.016 C 
BRANCH   8   9
ATOM      9  C   LIG    1       30.105 -18.393   8.560  0.00  0.00    +0.121 C 
BRANCH   9  11
ATOM     10  O   LIG    1       32.151 -19.469   9.266  0.00  0.00    -0.251 OA
ATOM     11  C   LIG    1       31.595 -18.506   8.751  0.00  0.00    +0.305 C 
BRANCH  11  12
ATOM     12  O   LIG    1       32.294 -17.461   8.263  0.00  0.00    -0.481 OA
ATOM     13  H   LIG    1       32.868 -17.673   7.502  0.00  0.00    +0.295 HD
ENDBRANCH  11  12
ENDBRANCH   9  11
ENDBRANCH   8   9
ENDBRANCH   1   8
TORSDOF 5
ENDMDL
MODEL 6
REMARK VINA RESULT:      -6.7      2.792      3.300
REMARK  Name = *****
REMARK                            x       y       z     vdW  Elec       q    Type
REMARK                         _______ _______ _______ _____ _____    ______ ____
ROOT
ATOM      1  C   LIG    1       23.890 -21.975   6.696  0.00  0.00    +0.035 C 
ENDROOT
BRANCH   1   2
ATOM      2  C   LIG    1       23.782 -20.881   5.660  0.00  0.00    -0.047 A 
ATOM      3  C   LIG    1       24.792 -20.716   4.702  0.00  0.00    +0.003 A 
ATOM      4  C   LIG    1       24.692 -19.723   3.728  0.00  0.00    +0.000 A 
ATOM      5  C   LIG    1       23.576 -18.890   3.694  0.00  0.00    +0.000 A 
ATOM      6  C   LIG    1       22.565 -19.044   4.640  0.00  0.00    +0.000 A 
ATOM      7  C   LIG    1       22.666 -20.034   5.620  0.00  0.00    +0.003 A 
ENDBRANCH   1   2
BRANCH   1   8
ATOM      8  C   LIG    1       25.278 -22.632   6.758  0.00  0.00    +0.016 C 
BRANCH   8   9
ATOM      9  C   LIG    1       26.025 -22.395   8.076  0.00  0.00    +0.121 C 
BRANCH   9  11
ATOM     10  O   LIG    1       26.948 -20.239   7.488  0.00  0.00    -0.251 OA
ATOM     11  C   LIG    1       26.361 -20.943   8.301  0.00  0.00    +0.305 C 
BRANCH  11  12
ATOM     12  O   LIG    1       25.921 -20.452   9.477  0.00  0.00    -0.481 OA
ATOM     13  H   LIG    1       25.255 -19.741   9.399  0.00  0.00    +0.295 HD
ENDBRANCH  11  12
ENDBRANCH   9  11
ENDBRANCH   8   9
ENDBRANCH   1   8
TORSDOF 5
ENDMDL
MODEL 7
REMARK VINA RESULT:      -6.6      4.551      5.743
REMARK  Name = *****
REMARK                            x       y       z     vdW  Elec       q    Type
REMARK                         _______ _______ _______ _____ _____    ______ ____
ROOT
ATOM      1  C   LIG    1       27.026 -20.688   7.480  0.00  0.00    +0.035 C 
ENDROOT
BRANCH   1   2
ATOM      2  C   LIG    1       25.699 -20.643   6.758  0.00  0.00    -0.047 A 
ATOM      3  C   LIG    1       24.505 -20.845   7.465  0.00  0.00    +0.003 A 
ATOM      4  C   LIG    1       23.274 -20.784   6.814  0.00  0.00    +0.000 A 
ATOM      5  C   LIG    1       23.221 -20.512   5.449  0.00  0.00    +0.000 A 
ATOM      6  C   LIG    1       24.400 -20.309   4.735  0.00  0.00    +0.000 A 
ATOM      7  C   LIG    1       25.635 -20.375   5.384  0.00  0.00    +0.003 A 
ENDBRANCH   1   2
BRANCH   1   8
ATOM      8  C   LIG    1       28.218 -20.264   6.608  0.00  0.00    +0.016 C 
BRANCH   8   9
ATOM      9  C   LIG    1       29.564 -20.266   7.343  0.00  0.00    +0.121 C 
BRANCH   9  11
ATOM     10  O   LIG    1       30.257 -18.375   6.007  0.00  0.00    -0.251 OA
ATOM     11  C   LIG    1       30.559 -19.311   6.737  0.00  0.00    +0.305 C 
BRANCH  11  12
ATOM     12  O   LIG    1       31.837 -19.543   7.100  0.00  0.00    -0.481 OA
ATOM     13  H   LIG    1       32.506 -19.082   6.559  0.00  0.00    +0.295 HD
ENDBRANCH  11  12
ENDBRANCH   9  11
ENDBRANCH   8   9
ENDBRANCH   1   8
TORSDOF 5
ENDMDL
MODEL 8
REMARK VINA RESULT:      -6.6      5.274      6.256
REMARK  Name = *****
REMARK                            x       y       z     vdW  Elec       q    Type
REMARK                         _______ _______ _______ _____ _____    ______ ____
ROOT
ATOM      1  C   LIG    1       28.612 -20.028   6.537  0.00  0.00    +0.035 C 
ENDROOT
BRANCH   1   2
ATOM      2  C   LIG    1       27.145 -20.308   6.762  0.00  0.00    -0.047 A 
ATOM      3  C   LIG    1       26.273 -20.421   5.670  0.00  0.00    +0.003 A 
ATOM      4  C   LIG    1       24.921 -20.700   5.865  0.00  0.00    +0.000 A 
ATOM      5  C   LIG    1       24.426 -20.880   7.154  0.00  0.00    +0.000 A 
ATOM      6  C   LIG    1       25.281 -20.771   8.248  0.00  0.00    +0.000 A 
ATOM      7  C   LIG    1       26.635 -20.485   8.056  0.00  0.00    +0.003 A 
ENDBRANCH   1   2
BRANCH   1   8
ATOM      8  C   LIG    1       29.440 -19.992   7.831  0.00  0.00    +0.016 C 
BRANCH   8   9
ATOM      9  C   LIG    1       30.017 -21.352   8.244  0.00  0.00    +0.121 C 
BRANCH   9  11
ATOM     10  O   LIG    1       31.903 -20.216   9.241  0.00  0.00    -0.251 OA
ATOM     11  C   LIG    1       31.415 -21.248   8.794  0.00  0.00    +0.305 C 
BRANCH  11  12
ATOM     12  O   LIG    1       32.095 -22.412   8.797  0.00  0.00    -0.481 OA
ATOM     13  H   LIG    1       31.535 -23.212   8.757  0.00  0.00    +0.295 HD
ENDBRANCH  11  12
ENDBRANCH   9  11
ENDBRANCH   8   9
ENDBRANCH   1   8
TORSDOF 5
ENDMDL
MODEL 9
REMARK VINA RESULT:      -6.6      2.039      4.855
REMARK  Name = *****
REMARK                            x       y       z     vdW  Elec       q    Type
REMARK                         _______ _______ _______ _____ _____    ______ ____
ROOT
ATOM      1  C   LIG    1       23.039 -21.821   7.367  0.00  0.00    +0.035 C 
ENDROOT
BRANCH   1   2
ATOM      2  C   LIG    1       23.879 -23.037   7.049  0.00  0.00    -0.047 A 
ATOM      3  C   LIG    1       23.269 -24.219   6.610  0.00  0.00    +0.003 A 
ATOM      4  C   LIG    1       24.035 -25.340   6.293  0.00  0.00    +0.000 A 
ATOM      5  C   LIG    1       25.423 -25.289   6.404  0.00  0.00    +0.000 A 
ATOM      6  C   LIG    1       26.042 -24.119   6.840  0.00  0.00    +0.000 A 
ATOM      7  C   LIG    1       25.275 -22.997   7.163  0.00  0.00    +0.003 A 
ENDBRANCH   1   2
BRANCH   1   8
ATOM      8  C   LIG    1       23.572 -20.522   6.743  0.00  0.00    +0.016 C 
BRANCH   8   9
ATOM      9  C   LIG    1       22.932 -20.166   5.396  0.00  0.00    +0.121 C 
BRANCH   9  11
ATOM     10  O   LIG    1       24.616 -19.617   3.750  0.00  0.00    -0.251 OA
ATOM     11  C   LIG    1       23.844 -20.440   4.228  0.00  0.00    +0.305 C 
BRANCH  11  12
ATOM     12  O   LIG    1       23.776 -21.704   3.762  0.00  0.00    -0.481 OA
ATOM     13  H   LIG    1       23.527 -21.779   2.820  0.00  0.00    +0.295 HD
ENDBRANCH  11  12
ENDBRANCH   9  11
ENDBRANCH   8   9
ENDBRANCH   1   8
TORSDOF 5
ENDMDL
