MODEL 1
REMARK VINA RESULT:      -8.1      0.000      0.000
REMARK  Name = *****
REMARK                            x       y       z     vdW  Elec       q    Type
REMARK                         _______ _______ _______ _____ _____    ______ ____
ROOT
ATOM      1  C   LIG    1       25.101 -28.508   5.980  0.00  0.00    -0.025 A 
ATOM      2  C   LIG    1       24.119 -27.665   6.508  0.00  0.00    +0.008 A 
ATOM      3  C   LIG    1       24.000 -26.349   6.056  0.00  0.00    +0.008 A 
ATOM      4  C   LIG    1       24.873 -25.862   5.080  0.00  0.00    -0.025 A 
ATOM      5  C   LIG    1       25.874 -26.688   4.568  0.00  0.00    +0.008 A 
ATOM      6  C   LIG    1       25.991 -28.006   5.020  0.00  0.00    +0.008 A 
ENDROOT
BRANCH   1  14
ATOM      7  C   LIG    1       23.348 -30.959   9.366  0.00  0.00    +0.012 C 
ATOM      8  C   LIG    1       24.785 -31.480   9.599  0.00  0.00    -0.014 C 
ATOM      9  C   LIG    1       24.664 -32.814  10.356  0.00  0.00    +0.012 C 
ATOM     10  C   LIG    1       25.804 -30.431  10.165  0.00  0.00    +0.061 C 
ATOM     11  C   LIG    1       25.878 -29.456   8.967  0.00  0.00    +0.168 C 
ATOM     12  O   LIG    1       26.250 -28.297   9.000  0.00  0.00    -0.292 OA
ATOM     13  C   LIG    1       25.579 -30.251   7.724  0.00  0.00    -0.000 C 
ATOM     14  C   LIG    1       25.242 -29.876   6.483  0.00  0.00    +0.015 C 
ATOM     15  C   LIG    1       27.173 -31.149  10.052  0.00  0.00    +0.018 C 
ATOM     16  C   LIG    1       27.010 -31.999   8.763  0.00  0.00    +0.010 C 
ATOM     17  C   LIG    1       25.578 -31.666   8.273  0.00  0.00    +0.029 C 
BRANCH  10  18
ATOM     18  C   LIG    1       25.504 -29.668  11.448  0.00  0.00    +0.213 C 
BRANCH  18  19
ATOM     19  S   LIG    1       26.874 -29.326  12.543  0.00  0.00    +0.081 S 
ATOM     20  O   LIG    1       27.803 -28.402  11.905  0.00  0.00    -0.147 OA
ATOM     21  O   LIG    1       27.321 -30.494  13.240  0.00  0.00    -0.147 OA
BRANCH  19  22
ATOM     22  O   LIG    1       26.071 -28.431  13.622  0.00  0.00    -0.254 OA
ATOM     23  H   LIG    1       25.372 -27.932  13.151  0.00  0.00    +0.244 HD
ENDBRANCH  19  22
ENDBRANCH  18  19
ENDBRANCH  10  18
ENDBRANCH   1  14
BRANCH   4  24
ATOM     24  C   LIG    1       24.751 -24.492   4.609  0.00  0.00    +0.015 C 
ATOM     25  C   LIG    1       24.975 -23.438   5.394  0.00  0.00    -0.000 C 
ATOM     26  C   LIG    1       25.333 -23.243   6.848  0.00  0.00    +0.029 C 
ATOM     27  C   LIG    1       24.347 -22.107   7.251  0.00  0.00    -0.014 C 
ATOM     28  C   LIG    1       24.867 -21.125   6.125  0.00  0.00    +0.061 C 
ATOM     29  C   LIG    1       26.392 -21.085   6.412  0.00  0.00    +0.018 C 
ATOM     30  C   LIG    1       22.863 -22.531   7.140  0.00  0.00    +0.012 C 
ATOM     31  C   LIG    1       24.561 -21.649   8.711  0.00  0.00    +0.012 C 
ATOM     32  C   LIG    1       26.705 -22.528   6.892  0.00  0.00    +0.010 C 
ATOM     33  C   LIG    1       24.779 -22.047   4.910  0.00  0.00    +0.168 C 
ATOM     34  O   LIG    1       24.724 -21.741   3.733  0.00  0.00    -0.292 OA
BRANCH  28  35
ATOM     35  C   LIG    1       24.146 -19.796   5.982  0.00  0.00    +0.213 C 
BRANCH  35  36
ATOM     36  S   LIG    1       22.918 -19.674   4.658  0.00  0.00    +0.081 S 
ATOM     37  O   LIG    1       21.966 -20.759   4.770  0.00  0.00    -0.147 OA
ATOM     38  O   LIG    1       23.605 -19.392   3.425  0.00  0.00    -0.147 OA
BRANCH  36  39
ATOM     39  O   LIG    1       22.146 -18.326   5.075  0.00  0.00    -0.254 OA
ATOM     40  H   LIG    1       21.204 -18.368   4.764  0.00  0.00    +0.244 HD
ENDBRANCH  36  39
ENDBRANCH  35  36
ENDBRANCH  28  35
ENDBRANCH   4  24
TORSDOF 8
ENDMDL
MODEL 2
REMARK VINA RESULT:      -7.4      2.410      3.046
REMARK  Name = *****
REMARK                            x       y       z     vdW  Elec       q    Type
REMARK                         _______ _______ _______ _____ _____    ______ ____
ROOT
ATOM      1  C   LIG    1       25.563 -28.984   7.934  0.00  0.00    -0.025 A 
ATOM      2  C   LIG    1       26.306 -27.807   8.069  0.00  0.00    +0.008 A 
ATOM      3  C   LIG    1       26.080 -26.726   7.215  0.00  0.00    +0.008 A 
ATOM      4  C   LIG    1       25.114 -26.819   6.209  0.00  0.00    -0.025 A 
ATOM      5  C   LIG    1       24.388 -27.999   6.048  0.00  0.00    +0.008 A 
ATOM      6  C   LIG    1       24.615 -29.080   6.906  0.00  0.00    +0.008 A 
ENDROOT
BRANCH   1  14
ATOM      7  C   LIG    1       23.416 -32.802   9.097  0.00  0.00    +0.012 C 
ATOM      8  C   LIG    1       23.857 -32.489  10.546  0.00  0.00    -0.014 C 
ATOM      9  C   LIG    1       23.823 -33.817  11.324  0.00  0.00    +0.012 C 
ATOM     10  C   LIG    1       23.161 -31.254  11.217  0.00  0.00    +0.061 C 
ATOM     11  C   LIG    1       23.722 -30.118  10.331  0.00  0.00    +0.168 C 
ATOM     12  O   LIG    1       23.246 -29.005  10.194  0.00  0.00    -0.292 OA
ATOM     13  C   LIG    1       25.059 -30.574   9.812  0.00  0.00    -0.000 C 
ATOM     14  C   LIG    1       25.830 -30.125   8.811  0.00  0.00    +0.015 C 
ATOM     15  C   LIG    1       23.967 -31.042  12.523  0.00  0.00    +0.018 C 
ATOM     16  C   LIG    1       25.406 -31.455  12.110  0.00  0.00    +0.010 C 
ATOM     17  C   LIG    1       25.271 -31.843  10.616  0.00  0.00    +0.029 C 
BRANCH  10  18
ATOM     18  C   LIG    1       21.643 -31.163  11.294  0.00  0.00    +0.213 C 
BRANCH  18  19
ATOM     19  S   LIG    1       20.937 -30.362  12.726  0.00  0.00    +0.081 S 
ATOM     20  O   LIG    1       21.319 -28.955  12.749  0.00  0.00    -0.147 OA
ATOM     21  O   LIG    1       20.997 -31.185  13.897  0.00  0.00    -0.147 OA
BRANCH  19  22
ATOM     22  O   LIG    1       19.397 -30.369  12.242  0.00  0.00    -0.254 OA
ATOM     23  H   LIG    1       18.912 -31.042  12.763  0.00  0.00    +0.244 HD
ENDBRANCH  19  22
ENDBRANCH  18  19
ENDBRANCH  10  18
ENDBRANCH   1  14
BRANCH   4  24
ATOM     24  C   LIG    1       24.878 -25.695   5.318  0.00  0.00    +0.015 C 
ATOM     25  C   LIG    1       24.878 -24.429   5.739  0.00  0.00    -0.000 C 
ATOM     26  C   LIG    1       25.042 -23.746   7.075  0.00  0.00    +0.029 C 
ATOM     27  C   LIG    1       23.883 -22.707   7.026  0.00  0.00    -0.014 C 
ATOM     28  C   LIG    1       24.401 -22.050   5.684  0.00  0.00    +0.061 C 
ATOM     29  C   LIG    1       25.867 -21.689   6.046  0.00  0.00    +0.018 C 
ATOM     30  C   LIG    1       22.486 -23.368   6.955  0.00  0.00    +0.012 C 
ATOM     31  C   LIG    1       23.872 -21.796   8.274  0.00  0.00    +0.012 C 
ATOM     32  C   LIG    1       26.301 -22.850   6.983  0.00  0.00    +0.010 C 
ATOM     33  C   LIG    1       24.567 -23.301   4.824  0.00  0.00    +0.168 C 
ATOM     34  O   LIG    1       24.608 -23.382   3.610  0.00  0.00    -0.292 OA
BRANCH  28  35
ATOM     35  C   LIG    1       23.542 -20.955   5.074  0.00  0.00    +0.213 C 
BRANCH  35  36
ATOM     36  S   LIG    1       24.361 -19.821   3.928  0.00  0.00    +0.081 S 
ATOM     37  O   LIG    1       25.750 -19.660   4.304  0.00  0.00    -0.147 OA
ATOM     38  O   LIG    1       23.497 -18.689   3.712  0.00  0.00    -0.147 OA
BRANCH  36  39
ATOM     39  O   LIG    1       24.338 -20.683   2.570  0.00  0.00    -0.254 OA
ATOM     40  H   LIG    1       24.533 -21.635   2.773  0.00  0.00    +0.244 HD
ENDBRANCH  36  39
ENDBRANCH  35  36
ENDBRANCH  28  35
ENDBRANCH   4  24
TORSDOF 8
ENDMDL
MODEL 3
REMARK VINA RESULT:      -6.4      1.906      2.742
REMARK  Name = *****
REMARK                            x       y       z     vdW  Elec       q    Type
REMARK                         _______ _______ _______ _____ _____    ______ ____
ROOT
ATOM      1  C   LIG    1       25.516 -29.072   8.236  0.00  0.00    -0.025 A 
ATOM      2  C   LIG    1       26.384 -27.976   8.229  0.00  0.00    +0.008 A 
ATOM      3  C   LIG    1       26.190 -26.925   7.329  0.00  0.00    +0.008 A 
ATOM      4  C   LIG    1       25.130 -26.970   6.420  0.00  0.00    -0.025 A 
ATOM      5  C   LIG    1       24.276 -28.073   6.401  0.00  0.00    +0.008 A 
ATOM      6  C   LIG    1       24.471 -29.123   7.304  0.00  0.00    +0.008 A 
ENDROOT
BRANCH   1  14
ATOM      7  C   LIG    1       22.968 -31.703  10.906  0.00  0.00    +0.012 C 
ATOM      8  C   LIG    1       24.073 -31.517  11.973  0.00  0.00    -0.014 C 
ATOM      9  C   LIG    1       23.947 -32.691  12.961  0.00  0.00    +0.012 C 
ATOM     10  C   LIG    1       24.189 -30.079  12.587  0.00  0.00    +0.061 C 
ATOM     11  C   LIG    1       24.646 -29.291  11.338  0.00  0.00    +0.168 C 
ATOM     12  O   LIG    1       24.554 -28.089  11.167  0.00  0.00    -0.292 OA
ATOM     13  C   LIG    1       25.390 -30.253  10.449  0.00  0.00    -0.000 C 
ATOM     14  C   LIG    1       25.746 -30.185   9.160  0.00  0.00    +0.015 C 
ATOM     15  C   LIG    1       25.504 -30.133  13.405  0.00  0.00    +0.018 C 
ATOM     16  C   LIG    1       26.393 -31.090  12.565  0.00  0.00    +0.010 C 
ATOM     17  C   LIG    1       25.500 -31.465  11.355  0.00  0.00    +0.029 C 
BRANCH  10  18
ATOM     18  C   LIG    1       22.981 -29.404  13.223  0.00  0.00    +0.213 C 
BRANCH  18  19
ATOM     19  S   LIG    1       23.245 -27.831  14.027  0.00  0.00    +0.081 S 
ATOM     20  O   LIG    1       22.561 -26.775  13.290  0.00  0.00    -0.147 OA
ATOM     21  O   LIG    1       24.587 -27.678  14.503  0.00  0.00    -0.147 OA
BRANCH  19  22
ATOM     22  O   LIG    1       22.326 -28.094  15.328  0.00  0.00    -0.254 OA
ATOM     23  H   LIG    1       21.554 -27.493  15.289  0.00  0.00    +0.244 HD
ENDBRANCH  19  22
ENDBRANCH  18  19
ENDBRANCH  10  18
ENDBRANCH   1  14
BRANCH   4  24
ATOM     24  C   LIG    1       24.926 -25.879   5.482  0.00  0.00    +0.015 C 
ATOM     25  C   LIG    1       24.902 -24.600   5.859  0.00  0.00    -0.000 C 
ATOM     26  C   LIG    1       25.005 -23.871   7.177  0.00  0.00    +0.029 C 
ATOM     27  C   LIG    1       23.844 -22.841   7.043  0.00  0.00    -0.014 C 
ATOM     28  C   LIG    1       24.416 -22.226   5.702  0.00  0.00    +0.061 C 
ATOM     29  C   LIG    1       25.863 -21.844   6.115  0.00  0.00    +0.018 C 
ATOM     30  C   LIG    1       22.455 -23.513   6.935  0.00  0.00    +0.012 C 
ATOM     31  C   LIG    1       23.775 -21.888   8.258  0.00  0.00    +0.012 C 
ATOM     32  C   LIG    1       26.262 -22.970   7.108  0.00  0.00    +0.010 C 
ATOM     33  C   LIG    1       24.626 -23.505   4.893  0.00  0.00    +0.168 C 
ATOM     34  O   LIG    1       24.719 -23.627   3.686  0.00  0.00    -0.292 OA
BRANCH  28  35
ATOM     35  C   LIG    1       23.578 -21.159   5.020  0.00  0.00    +0.213 C 
BRANCH  35  36
ATOM     36  S   LIG    1       24.440 -20.059   3.870  0.00  0.00    +0.081 S 
ATOM     37  O   LIG    1       25.845 -19.991   4.215  0.00  0.00    -0.147 OA
ATOM     38  O   LIG    1       23.644 -18.873   3.692  0.00  0.00    -0.147 OA
BRANCH  36  39
ATOM     39  O   LIG    1       24.332 -20.897   2.501  0.00  0.00    -0.254 OA
ATOM     40  H   LIG    1       23.787 -21.713   2.648  0.00  0.00    +0.244 HD
ENDBRANCH  36  39
ENDBRANCH  35  36
ENDBRANCH  28  35
ENDBRANCH   4  24
TORSDOF 8
ENDMDL
MODEL 4
REMARK VINA RESULT:      -6.3      1.725      2.576
REMARK  Name = *****
REMARK                            x       y       z     vdW  Elec       q    Type
REMARK                         _______ _______ _______ _____ _____    ______ ____
ROOT
ATOM      1  C   LIG    1       25.014 -27.800   6.626  0.00  0.00    -0.025 A 
ATOM      2  C   LIG    1       26.318 -27.349   6.854  0.00  0.00    +0.008 A 
ATOM      3  C   LIG    1       26.619 -25.987   6.776  0.00  0.00    +0.008 A 
ATOM      4  C   LIG    1       25.618 -25.066   6.457  0.00  0.00    -0.025 A 
ATOM      5  C   LIG    1       24.320 -25.510   6.200  0.00  0.00    +0.008 A 
ATOM      6  C   LIG    1       24.020 -26.874   6.280  0.00  0.00    +0.008 A 
ENDROOT
BRANCH   1  14
ATOM      7  C   LIG    1       22.905 -30.613   9.487  0.00  0.00    +0.012 C 
ATOM      8  C   LIG    1       24.078 -31.589   9.232  0.00  0.00    -0.014 C 
ATOM      9  C   LIG    1       23.576 -33.000   9.588  0.00  0.00    +0.012 C 
ATOM     10  C   LIG    1       25.464 -31.157   9.825  0.00  0.00    +0.061 C 
ATOM     11  C   LIG    1       25.742 -29.901   8.967  0.00  0.00    +0.168 C 
ATOM     12  O   LIG    1       26.506 -28.993   9.240  0.00  0.00    -0.292 OA
ATOM     13  C   LIG    1       25.035 -30.093   7.651  0.00  0.00    -0.000 C 
ATOM     14  C   LIG    1       24.713 -29.232   6.676  0.00  0.00    +0.015 C 
ATOM     15  C   LIG    1       26.461 -32.169   9.207  0.00  0.00    +0.018 C 
ATOM     16  C   LIG    1       25.854 -32.435   7.802  0.00  0.00    +0.010 C 
ATOM     17  C   LIG    1       24.591 -31.539   7.763  0.00  0.00    +0.029 C 
BRANCH  10  18
ATOM     18  C   LIG    1       25.608 -30.827  11.304  0.00  0.00    +0.213 C 
BRANCH  18  19
ATOM     19  S   LIG    1       25.279 -32.135  12.476  0.00  0.00    +0.081 S 
ATOM     20  O   LIG    1       25.810 -33.397  11.976  0.00  0.00    -0.147 OA
ATOM     21  O   LIG    1       23.972 -32.035  13.053  0.00  0.00    -0.147 OA
BRANCH  19  22
ATOM     22  O   LIG    1       26.320 -31.669  13.620  0.00  0.00    -0.254 OA
ATOM     23  H   LIG    1       25.859 -31.689  14.484  0.00  0.00    +0.244 HD
ENDBRANCH  19  22
ENDBRANCH  18  19
ENDBRANCH  10  18
ENDBRANCH   1  14
BRANCH   4  24
ATOM     24  C   LIG    1       25.929 -23.649   6.374  0.00  0.00    +0.015 C 
ATOM     25  C   LIG    1       24.987 -22.706   6.319  0.00  0.00    -0.000 C 
ATOM     26  C   LIG    1       23.478 -22.703   6.275  0.00  0.00    +0.029 C 
ATOM     27  C   LIG    1       23.212 -21.662   5.147  0.00  0.00    -0.014 C 
ATOM     28  C   LIG    1       24.028 -20.520   5.878  0.00  0.00    +0.061 C 
ATOM     29  C   LIG    1       23.344 -20.476   7.271  0.00  0.00    +0.018 C 
ATOM     30  C   LIG    1       23.766 -22.109   3.774  0.00  0.00    +0.012 C 
ATOM     31  C   LIG    1       21.702 -21.402   4.946  0.00  0.00    +0.012 C 
ATOM     32  C   LIG    1       22.982 -21.962   7.540  0.00  0.00    +0.010 C 
ATOM     33  C   LIG    1       25.328 -21.268   6.168  0.00  0.00    +0.168 C 
ATOM     34  O   LIG    1       26.429 -20.805   6.400  0.00  0.00    -0.292 OA
BRANCH  28  35
ATOM     35  C   LIG    1       24.190 -19.205   5.136  0.00  0.00    +0.213 C 
BRANCH  35  36
ATOM     36  S   LIG    1       25.129 -19.253   3.589  0.00  0.00    +0.081 S 
ATOM     37  O   LIG    1       25.703 -17.951   3.321  0.00  0.00    -0.147 OA
ATOM     38  O   LIG    1       24.347 -19.955   2.605  0.00  0.00    -0.147 OA
BRANCH  36  39
ATOM     39  O   LIG    1       26.343 -20.228   3.994  0.00  0.00    -0.254 OA
ATOM     40  H   LIG    1       26.883 -19.810   4.715  0.00  0.00    +0.244 HD
ENDBRANCH  36  39
ENDBRANCH  35  36
ENDBRANCH  28  35
ENDBRANCH   4  24
TORSDOF 8
ENDMDL
MODEL 5
REMARK VINA RESULT:      -6.0      2.579      3.131
REMARK  Name = *****
REMARK                            x       y       z     vdW  Elec       q    Type
REMARK                         _______ _______ _______ _____ _____    ______ ____
ROOT
ATOM      1  C   LIG    1       25.972 -28.033   7.605  0.00  0.00    -0.025 A 
ATOM      2  C   LIG    1       26.335 -26.732   7.966  0.00  0.00    +0.008 A 
ATOM      3  C   LIG    1       25.945 -25.646   7.180  0.00  0.00    +0.008 A 
ATOM      4  C   LIG    1       25.199 -25.855   6.018  0.00  0.00    -0.025 A 
ATOM      5  C   LIG    1       24.857 -27.152   5.634  0.00  0.00    +0.008 A 
ATOM      6  C   LIG    1       25.246 -28.239   6.424  0.00  0.00    +0.008 A 
ENDROOT
BRANCH   1  14
ATOM      7  C   LIG    1       25.426 -32.532   7.522  0.00  0.00    +0.012 C 
ATOM      8  C   LIG    1       25.211 -32.433   9.051  0.00  0.00    -0.014 C 
ATOM      9  C   LIG    1       25.508 -33.824   9.639  0.00  0.00    +0.012 C 
ATOM     10  C   LIG    1       23.882 -31.737   9.507  0.00  0.00    +0.061 C 
ATOM     11  C   LIG    1       24.147 -30.299   9.005  0.00  0.00    +0.168 C 
ATOM     12  O   LIG    1       23.309 -29.441   8.792  0.00  0.00    -0.292 OA
ATOM     13  C   LIG    1       25.639 -30.095   9.001  0.00  0.00    -0.000 C 
ATOM     14  C   LIG    1       26.412 -29.170   8.416  0.00  0.00    +0.015 C 
ATOM     15  C   LIG    1       24.064 -31.560  11.035  0.00  0.00    +0.018 C 
ATOM     16  C   LIG    1       25.590 -31.306  11.172  0.00  0.00    +0.010 C 
ATOM     17  C   LIG    1       26.110 -31.349   9.713  0.00  0.00    +0.029 C 
BRANCH  10  18
ATOM     18  C   LIG    1       22.532 -32.231   9.003  0.00  0.00    +0.213 C 
BRANCH  18  19
ATOM     19  S   LIG    1       21.243 -32.484  10.214  0.00  0.00    +0.081 S 
ATOM     20  O   LIG    1       20.139 -33.226   9.617  0.00  0.00    -0.147 OA
ATOM     21  O   LIG    1       21.028 -31.329  11.033  0.00  0.00    -0.147 OA
BRANCH  19  22
ATOM     22  O   LIG    1       22.019 -33.559  11.136  0.00  0.00    -0.254 OA
ATOM     23  H   LIG    1       21.993 -33.246  12.063  0.00  0.00    +0.244 HD
ENDBRANCH  19  22
ENDBRANCH  18  19
ENDBRANCH  10  18
ENDBRANCH   1  14
BRANCH   4  24
ATOM     24  C   LIG    1       24.793 -24.725   5.197  0.00  0.00    +0.015 C 
ATOM     25  C   LIG    1       24.894 -23.461   5.611  0.00  0.00    -0.000 C 
ATOM     26  C   LIG    1       25.338 -22.785   6.886  0.00  0.00    +0.029 C 
ATOM     27  C   LIG    1       24.205 -21.734   7.080  0.00  0.00    -0.014 C 
ATOM     28  C   LIG    1       24.440 -21.077   5.661  0.00  0.00    +0.061 C 
ATOM     29  C   LIG    1       25.952 -20.732   5.711  0.00  0.00    +0.018 C 
ATOM     30  C   LIG    1       22.817 -22.382   7.300  0.00  0.00    +0.012 C 
ATOM     31  C   LIG    1       24.463 -20.828   8.305  0.00  0.00    +0.012 C 
ATOM     32  C   LIG    1       26.560 -21.900   6.535  0.00  0.00    +0.010 C 
ATOM     33  C   LIG    1       24.411 -22.327   4.783  0.00  0.00    +0.168 C 
ATOM     34  O   LIG    1       24.198 -22.404   3.587  0.00  0.00    -0.292 OA
BRANCH  28  35
ATOM     35  C   LIG    1       23.483 -19.972   5.245  0.00  0.00    +0.213 C 
BRANCH  35  36
ATOM     36  S   LIG    1       23.997 -18.930   3.858  0.00  0.00    +0.081 S 
ATOM     37  O   LIG    1       25.442 -18.896   3.777  0.00  0.00    -0.147 OA
ATOM     38  O   LIG    1       23.209 -17.725   3.878  0.00  0.00    -0.147 OA
BRANCH  36  39
ATOM     39  O   LIG    1       23.477 -19.800   2.608  0.00  0.00    -0.254 OA
ATOM     40  H   LIG    1       23.651 -19.310   1.762  0.00  0.00    +0.244 HD
ENDBRANCH  36  39
ENDBRANCH  35  36
ENDBRANCH  28  35
ENDBRANCH   4  24
TORSDOF 8
ENDMDL
MODEL 6
REMARK VINA RESULT:      -5.8      2.683      9.844
REMARK  Name = *****
REMARK                            x       y       z     vdW  Elec       q    Type
REMARK                         _______ _______ _______ _____ _____    ______ ____
ROOT
ATOM      1  C   LIG    1       25.051 -25.861   5.504  0.00  0.00    -0.025 A 
ATOM      2  C   LIG    1       24.379 -27.048   5.197  0.00  0.00    +0.008 A 
ATOM      3  C   LIG    1       24.654 -28.220   5.906  0.00  0.00    +0.008 A 
ATOM      4  C   LIG    1       25.613 -28.214   6.922  0.00  0.00    -0.025 A 
ATOM      5  C   LIG    1       26.308 -27.040   7.217  0.00  0.00    +0.008 A 
ATOM      6  C   LIG    1       26.030 -25.868   6.506  0.00  0.00    +0.008 A 
ENDROOT
BRANCH   1  14
ATOM      7  C   LIG    1       26.531 -21.577   5.509  0.00  0.00    +0.012 C 
ATOM      8  C   LIG    1       25.049 -21.171   5.326  0.00  0.00    -0.014 C 
ATOM      9  C   LIG    1       25.041 -19.756   4.721  0.00  0.00    +0.012 C 
ATOM     10  C   LIG    1       24.118 -21.421   6.563  0.00  0.00    +0.061 C 
ATOM     11  C   LIG    1       24.149 -22.966   6.613  0.00  0.00    +0.168 C 
ATOM     12  O   LIG    1       23.880 -23.664   7.574  0.00  0.00    -0.292 OA
ATOM     13  C   LIG    1       24.395 -23.454   5.210  0.00  0.00    -0.000 C 
ATOM     14  C   LIG    1       24.782 -24.645   4.734  0.00  0.00    +0.015 C 
ATOM     15  C   LIG    1       22.693 -21.167   6.010  0.00  0.00    +0.018 C 
ATOM     16  C   LIG    1       22.800 -21.667   4.543  0.00  0.00    +0.010 C 
ATOM     17  C   LIG    1       24.263 -22.165   4.422  0.00  0.00    +0.029 C 
BRANCH  10  18
ATOM     18  C   LIG    1       24.466 -20.842   7.928  0.00  0.00    +0.213 C 
BRANCH  18  19
ATOM     19  S   LIG    1       26.166 -20.958   8.464  0.00  0.00    +0.081 S 
ATOM     20  O   LIG    1       26.980 -19.980   7.754  0.00  0.00    -0.147 OA
ATOM     21  O   LIG    1       26.591 -22.315   8.643  0.00  0.00    -0.147 OA
BRANCH  19  22
ATOM     22  O   LIG    1       25.970 -20.344   9.944  0.00  0.00    -0.254 OA
ATOM     23  H   LIG    1       25.010 -20.274  10.125  0.00  0.00    +0.244 HD
ENDBRANCH  19  22
ENDBRANCH  18  19
ENDBRANCH  10  18
ENDBRANCH   1  14
BRANCH   4  24
ATOM     24  C   LIG    1       25.901 -29.432   7.662  0.00  0.00    +0.015 C 
ATOM     25  C   LIG    1       25.250 -29.770   8.775  0.00  0.00    -0.000 C 
ATOM     26  C   LIG    1       24.172 -29.133   9.620  0.00  0.00    +0.029 C 
ATOM     27  C   LIG    1       24.745 -29.349  11.052  0.00  0.00    -0.014 C 
ATOM     28  C   LIG    1       24.851 -30.918  10.877  0.00  0.00    +0.061 C 
ATOM     29  C   LIG    1       23.403 -31.294  10.463  0.00  0.00    +0.018 C 
ATOM     30  C   LIG    1       26.083 -28.607  11.281  0.00  0.00    +0.012 C 
ATOM     31  C   LIG    1       23.774 -28.846  12.143  0.00  0.00    +0.012 C 
ATOM     32  C   LIG    1       22.950 -30.084   9.600  0.00  0.00    +0.010 C 
ATOM     33  C   LIG    1       25.606 -30.986   9.551  0.00  0.00    +0.168 C 
ATOM     34  O   LIG    1       26.258 -31.910   9.101  0.00  0.00    -0.292 OA
BRANCH  28  35
ATOM     35  C   LIG    1       25.477 -31.699  12.019  0.00  0.00    +0.213 C 
BRANCH  35  36
ATOM     36  S   LIG    1       24.375 -32.773  12.971  0.00  0.00    +0.081 S 
ATOM     37  O   LIG    1       23.835 -33.807  12.114  0.00  0.00    -0.147 OA
ATOM     38  O   LIG    1       23.526 -31.944  13.788  0.00  0.00    -0.147 OA
BRANCH  36  39
ATOM     39  O   LIG    1       25.419 -33.484  13.967  0.00  0.00    -0.254 OA
ATOM     40  H   LIG    1       25.257 -33.180  14.898  0.00  0.00    +0.244 HD
ENDBRANCH  36  39
ENDBRANCH  35  36
ENDBRANCH  28  35
ENDBRANCH   4  24
TORSDOF 8
ENDMDL
MODEL 7
REMARK VINA RESULT:      -5.7      2.743     10.007
REMARK  Name = *****
REMARK                            x       y       z     vdW  Elec       q    Type
REMARK                         _______ _______ _______ _____ _____    ______ ____
ROOT
ATOM      1  C   LIG    1       25.083 -25.442   5.597  0.00  0.00    -0.025 A 
ATOM      2  C   LIG    1       26.292 -25.462   6.299  0.00  0.00    +0.008 A 
ATOM      3  C   LIG    1       26.620 -26.548   7.114  0.00  0.00    +0.008 A 
ATOM      4  C   LIG    1       25.733 -27.620   7.241  0.00  0.00    -0.025 A 
ATOM      5  C   LIG    1       24.512 -27.596   6.566  0.00  0.00    +0.008 A 
ATOM      6  C   LIG    1       24.186 -26.508   5.750  0.00  0.00    +0.008 A 
ENDROOT
BRANCH   1  14
ATOM      7  C   LIG    1       26.498 -21.156   5.180  0.00  0.00    +0.012 C 
ATOM      8  C   LIG    1       25.001 -20.776   5.101  0.00  0.00    -0.014 C 
ATOM      9  C   LIG    1       24.920 -19.406   4.404  0.00  0.00    +0.012 C 
ATOM     10  C   LIG    1       24.186 -20.948   6.429  0.00  0.00    +0.061 C 
ATOM     11  C   LIG    1       24.242 -22.485   6.582  0.00  0.00    +0.168 C 
ATOM     12  O   LIG    1       24.068 -23.117   7.608  0.00  0.00    -0.292 OA
ATOM     13  C   LIG    1       24.371 -23.067   5.199  0.00  0.00    -0.000 C 
ATOM     14  C   LIG    1       24.731 -24.285   4.772  0.00  0.00    +0.015 C 
ATOM     15  C   LIG    1       22.714 -20.743   5.988  0.00  0.00    +0.018 C 
ATOM     16  C   LIG    1       22.700 -21.343   4.555  0.00  0.00    +0.010 C 
ATOM     17  C   LIG    1       24.153 -21.836   4.340  0.00  0.00    +0.029 C 
BRANCH  10  18
ATOM     18  C   LIG    1       24.643 -20.273   7.716  0.00  0.00    +0.213 C 
BRANCH  18  19
ATOM     19  S   LIG    1       26.240 -20.738   8.368  0.00  0.00    +0.081 S 
ATOM     20  O   LIG    1       27.288 -19.956   7.724  0.00  0.00    -0.147 OA
ATOM     21  O   LIG    1       26.359 -22.152   8.564  0.00  0.00    -0.147 OA
BRANCH  19  22
ATOM     22  O   LIG    1       26.074 -20.086   9.836  0.00  0.00    -0.254 OA
ATOM     23  H   LIG    1       25.370 -20.572  10.312  0.00  0.00    +0.244 HD
ENDBRANCH  19  22
ENDBRANCH  18  19
ENDBRANCH  10  18
ENDBRANCH   1  14
BRANCH   4  24
ATOM     24  C   LIG    1       26.071 -28.751   8.088  0.00  0.00    +0.015 C 
ATOM     25  C   LIG    1       25.782 -30.011   7.758  0.00  0.00    -0.000 C 
ATOM     26  C   LIG    1       25.070 -30.679   6.606  0.00  0.00    +0.029 C 
ATOM     27  C   LIG    1       24.165 -31.697   7.361  0.00  0.00    -0.014 C 
ATOM     28  C   LIG    1       25.387 -32.382   8.097  0.00  0.00    +0.061 C 
ATOM     29  C   LIG    1       26.307 -32.764   6.906  0.00  0.00    +0.018 C 
ATOM     30  C   LIG    1       23.127 -31.011   8.281  0.00  0.00    +0.012 C 
ATOM     31  C   LIG    1       23.365 -32.590   6.388  0.00  0.00    +0.012 C 
ATOM     32  C   LIG    1       26.096 -31.599   5.901  0.00  0.00    +0.010 C 
ATOM     33  C   LIG    1       26.078 -31.146   8.670  0.00  0.00    +0.168 C 
ATOM     34  O   LIG    1       26.862 -31.082   9.598  0.00  0.00    -0.292 OA
BRANCH  28  35
ATOM     35  C   LIG    1       25.063 -33.469   9.108  0.00  0.00    +0.213 C 
BRANCH  35  36
ATOM     36  S   LIG    1       24.710 -32.928  10.798  0.00  0.00    +0.081 S 
ATOM     37  O   LIG    1       24.276 -31.547  10.792  0.00  0.00    -0.147 OA
ATOM     38  O   LIG    1       25.773 -33.386  11.654  0.00  0.00    -0.147 OA
BRANCH  36  39
ATOM     39  O   LIG    1       23.420 -33.825  11.146  0.00  0.00    -0.254 OA
ATOM     40  H   LIG    1       22.911 -34.018  10.316  0.00  0.00    +0.244 HD
ENDBRANCH  36  39
ENDBRANCH  35  36
ENDBRANCH  28  35
ENDBRANCH   4  24
TORSDOF 8
ENDMDL
