MODEL 1
REMARK VINA RESULT:      -7.1      0.000      0.000
REMARK  Name = *****
REMARK                            x       y       z     vdW  Elec       q    Type
REMARK                         _______ _______ _______ _____ _____    ______ ____
ROOT
ATOM      1  C   LIG    1       23.870 -20.920   6.131  0.00  0.00    +0.162 A 
ATOM      2  C   LIG    1       25.218 -20.755   5.762  0.00  0.00    +0.162 A 
ATOM      3  C   LIG    1       25.520 -19.988   4.628  0.00  0.00    +0.049 A 
ATOM      4  C   LIG    1       24.521 -19.350   3.896  0.00  0.00    +0.004 A 
ATOM      5  C   LIG    1       23.190 -19.481   4.284  0.00  0.00    +0.004 A 
ATOM      6  C   LIG    1       22.874 -20.254   5.400  0.00  0.00    +0.049 A 
ENDROOT
BRANCH   1   7
ATOM      7  O   LIG    1       23.571 -21.712   7.205  0.00  0.00    -0.489 OA
BRANCH   7   9
ATOM      8  C   LIG    1       23.778 -24.024   6.668  0.00  0.00    +0.048 C 
ATOM      9  C   LIG    1       22.805 -22.883   6.899  0.00  0.00    +0.226 C 
ENDBRANCH   7   9
ENDBRANCH   1   7
BRANCH   2  10
ATOM     10  O   LIG    1       26.317 -21.333   6.343  0.00  0.00    -0.486 OA
BRANCH  10  11
ATOM     11  C   LIG    1       27.209 -20.481   7.079  0.00  0.00    +0.262 C 
BRANCH  11  12
ATOM     12  C   LIG    1       28.670 -20.828   6.699  0.00  0.00    +0.169 C 
ATOM     13  O   LIG    1       29.259 -19.862   5.796  0.00  0.00    -0.371 OA
ATOM     14  C   LIG    1       29.585 -18.629   6.449  0.00  0.00    +0.175 C 
ATOM     15  C   LIG    1       30.531 -18.856   7.635  0.00  0.00    +0.109 C 
ATOM     16  N   LIG    1       29.955 -19.790   8.618  0.00  0.00    -0.311 NA
ATOM     17  H   LIG    1       30.660 -19.993   9.328  0.00  0.00    +0.122 HD
ATOM     18  C   LIG    1       29.592 -21.039   7.925  0.00  0.00    +0.115 C 
ENDBRANCH  11  12
ENDBRANCH  10  11
ENDBRANCH   2  10
TORSDOF 5
ENDMDL
MODEL 2
REMARK VINA RESULT:      -7.0      1.814      3.326
REMARK  Name = *****
REMARK                            x       y       z     vdW  Elec       q    Type
REMARK                         _______ _______ _______ _____ _____    ______ ____
ROOT
ATOM      1  C   LIG    1       25.862 -20.439   5.920  0.00  0.00    +0.162 A 
ATOM      2  C   LIG    1       27.052 -20.416   6.670  0.00  0.00    +0.162 A 
ATOM      3  C   LIG    1       26.999 -20.735   8.034  0.00  0.00    +0.049 A 
ATOM      4  C   LIG    1       25.807 -21.120   8.643  0.00  0.00    +0.004 A 
ATOM      5  C   LIG    1       24.636 -21.182   7.892  0.00  0.00    +0.004 A 
ATOM      6  C   LIG    1       24.671 -20.852   6.538  0.00  0.00    +0.049 A 
ENDROOT
BRANCH   1   7
ATOM      7  O   LIG    1       25.905 -20.075   4.602  0.00  0.00    -0.489 OA
BRANCH   7   9
ATOM      8  C   LIG    1       24.015 -19.044   3.581  0.00  0.00    +0.048 C 
ATOM      9  C   LIG    1       24.715 -20.361   3.857  0.00  0.00    +0.226 C 
ENDBRANCH   7   9
ENDBRANCH   1   7
BRANCH   2  10
ATOM     10  O   LIG    1       28.298 -20.031   6.245  0.00  0.00    -0.486 OA
BRANCH  10  11
ATOM     11  C   LIG    1       29.418 -20.345   7.086  0.00  0.00    +0.262 C 
BRANCH  11  12
ATOM     12  C   LIG    1       30.467 -19.211   6.976  0.00  0.00    +0.169 C 
ATOM     13  O   LIG    1       30.000 -17.959   7.533  0.00  0.00    -0.371 OA
ATOM     14  C   LIG    1       29.975 -17.971   8.966  0.00  0.00    +0.175 C 
ATOM     15  C   LIG    1       31.354 -18.301   9.549  0.00  0.00    +0.109 C 
ATOM     16  N   LIG    1       31.855 -19.598   9.060  0.00  0.00    -0.311 NA
ATOM     17  H   LIG    1       32.814 -19.721   9.385  0.00  0.00    +0.122 HD
ATOM     18  C   LIG    1       31.842 -19.582   7.586  0.00  0.00    +0.115 C 
ENDBRANCH  11  12
ENDBRANCH  10  11
ENDBRANCH   2  10
TORSDOF 5
ENDMDL
MODEL 3
REMARK VINA RESULT:      -7.0      2.027      2.553
REMARK  Name = *****
REMARK                            x       y       z     vdW  Elec       q    Type
REMARK                         _______ _______ _______ _____ _____    ______ ____
ROOT
ATOM      1  C   LIG    1       25.324 -23.089   7.206  0.00  0.00    +0.162 A 
ATOM      2  C   LIG    1       25.933 -21.912   7.679  0.00  0.00    +0.162 A 
ATOM      3  C   LIG    1       25.193 -20.722   7.686  0.00  0.00    +0.049 A 
ATOM      4  C   LIG    1       23.860 -20.694   7.283  0.00  0.00    +0.004 A 
ATOM      5  C   LIG    1       23.244 -21.866   6.852  0.00  0.00    +0.004 A 
ATOM      6  C   LIG    1       23.974 -23.054   6.825  0.00  0.00    +0.049 A 
ENDROOT
BRANCH   1   7
ATOM      7  O   LIG    1       26.063 -24.239   7.149  0.00  0.00    -0.489 OA
BRANCH   7   9
ATOM      8  C   LIG    1       25.991 -26.557   6.602  0.00  0.00    +0.048 C 
ATOM      9  C   LIG    1       25.679 -25.154   6.116  0.00  0.00    +0.226 C 
ENDBRANCH   7   9
ENDBRANCH   1   7
BRANCH   2  10
ATOM     10  O   LIG    1       27.235 -21.751   8.079  0.00  0.00    -0.486 OA
BRANCH  10  11
ATOM     11  C   LIG    1       27.878 -20.504   7.774  0.00  0.00    +0.262 C 
BRANCH  11  12
ATOM     12  C   LIG    1       29.320 -20.784   7.281  0.00  0.00    +0.169 C 
ATOM     13  O   LIG    1       29.921 -19.642   6.627  0.00  0.00    -0.371 OA
ATOM     14  C   LIG    1       30.299 -18.615   7.553  0.00  0.00    +0.175 C 
ATOM     15  C   LIG    1       31.261 -19.151   8.621  0.00  0.00    +0.109 C 
ATOM     16  N   LIG    1       30.675 -20.283   9.361  0.00  0.00    -0.311 NA
ATOM     17  H   LIG    1       31.388 -20.672   9.979  0.00  0.00    +0.122 HD
ATOM     18  C   LIG    1       30.259 -21.313   8.392  0.00  0.00    +0.115 C 
ENDBRANCH  11  12
ENDBRANCH  10  11
ENDBRANCH   2  10
TORSDOF 5
ENDMDL
MODEL 4
REMARK VINA RESULT:      -7.0      2.424      6.036
REMARK  Name = *****
REMARK                            x       y       z     vdW  Elec       q    Type
REMARK                         _______ _______ _______ _____ _____    ______ ____
ROOT
ATOM      1  C   LIG    1       29.512 -19.443   7.865  0.00  0.00    +0.162 A 
ATOM      2  C   LIG    1       28.349 -20.155   7.515  0.00  0.00    +0.162 A 
ATOM      3  C   LIG    1       27.801 -19.971   6.238  0.00  0.00    +0.049 A 
ATOM      4  C   LIG    1       28.410 -19.142   5.300  0.00  0.00    +0.004 A 
ATOM      5  C   LIG    1       29.582 -18.468   5.631  0.00  0.00    +0.004 A 
ATOM      6  C   LIG    1       30.130 -18.629   6.903  0.00  0.00    +0.049 A 
ENDROOT
BRANCH   1   7
ATOM      7  O   LIG    1       30.016 -19.581   9.129  0.00  0.00    -0.489 OA
BRANCH   7   9
ATOM      8  C   LIG    1       30.295 -17.598  10.420  0.00  0.00    +0.048 C 
ATOM      9  C   LIG    1       30.983 -18.594   9.505  0.00  0.00    +0.226 C 
ENDBRANCH   7   9
ENDBRANCH   1   7
BRANCH   2  10
ATOM     10  O   LIG    1       27.605 -20.980   8.319  0.00  0.00    -0.486 OA
BRANCH  10  11
ATOM     11  C   LIG    1       26.236 -20.621   8.559  0.00  0.00    +0.262 C 
BRANCH  11  12
ATOM     12  C   LIG    1       25.354 -21.891   8.459  0.00  0.00    +0.169 C 
ATOM     13  O   LIG    1       23.978 -21.592   8.123  0.00  0.00    -0.371 OA
ATOM     14  C   LIG    1       23.817 -21.216   6.750  0.00  0.00    +0.175 C 
ATOM     15  C   LIG    1       24.345 -22.303   5.805  0.00  0.00    +0.109 C 
ATOM     16  N   LIG    1       25.763 -22.606   6.064  0.00  0.00    -0.311 NA
ATOM     17  H   LIG    1       26.036 -23.405   5.491  0.00  0.00    +0.122 HD
ATOM     18  C   LIG    1       25.917 -22.957   7.488  0.00  0.00    +0.115 C 
ENDBRANCH  11  12
ENDBRANCH  10  11
ENDBRANCH   2  10
TORSDOF 5
ENDMDL
MODEL 5
REMARK VINA RESULT:      -7.0      1.095      2.769
REMARK  Name = *****
REMARK                            x       y       z     vdW  Elec       q    Type
REMARK                         _______ _______ _______ _____ _____    ______ ____
ROOT
ATOM      1  C   LIG    1       23.823 -21.610   6.300  0.00  0.00    +0.162 A 
ATOM      2  C   LIG    1       25.206 -21.867   6.275  0.00  0.00    +0.162 A 
ATOM      3  C   LIG    1       25.659 -23.167   6.538  0.00  0.00    +0.049 A 
ATOM      4  C   LIG    1       24.768 -24.212   6.772  0.00  0.00    +0.004 A 
ATOM      5  C   LIG    1       23.398 -23.967   6.758  0.00  0.00    +0.004 A 
ATOM      6  C   LIG    1       22.934 -22.675   6.514  0.00  0.00    +0.049 A 
ENDROOT
BRANCH   1   7
ATOM      7  O   LIG    1       23.384 -20.331   6.097  0.00  0.00    -0.489 OA
BRANCH   7   9
ATOM      8  C   LIG    1       22.349 -18.700   4.702  0.00  0.00    +0.048 C 
ATOM      9  C   LIG    1       22.438 -20.178   5.033  0.00  0.00    +0.226 C 
ENDBRANCH   7   9
ENDBRANCH   1   7
BRANCH   2  10
ATOM     10  O   LIG    1       26.218 -20.959   6.096  0.00  0.00    -0.486 OA
BRANCH  10  11
ATOM     11  C   LIG    1       27.077 -20.688   7.215  0.00  0.00    +0.262 C 
BRANCH  11  12
ATOM     12  C   LIG    1       28.539 -21.019   6.823  0.00  0.00    +0.169 C 
ATOM     13  O   LIG    1       29.037 -20.178   5.756  0.00  0.00    -0.371 OA
ATOM     14  C   LIG    1       29.321 -18.844   6.196  0.00  0.00    +0.175 C 
ATOM     15  C   LIG    1       30.325 -18.837   7.356  0.00  0.00    +0.109 C 
ATOM     16  N   LIG    1       29.840 -19.633   8.497  0.00  0.00    -0.311 NA
ATOM     17  H   LIG    1       30.583 -19.689   9.194  0.00  0.00    +0.122 HD
ATOM     18  C   LIG    1       29.519 -20.991   8.021  0.00  0.00    +0.115 C 
ENDBRANCH  11  12
ENDBRANCH  10  11
ENDBRANCH   2  10
TORSDOF 5
ENDMDL
MODEL 6
REMARK VINA RESULT:      -7.0      1.792      3.663
REMARK  Name = *****
REMARK                            x       y       z     vdW  Elec       q    Type
REMARK                         _______ _______ _______ _____ _____    ______ ____
ROOT
ATOM      1  C   LIG    1       24.308 -23.309   6.654  0.00  0.00    +0.162 A 
ATOM      2  C   LIG    1       25.692 -23.563   6.661  0.00  0.00    +0.162 A 
ATOM      3  C   LIG    1       26.139 -24.888   6.562  0.00  0.00    +0.049 A 
ATOM      4  C   LIG    1       25.245 -25.945   6.407  0.00  0.00    +0.004 A 
ATOM      5  C   LIG    1       23.877 -25.691   6.359  0.00  0.00    +0.004 A 
ATOM      6  C   LIG    1       23.418 -24.380   6.473  0.00  0.00    +0.049 A 
ENDROOT
BRANCH   1   7
ATOM      7  O   LIG    1       23.871 -22.022   6.805  0.00  0.00    -0.489 OA
BRANCH   7   9
ATOM      8  C   LIG    1       22.893 -20.082   5.827  0.00  0.00    +0.048 C 
ATOM      9  C   LIG    1       22.893 -21.600   5.847  0.00  0.00    +0.226 C 
ENDBRANCH   7   9
ENDBRANCH   1   7
BRANCH   2  10
ATOM     10  O   LIG    1       26.704 -22.654   6.839  0.00  0.00    -0.486 OA
BRANCH  10  11
ATOM     11  C   LIG    1       26.777 -21.974   8.101  0.00  0.00    +0.262 C 
BRANCH  11  12
ATOM     12  C   LIG    1       26.878 -20.449   7.850  0.00  0.00    +0.169 C 
ATOM     13  O   LIG    1       28.072 -19.864   8.421  0.00  0.00    -0.371 OA
ATOM     14  C   LIG    1       29.253 -20.195   7.681  0.00  0.00    +0.175 C 
ATOM     15  C   LIG    1       29.133 -19.767   6.213  0.00  0.00    +0.109 C 
ATOM     16  N   LIG    1       27.963 -20.381   5.562  0.00  0.00    -0.311 NA
ATOM     17  H   LIG    1       27.863 -19.984   4.627  0.00  0.00    +0.122 HD
ATOM     18  C   LIG    1       26.761 -20.062   6.355  0.00  0.00    +0.115 C 
ENDBRANCH  11  12
ENDBRANCH  10  11
ENDBRANCH   2  10
TORSDOF 5
ENDMDL
MODEL 7
REMARK VINA RESULT:      -6.8      2.538      5.587
REMARK  Name = *****
REMARK                            x       y       z     vdW  Elec       q    Type
REMARK                         _______ _______ _______ _____ _____    ______ ____
ROOT
ATOM      1  C   LIG    1       25.395 -23.044   7.345  0.00  0.00    +0.162 A 
ATOM      2  C   LIG    1       23.993 -22.965   7.262  0.00  0.00    +0.162 A 
ATOM      3  C   LIG    1       23.285 -24.042   6.711  0.00  0.00    +0.049 A 
ATOM      4  C   LIG    1       23.936 -25.200   6.294  0.00  0.00    +0.004 A 
ATOM      5  C   LIG    1       25.320 -25.296   6.412  0.00  0.00    +0.004 A 
ATOM      6  C   LIG    1       26.038 -24.226   6.943  0.00  0.00    +0.049 A 
ENDROOT
BRANCH   1   7
ATOM      7  O   LIG    1       26.091 -21.972   7.832  0.00  0.00    -0.489 OA
BRANCH   7   9
ATOM      8  C   LIG    1       27.383 -20.391   6.605  0.00  0.00    +0.048 C 
ATOM      9  C   LIG    1       27.380 -21.768   7.242  0.00  0.00    +0.226 C 
ENDBRANCH   7   9
ENDBRANCH   1   7
BRANCH   2  10
ATOM     10  O   LIG    1       23.199 -21.896   7.591  0.00  0.00    -0.486 OA
BRANCH  10  11
ATOM     11  C   LIG    1       23.347 -20.692   6.823  0.00  0.00    +0.262 C 
BRANCH  11  12
ATOM     12  C   LIG    1       22.977 -20.985   5.347  0.00  0.00    +0.169 C 
ATOM     13  O   LIG    1       21.967 -20.085   4.833  0.00  0.00    -0.371 OA
ATOM     14  C   LIG    1       22.481 -18.772   4.578  0.00  0.00    +0.175 C 
ATOM     15  C   LIG    1       23.666 -18.812   3.605  0.00  0.00    +0.109 C 
ATOM     16  N   LIG    1       24.752 -19.671   4.108  0.00  0.00    -0.311 NA
ATOM     17  H   LIG    1       25.465 -19.753   3.382  0.00  0.00    +0.122 HD
ATOM     18  C   LIG    1       24.201 -21.007   4.398  0.00  0.00    +0.115 C 
ENDBRANCH  11  12
ENDBRANCH  10  11
ENDBRANCH   2  10
TORSDOF 5
ENDMDL
MODEL 8
REMARK VINA RESULT:      -6.7      1.547      3.084
REMARK  Name = *****
REMARK                            x       y       z     vdW  Elec       q    Type
REMARK                         _______ _______ _______ _____ _____    ______ ____
ROOT
ATOM      1  C   LIG    1       24.488 -21.216   5.990  0.00  0.00    +0.162 A 
ATOM      2  C   LIG    1       25.855 -21.313   6.308  0.00  0.00    +0.162 A 
ATOM      3  C   LIG    1       26.317 -22.459   6.969  0.00  0.00    +0.049 A 
ATOM      4  C   LIG    1       25.463 -23.517   7.270  0.00  0.00    +0.004 A 
ATOM      5  C   LIG    1       24.118 -23.440   6.921  0.00  0.00    +0.004 A 
ATOM      6  C   LIG    1       23.641 -22.298   6.277  0.00  0.00    +0.049 A 
ENDROOT
BRANCH   1   7
ATOM      7  O   LIG    1       24.027 -20.075   5.393  0.00  0.00    -0.489 OA
BRANCH   7   9
ATOM      8  C   LIG    1       22.281 -18.717   4.508  0.00  0.00    +0.048 C 
ATOM      9  C   LIG    1       22.603 -19.999   5.253  0.00  0.00    +0.226 C 
ENDBRANCH   7   9
ENDBRANCH   1   7
BRANCH   2  10
ATOM     10  O   LIG    1       26.823 -20.361   6.117  0.00  0.00    -0.486 OA
BRANCH  10  11
ATOM     11  C   LIG    1       28.164 -20.681   6.521  0.00  0.00    +0.262 C 
BRANCH  11  12
ATOM     12  C   LIG    1       28.688 -19.568   7.463  0.00  0.00    +0.169 C 
ATOM     13  O   LIG    1       29.349 -20.095   8.638  0.00  0.00    -0.371 OA
ATOM     14  C   LIG    1       30.644 -20.635   8.344  0.00  0.00    +0.175 C 
ATOM     15  C   LIG    1       31.549 -19.590   7.679  0.00  0.00    +0.109 C 
ATOM     16  N   LIG    1       30.949 -19.061   6.442  0.00  0.00    -0.311 NA
ATOM     17  H   LIG    1       31.532 -18.297   6.097  0.00  0.00    +0.122 HD
ATOM     18  C   LIG    1       29.605 -18.542   6.754  0.00  0.00    +0.115 C 
ENDBRANCH  11  12
ENDBRANCH  10  11
ENDBRANCH   2  10
TORSDOF 5
ENDMDL
MODEL 9
REMARK VINA RESULT:      -6.7      2.258      5.779
REMARK  Name = *****
REMARK                            x       y       z     vdW  Elec       q    Type
REMARK                         _______ _______ _______ _____ _____    ______ ____
ROOT
ATOM      1  C   LIG    1       29.179 -20.346   7.447  0.00  0.00    +0.162 A 
ATOM      2  C   LIG    1       27.966 -20.720   6.840  0.00  0.00    +0.162 A 
ATOM      3  C   LIG    1       27.496 -19.976   5.749  0.00  0.00    +0.049 A 
ATOM      4  C   LIG    1       28.227 -18.912   5.228  0.00  0.00    +0.004 A 
ATOM      5  C   LIG    1       29.447 -18.565   5.802  0.00  0.00    +0.004 A 
ATOM      6  C   LIG    1       29.919 -19.287   6.898  0.00  0.00    +0.049 A 
ENDROOT
BRANCH   1   7
ATOM      7  O   LIG    1       29.611 -21.038   8.544  0.00  0.00    -0.489 OA
BRANCH   7   9
ATOM      8  C   LIG    1       31.506 -22.311   9.225  0.00  0.00    +0.048 C 
ATOM      9  C   LIG    1       31.015 -20.937   8.809  0.00  0.00    +0.226 C 
ENDBRANCH   7   9
ENDBRANCH   1   7
BRANCH   2  10
ATOM     10  O   LIG    1       27.106 -21.711   7.240  0.00  0.00    -0.486 OA
BRANCH  10  11
ATOM     11  C   LIG    1       26.045 -21.352   8.138  0.00  0.00    +0.262 C 
BRANCH  11  12
ATOM     12  C   LIG    1       24.781 -22.176   7.783  0.00  0.00    +0.169 C 
ATOM     13  O   LIG    1       23.593 -21.358   7.667  0.00  0.00    -0.371 OA
ATOM     14  C   LIG    1       23.579 -20.578   6.465  0.00  0.00    +0.175 C 
ATOM     15  C   LIG    1       23.707 -21.465   5.220  0.00  0.00    +0.109 C 
ATOM     16  N   LIG    1       24.934 -22.280   5.257  0.00  0.00    -0.311 NA
ATOM     17  H   LIG    1       24.919 -22.928   4.469  0.00  0.00    +0.122 HD
ATOM     18  C   LIG    1       24.951 -23.048   6.515  0.00  0.00    +0.115 C 
ENDBRANCH  11  12
ENDBRANCH  10  11
ENDBRANCH   2  10
TORSDOF 5
ENDMDL
