MODEL 1
REMARK VINA RESULT:     -10.1      0.000      0.000
REMARK  Name = *****
REMARK                            x       y       z     vdW  Elec       q    Type
REMARK                         _______ _______ _______ _____ _____    ______ ____
ROOT
ATOM      1  N   LIG    1       27.366 -20.340   7.592  0.00  0.00    -0.311 NA
ATOM      2  H   LIG    1       26.398 -20.021   7.453  0.00  0.00    +0.122 HD
ENDROOT
BRANCH   1   3
ATOM      3  C   LIG    1       28.116 -19.988   6.376  0.00  0.00    +0.115 C 
BRANCH   3   4
ATOM      4  C   LIG    1       29.263 -18.992   6.669  0.00  0.00    +0.169 C 
BRANCH   4   5
ATOM      5  C   LIG    1       30.036 -19.368   7.962  0.00  0.00    +0.203 C 
ATOM      6  O   LIG    1       29.559 -18.527   9.037  0.00  0.00    -0.486 OA
ATOM      7  C   LIG    1       30.466 -17.792   9.746  0.00  0.00    +0.124 A 
ATOM      8  C   LIG    1       31.756 -17.513   9.290  0.00  0.00    -0.003 A 
ATOM      9  C   LIG    1       32.615 -16.735  10.080  0.00  0.00    +0.045 A 
ATOM     10  C   LIG    1       32.187 -16.281  11.321  0.00  0.00    +0.124 A 
ATOM     11  C   LIG    1       30.909 -16.565  11.785  0.00  0.00    +0.042 A 
ATOM     12  F   LIG    1       33.025 -15.570  12.088  0.00  0.00    -0.205 F 
ATOM     13  C   LIG    1       32.206 -18.060   7.975  0.00  0.00    +0.042 C 
ATOM     14  C   LIG    1       30.040 -17.310  10.986  0.00  0.00    +0.049 A 
ATOM     15  C   LIG    1       31.565 -19.425   7.817  0.00  0.00    +0.052 C 
ENDBRANCH   4   5
BRANCH   4  16
ATOM     16  O   LIG    1       30.153 -18.932   5.546  0.00  0.00    -0.387 OA
ATOM     17  H   LIG    1       30.865 -18.317   5.811  0.00  0.00    +0.210 HD
ENDBRANCH   4  16
ENDBRANCH   3   4
ENDBRANCH   1   3
BRANCH   1  18
ATOM     18  C   LIG    1       27.362 -21.796   7.813  0.00  0.00    +0.115 C 
BRANCH  18  19
ATOM     19  C   LIG    1       25.945 -22.372   8.063  0.00  0.00    +0.169 C 
BRANCH  19  20
ATOM     20  C   LIG    1       25.276 -22.905   6.769  0.00  0.00    +0.203 C 
ATOM     21  O   LIG    1       25.550 -22.060   5.639  0.00  0.00    -0.486 OA
ATOM     22  C   LIG    1       24.622 -21.116   5.301  0.00  0.00    +0.124 A 
ATOM     23  C   LIG    1       23.337 -21.058   5.837  0.00  0.00    -0.003 A 
ATOM     24  C   LIG    1       22.456 -20.059   5.389  0.00  0.00    +0.045 A 
ATOM     25  C   LIG    1       22.872 -19.158   4.415  0.00  0.00    +0.124 A 
ATOM     26  C   LIG    1       24.151 -19.210   3.885  0.00  0.00    +0.042 A 
ATOM     27  F   LIG    1       22.016 -18.219   3.978  0.00  0.00    -0.205 F 
ATOM     28  C   LIG    1       22.900 -22.021   6.900  0.00  0.00    +0.042 C 
ATOM     29  C   LIG    1       25.034 -20.195   4.333  0.00  0.00    +0.049 A 
ATOM     30  C   LIG    1       23.792 -23.251   6.904  0.00  0.00    +0.052 C 
ENDBRANCH  19  20
BRANCH  19  31
ATOM     31  O   LIG    1       25.140 -21.385   8.712  0.00  0.00    -0.387 OA
ATOM     32  H   LIG    1       24.428 -21.176   8.074  0.00  0.00    +0.210 HD
ENDBRANCH  19  31
ENDBRANCH  18  19
ENDBRANCH   1  18
TORSDOF 8
ENDMDL
MODEL 2
REMARK VINA RESULT:      -9.7      1.318      8.609
REMARK  Name = *****
REMARK                            x       y       z     vdW  Elec       q    Type
REMARK                         _______ _______ _______ _____ _____    ______ ____
ROOT
ATOM      1  N   LIG    1       26.531 -21.450   7.586  0.00  0.00    -0.311 NA
ATOM      2  H   LIG    1       27.080 -21.484   8.455  0.00  0.00    +0.122 HD
ENDROOT
BRANCH   1   3
ATOM      3  C   LIG    1       26.737 -22.731   6.893  0.00  0.00    +0.115 C 
BRANCH   3   4
ATOM      4  C   LIG    1       25.556 -23.706   7.114  0.00  0.00    +0.169 C 
BRANCH   4   5
ATOM      5  C   LIG    1       24.377 -23.412   6.147  0.00  0.00    +0.203 C 
ATOM      6  O   LIG    1       24.832 -22.468   5.150  0.00  0.00    -0.486 OA
ATOM      7  C   LIG    1       24.127 -21.312   4.973  0.00  0.00    +0.124 A 
ATOM      8  C   LIG    1       23.224 -20.809   5.913  0.00  0.00    -0.003 A 
ATOM      9  C   LIG    1       22.556 -19.603   5.653  0.00  0.00    +0.045 A 
ATOM     10  C   LIG    1       22.772 -18.943   4.450  0.00  0.00    +0.124 A 
ATOM     11  C   LIG    1       23.660 -19.444   3.506  0.00  0.00    +0.042 A 
ATOM     12  F   LIG    1       22.103 -17.811   4.191  0.00  0.00    -0.205 F 
ATOM     13  C   LIG    1       22.974 -21.570   7.173  0.00  0.00    +0.042 C 
ATOM     14  C   LIG    1       24.352 -20.625   3.778  0.00  0.00    +0.049 A 
ATOM     15  C   LIG    1       23.049 -23.044   6.826  0.00  0.00    +0.052 C 
ENDBRANCH   4   5
BRANCH   4  16
ATOM     16  O   LIG    1       26.009 -25.059   6.965  0.00  0.00    -0.387 OA
ATOM     17  H   LIG    1       26.747 -25.018   6.325  0.00  0.00    +0.210 HD
ENDBRANCH   4  16
ENDBRANCH   3   4
ENDBRANCH   1   3
BRANCH   1  18
ATOM     18  C   LIG    1       27.002 -20.319   6.767  0.00  0.00    +0.115 C 
BRANCH  18  19
ATOM     19  C   LIG    1       28.548 -20.202   6.720  0.00  0.00    +0.169 C 
BRANCH  19  20
ATOM     20  C   LIG    1       29.212 -20.468   8.096  0.00  0.00    +0.203 C 
ATOM     21  O   LIG    1       29.067 -19.347   8.984  0.00  0.00    -0.486 OA
ATOM     22  C   LIG    1       30.096 -18.452   9.064  0.00  0.00    +0.124 A 
ATOM     23  C   LIG    1       31.359 -18.662   8.512  0.00  0.00    -0.003 A 
ATOM     24  C   LIG    1       32.350 -17.682   8.685  0.00  0.00    +0.045 A 
ATOM     25  C   LIG    1       32.064 -16.530   9.410  0.00  0.00    +0.124 A 
ATOM     26  C   LIG    1       30.808 -16.316   9.955  0.00  0.00    +0.042 A 
ATOM     27  F   LIG    1       33.025 -15.608   9.587  0.00  0.00    -0.205 F 
ATOM     28  C   LIG    1       31.656 -19.897   7.717  0.00  0.00    +0.042 C 
ATOM     29  C   LIG    1       29.815 -17.282   9.778  0.00  0.00    +0.049 A 
ATOM     30  C   LIG    1       30.648 -20.990   8.031  0.00  0.00    +0.052 C 
ENDBRANCH  19  20
BRANCH  19  31
ATOM     31  O   LIG    1       28.911 -18.926   6.190  0.00  0.00    -0.387 OA
ATOM     32  H   LIG    1       28.926 -19.047   5.219  0.00  0.00    +0.210 HD
ENDBRANCH  19  31
ENDBRANCH  18  19
ENDBRANCH   1  18
TORSDOF 8
ENDMDL
MODEL 3
REMARK VINA RESULT:      -9.5      2.302      3.430
REMARK  Name = *****
REMARK                            x       y       z     vdW  Elec       q    Type
REMARK                         _______ _______ _______ _____ _____    ______ ____
ROOT
ATOM      1  N   LIG    1       27.851 -20.382   5.348  0.00  0.00    -0.311 NA
ATOM      2  H   LIG    1       27.514 -21.248   5.789  0.00  0.00    +0.122 HD
ENDROOT
BRANCH   1   3
ATOM      3  C   LIG    1       28.766 -19.738   6.303  0.00  0.00    +0.115 C 
BRANCH   3   4
ATOM      4  C   LIG    1       28.774 -20.456   7.673  0.00  0.00    +0.169 C 
BRANCH   4   5
ATOM      5  C   LIG    1       30.143 -20.312   8.392  0.00  0.00    +0.203 C 
ATOM      6  O   LIG    1       29.944 -19.536   9.596  0.00  0.00    -0.486 OA
ATOM      7  C   LIG    1       30.704 -18.419   9.789  0.00  0.00    +0.124 A 
ATOM      8  C   LIG    1       31.397 -17.771   8.763  0.00  0.00    -0.003 A 
ATOM      9  C   LIG    1       32.140 -16.618   9.052  0.00  0.00    +0.045 A 
ATOM     10  C   LIG    1       32.211 -16.153  10.359  0.00  0.00    +0.124 A 
ATOM     11  C   LIG    1       31.534 -16.800  11.386  0.00  0.00    +0.042 A 
ATOM     12  F   LIG    1       32.953 -15.073  10.636  0.00  0.00    -0.205 F 
ATOM     13  C   LIG    1       31.345 -18.325   7.377  0.00  0.00    +0.042 C 
ATOM     14  C   LIG    1       30.764 -17.928  11.096  0.00  0.00    +0.049 A 
ATOM     15  C   LIG    1       31.302 -19.836   7.502  0.00  0.00    +0.052 C 
ENDBRANCH   4   5
BRANCH   4  16
ATOM     16  O   LIG    1       27.714 -19.947   8.494  0.00  0.00    -0.387 OA
ATOM     17  H   LIG    1       27.795 -20.420   9.346  0.00  0.00    +0.210 HD
ENDBRANCH   4  16
ENDBRANCH   3   4
ENDBRANCH   1   3
BRANCH   1  18
ATOM     18  C   LIG    1       26.696 -19.516   5.052  0.00  0.00    +0.115 C 
BRANCH  18  19
ATOM     19  C   LIG    1       25.333 -20.231   5.242  0.00  0.00    +0.169 C 
BRANCH  19  20
ATOM     20  C   LIG    1       25.150 -20.804   6.672  0.00  0.00    +0.203 C 
ATOM     21  O   LIG    1       25.947 -21.982   6.881  0.00  0.00    -0.486 OA
ATOM     22  C   LIG    1       25.355 -23.200   6.705  0.00  0.00    +0.124 A 
ATOM     23  C   LIG    1       23.982 -23.385   6.550  0.00  0.00    -0.003 A 
ATOM     24  C   LIG    1       23.483 -24.691   6.408  0.00  0.00    +0.045 A 
ATOM     25  C   LIG    1       24.357 -25.772   6.438  0.00  0.00    +0.124 A 
ATOM     26  C   LIG    1       25.722 -25.590   6.585  0.00  0.00    +0.042 A 
ATOM     27  F   LIG    1       23.866 -27.017   6.321  0.00  0.00    -0.205 F 
ATOM     28  C   LIG    1       23.047 -22.215   6.502  0.00  0.00    +0.042 C 
ATOM     29  C   LIG    1       26.226 -24.294   6.717  0.00  0.00    +0.049 A 
ATOM     30  C   LIG    1       23.697 -20.986   7.115  0.00  0.00    +0.052 C 
ENDBRANCH  19  20
BRANCH  19  31
ATOM     31  O   LIG    1       25.181 -21.239   4.241  0.00  0.00    -0.387 OA
ATOM     32  H   LIG    1       24.230 -21.228   4.010  0.00  0.00    +0.210 HD
ENDBRANCH  19  31
ENDBRANCH  18  19
ENDBRANCH   1  18
TORSDOF 8
ENDMDL
MODEL 4
REMARK VINA RESULT:      -9.3      2.522      9.169
REMARK  Name = *****
REMARK                            x       y       z     vdW  Elec       q    Type
REMARK                         _______ _______ _______ _____ _____    ______ ____
ROOT
ATOM      1  N   LIG    1       28.289 -21.219   8.297  0.00  0.00    -0.311 NA
ATOM      2  H   LIG    1       28.071 -22.114   8.757  0.00  0.00    +0.122 HD
ENDROOT
BRANCH   1   3
ATOM      3  C   LIG    1       27.219 -20.960   7.323  0.00  0.00    +0.115 C 
BRANCH   3   4
ATOM      4  C   LIG    1       25.859 -20.694   8.012  0.00  0.00    +0.169 C 
BRANCH   4   5
ATOM      5  C   LIG    1       24.895 -21.903   7.872  0.00  0.00    +0.203 C 
ATOM      6  O   LIG    1       25.677 -23.118   7.943  0.00  0.00    -0.486 OA
ATOM      7  C   LIG    1       25.571 -24.026   6.929  0.00  0.00    +0.124 A 
ATOM      8  C   LIG    1       25.051 -23.717   5.669  0.00  0.00    -0.003 A 
ATOM      9  C   LIG    1       24.997 -24.710   4.681  0.00  0.00    +0.045 A 
ATOM     10  C   LIG    1       25.425 -25.998   4.976  0.00  0.00    +0.124 A 
ATOM     11  C   LIG    1       25.932 -26.315   6.231  0.00  0.00    +0.042 A 
ATOM     12  F   LIG    1       25.336 -26.953   4.040  0.00  0.00    -0.205 F 
ATOM     13  C   LIG    1       24.550 -22.336   5.399  0.00  0.00    +0.042 C 
ATOM     14  C   LIG    1       26.020 -25.319   7.205  0.00  0.00    +0.049 A 
ATOM     15  C   LIG    1       23.922 -21.830   6.684  0.00  0.00    +0.052 C 
ENDBRANCH   4   5
BRANCH   4  16
ATOM     16  O   LIG    1       26.070 -20.371   9.393  0.00  0.00    -0.387 OA
ATOM     17  H   LIG    1       26.621 -19.563   9.391  0.00  0.00    +0.210 HD
ENDBRANCH   4  16
ENDBRANCH   3   4
ENDBRANCH   1   3
BRANCH   1  18
ATOM     18  C   LIG    1       29.599 -21.331   7.632  0.00  0.00    +0.115 C 
BRANCH  18  19
ATOM     19  C   LIG    1       30.752 -20.682   8.441  0.00  0.00    +0.169 C 
BRANCH  19  20
ATOM     20  C   LIG    1       31.084 -19.244   7.963  0.00  0.00    +0.203 C 
ATOM     21  O   LIG    1       32.185 -18.678   8.693  0.00  0.00    -0.486 OA
ATOM     22  C   LIG    1       31.903 -17.873   9.760  0.00  0.00    +0.124 A 
ATOM     23  C   LIG    1       30.631 -17.386  10.056  0.00  0.00    -0.003 A 
ATOM     24  C   LIG    1       30.467 -16.537  11.164  0.00  0.00    +0.045 A 
ATOM     25  C   LIG    1       31.570 -16.186  11.934  0.00  0.00    +0.124 A 
ATOM     26  C   LIG    1       32.834 -16.673  11.646  0.00  0.00    +0.042 A 
ATOM     27  F   LIG    1       31.405 -15.357  12.979  0.00  0.00    -0.205 F 
ATOM     28  C   LIG    1       29.443 -17.782   9.232  0.00  0.00    +0.042 C 
ATOM     29  C   LIG    1       33.002 -17.525  10.552  0.00  0.00    +0.049 A 
ATOM     30  C   LIG    1       29.885 -18.299   7.873  0.00  0.00    +0.052 C 
ENDBRANCH  19  20
BRANCH  19  31
ATOM     31  O   LIG    1       31.898 -21.534   8.402  0.00  0.00    -0.387 OA
ATOM     32  H   LIG    1       32.392 -21.263   7.602  0.00  0.00    +0.210 HD
ENDBRANCH  19  31
ENDBRANCH  18  19
ENDBRANCH   1  18
TORSDOF 8
ENDMDL
MODEL 5
REMARK VINA RESULT:      -9.2      6.454      9.824
REMARK  Name = *****
REMARK                            x       y       z     vdW  Elec       q    Type
REMARK                         _______ _______ _______ _____ _____    ______ ____
ROOT
ATOM      1  N   LIG    1       25.031 -26.764   5.832  0.00  0.00    -0.311 NA
ATOM      2  H   LIG    1       25.410 -26.456   4.925  0.00  0.00    +0.122 HD
ENDROOT
BRANCH   1   3
ATOM      3  C   LIG    1       25.694 -25.963   6.872  0.00  0.00    +0.115 C 
BRANCH   3   4
ATOM      4  C   LIG    1       25.759 -24.463   6.496  0.00  0.00    +0.169 C 
BRANCH   4   5
ATOM      5  C   LIG    1       24.478 -24.000   5.751  0.00  0.00    +0.203 C 
ATOM      6  O   LIG    1       24.841 -22.930   4.847  0.00  0.00    -0.486 OA
ATOM      7  C   LIG    1       24.172 -21.743   4.935  0.00  0.00    +0.124 A 
ATOM      8  C   LIG    1       23.424 -21.361   6.051  0.00  0.00    -0.003 A 
ATOM      9  C   LIG    1       22.783 -20.114   6.060  0.00  0.00    +0.045 A 
ATOM     10  C   LIG    1       22.869 -19.288   4.946  0.00  0.00    +0.124 A 
ATOM     11  C   LIG    1       23.602 -19.667   3.828  0.00  0.00    +0.042 A 
ATOM     12  F   LIG    1       22.224 -18.113   4.945  0.00  0.00    -0.205 F 
ATOM     13  C   LIG    1       23.307 -22.293   7.212  0.00  0.00    +0.042 C 
ATOM     14  C   LIG    1       24.269 -20.893   3.831  0.00  0.00    +0.049 A 
ATOM     15  C   LIG    1       23.269 -23.702   6.651  0.00  0.00    +0.052 C 
ENDBRANCH   4   5
BRANCH   4  16
ATOM     16  O   LIG    1       25.973 -23.675   7.675  0.00  0.00    -0.387 OA
ATOM     17  H   LIG    1       25.450 -22.861   7.542  0.00  0.00    +0.210 HD
ENDBRANCH   4  16
ENDBRANCH   3   4
ENDBRANCH   1   3
BRANCH   1  18
ATOM     18  C   LIG    1       25.314 -28.200   6.004  0.00  0.00    +0.115 C 
BRANCH  18  19
ATOM     19  C   LIG    1       24.077 -29.013   6.467  0.00  0.00    +0.169 C 
BRANCH  19  20
ATOM     20  C   LIG    1       24.462 -30.298   7.247  0.00  0.00    +0.203 C 
ATOM     21  O   LIG    1       23.429 -30.696   8.163  0.00  0.00    -0.486 OA
ATOM     22  C   LIG    1       23.539 -30.304   9.467  0.00  0.00    +0.124 A 
ATOM     23  C   LIG    1       24.686 -29.732  10.016  0.00  0.00    -0.003 A 
ATOM     24  C   LIG    1       24.694 -29.397  11.381  0.00  0.00    +0.045 A 
ATOM     25  C   LIG    1       23.571 -29.651  12.161  0.00  0.00    +0.124 A 
ATOM     26  C   LIG    1       22.429 -30.213  11.617  0.00  0.00    +0.042 A 
ATOM     27  F   LIG    1       23.597 -29.345  13.469  0.00  0.00    -0.205 F 
ATOM     28  C   LIG    1       25.887 -29.445   9.166  0.00  0.00    +0.042 C 
ATOM     29  C   LIG    1       22.411 -30.539  10.259  0.00  0.00    +0.049 A 
ATOM     30  C   LIG    1       25.849 -30.272   7.892  0.00  0.00    +0.052 C 
ENDBRANCH  19  20
BRANCH  19  31
ATOM     31  O   LIG    1       23.250 -29.303   5.338  0.00  0.00    -0.387 OA
ATOM     32  H   LIG    1       23.030 -30.253   5.420  0.00  0.00    +0.210 HD
ENDBRANCH  19  31
ENDBRANCH  18  19
ENDBRANCH   1  18
TORSDOF 8
ENDMDL
MODEL 6
REMARK VINA RESULT:      -9.1      5.664     10.269
REMARK  Name = *****
REMARK                            x       y       z     vdW  Elec       q    Type
REMARK                         _______ _______ _______ _____ _____    ______ ____
ROOT
ATOM      1  N   LIG    1       24.372 -25.119   6.532  0.00  0.00    -0.311 NA
ATOM      2  H   LIG    1       24.040 -25.635   7.358  0.00  0.00    +0.122 HD
ENDROOT
BRANCH   1   3
ATOM      3  C   LIG    1       25.815 -25.374   6.413  0.00  0.00    +0.115 C 
BRANCH   3   4
ATOM      4  C   LIG    1       26.126 -26.880   6.239  0.00  0.00    +0.169 C 
BRANCH   4   5
ATOM      5  C   LIG    1       24.829 -27.732   6.171  0.00  0.00    +0.203 C 
ATOM      6  O   LIG    1       24.582 -28.287   7.484  0.00  0.00    -0.486 OA
ATOM      7  C   LIG    1       24.428 -29.638   7.605  0.00  0.00    +0.124 A 
ATOM      8  C   LIG    1       24.844 -30.551   6.633  0.00  0.00    -0.003 A 
ATOM      9  C   LIG    1       24.661 -31.924   6.851  0.00  0.00    +0.045 A 
ATOM     10  C   LIG    1       24.035 -32.359   8.013  0.00  0.00    +0.124 A 
ATOM     11  C   LIG    1       23.608 -31.455   8.978  0.00  0.00    +0.042 A 
ATOM     12  F   LIG    1       23.829 -33.670   8.199  0.00  0.00    -0.205 F 
ATOM     13  C   LIG    1       25.466 -30.050   5.371  0.00  0.00    +0.042 C 
ATOM     14  C   LIG    1       23.821 -30.090   8.779  0.00  0.00    +0.049 A 
ATOM     15  C   LIG    1       24.773 -28.747   5.020  0.00  0.00    +0.052 C 
ENDBRANCH   4   5
BRANCH   4  16
ATOM     16  O   LIG    1       26.925 -27.079   5.065  0.00  0.00    -0.387 OA
ATOM     17  H   LIG    1       26.931 -28.044   4.914  0.00  0.00    +0.210 HD
ENDBRANCH   4  16
ENDBRANCH   3   4
ENDBRANCH   1   3
BRANCH   1  18
ATOM     18  C   LIG    1       24.098 -23.684   6.725  0.00  0.00    +0.115 C 
BRANCH  18  19
ATOM     19  C   LIG    1       24.964 -22.771   5.819  0.00  0.00    +0.169 C 
BRANCH  19  20
ATOM     20  C   LIG    1       24.852 -21.270   6.197  0.00  0.00    +0.203 C 
ATOM     21  O   LIG    1       25.843 -20.475   5.526  0.00  0.00    -0.486 OA
ATOM     22  C   LIG    1       26.999 -20.187   6.196  0.00  0.00    +0.124 A 
ATOM     23  C   LIG    1       27.193 -20.426   7.556  0.00  0.00    -0.003 A 
ATOM     24  C   LIG    1       28.415 -20.058   8.144  0.00  0.00    +0.045 A 
ATOM     25  C   LIG    1       29.400 -19.454   7.370  0.00  0.00    +0.124 A 
ATOM     26  C   LIG    1       29.212 -19.222   6.018  0.00  0.00    +0.042 A 
ATOM     27  F   LIG    1       30.557 -19.089   7.947  0.00  0.00    -0.205 F 
ATOM     28  C   LIG    1       26.134 -21.092   8.381  0.00  0.00    +0.042 C 
ATOM     29  C   LIG    1       28.003 -19.594   5.425  0.00  0.00    +0.049 A 
ATOM     30  C   LIG    1       24.781 -20.986   7.698  0.00  0.00    +0.052 C 
ENDBRANCH  19  20
BRANCH  19  31
ATOM     31  O   LIG    1       24.625 -23.002   4.450  0.00  0.00    -0.387 OA
ATOM     32  H   LIG    1       23.768 -23.472   4.475  0.00  0.00    +0.210 HD
ENDBRANCH  19  31
ENDBRANCH  18  19
ENDBRANCH   1  18
TORSDOF 8
ENDMDL
MODEL 7
REMARK VINA RESULT:      -9.1      5.633      9.174
REMARK  Name = *****
REMARK                            x       y       z     vdW  Elec       q    Type
REMARK                         _______ _______ _______ _____ _____    ______ ____
ROOT
ATOM      1  N   LIG    1       24.028 -25.175   5.493  0.00  0.00    -0.311 NA
ATOM      2  H   LIG    1       23.413 -24.690   4.826  0.00  0.00    +0.122 HD
ENDROOT
BRANCH   1   3
ATOM      3  C   LIG    1       24.471 -24.177   6.479  0.00  0.00    +0.115 C 
BRANCH   3   4
ATOM      4  C   LIG    1       23.278 -23.459   7.153  0.00  0.00    +0.169 C 
BRANCH   4   5
ATOM      5  C   LIG    1       23.510 -21.927   7.256  0.00  0.00    +0.203 C 
ATOM      6  O   LIG    1       22.925 -21.301   6.091  0.00  0.00    -0.486 OA
ATOM      7  C   LIG    1       23.710 -20.492   5.319  0.00  0.00    +0.124 A 
ATOM      8  C   LIG    1       25.106 -20.507   5.358  0.00  0.00    -0.003 A 
ATOM      9  C   LIG    1       25.831 -19.652   4.516  0.00  0.00    +0.045 A 
ATOM     10  C   LIG    1       25.153 -18.773   3.680  0.00  0.00    +0.124 A 
ATOM     11  C   LIG    1       23.765 -18.745   3.645  0.00  0.00    +0.042 A 
ATOM     12  F   LIG    1       25.851 -17.931   2.904  0.00  0.00    -0.205 F 
ATOM     13  C   LIG    1       25.805 -21.426   6.306  0.00  0.00    +0.042 C 
ATOM     14  C   LIG    1       23.041 -19.620   4.457  0.00  0.00    +0.049 A 
ATOM     15  C   LIG    1       24.955 -21.503   7.560  0.00  0.00    +0.052 C 
ENDBRANCH   4   5
BRANCH   4  16
ATOM     16  O   LIG    1       22.071 -23.742   6.433  0.00  0.00    -0.387 OA
ATOM     17  H   LIG    1       22.317 -24.410   5.763  0.00  0.00    +0.210 HD
ENDBRANCH   4  16
ENDBRANCH   3   4
ENDBRANCH   1   3
BRANCH   1  18
ATOM     18  C   LIG    1       25.173 -25.743   4.760  0.00  0.00    +0.115 C 
BRANCH  18  19
ATOM     19  C   LIG    1       25.659 -27.097   5.340  0.00  0.00    +0.169 C 
BRANCH  19  20
ATOM     20  C   LIG    1       24.606 -27.767   6.261  0.00  0.00    +0.203 C 
ATOM     21  O   LIG    1       25.107 -27.958   7.595  0.00  0.00    -0.486 OA
ATOM     22  C   LIG    1       25.637 -29.176   7.915  0.00  0.00    +0.124 A 
ATOM     23  C   LIG    1       25.528 -30.310   7.112  0.00  0.00    -0.003 A 
ATOM     24  C   LIG    1       26.086 -31.519   7.561  0.00  0.00    +0.045 A 
ATOM     25  C   LIG    1       26.722 -31.569   8.796  0.00  0.00    +0.124 A 
ATOM     26  C   LIG    1       26.837 -30.443   9.594  0.00  0.00    +0.042 A 
ATOM     27  F   LIG    1       27.234 -32.735   9.225  0.00  0.00    -0.205 F 
ATOM     28  C   LIG    1       24.856 -30.246   5.774  0.00  0.00    +0.042 C 
ATOM     29  C   LIG    1       26.293 -29.236   9.149  0.00  0.00    +0.049 A 
ATOM     30  C   LIG    1       23.954 -29.026   5.688  0.00  0.00    +0.052 C 
ENDBRANCH  19  20
BRANCH  19  31
ATOM     31  O   LIG    1       26.907 -26.905   6.009  0.00  0.00    -0.387 OA
ATOM     32  H   LIG    1       27.430 -26.330   5.414  0.00  0.00    +0.210 HD
ENDBRANCH  19  31
ENDBRANCH  18  19
ENDBRANCH   1  18
TORSDOF 8
ENDMDL
MODEL 8
REMARK VINA RESULT:      -9.1      4.977      7.386
REMARK  Name = *****
REMARK                            x       y       z     vdW  Elec       q    Type
REMARK                         _______ _______ _______ _____ _____    ______ ____
ROOT
ATOM      1  N   LIG    1       23.290 -24.183   6.329  0.00  0.00    -0.311 NA
ATOM      2  H   LIG    1       23.201 -23.919   5.338  0.00  0.00    +0.122 HD
ENDROOT
BRANCH   1   3
ATOM      3  C   LIG    1       23.977 -23.077   7.012  0.00  0.00    +0.115 C 
BRANCH   3   4
ATOM      4  C   LIG    1       24.273 -21.898   6.054  0.00  0.00    +0.169 C 
BRANCH   4   5
ATOM      5  C   LIG    1       25.033 -20.749   6.771  0.00  0.00    +0.203 C 
ATOM      6  O   LIG    1       26.060 -20.258   5.879  0.00  0.00    -0.486 OA
ATOM      7  C   LIG    1       27.351 -20.221   6.322  0.00  0.00    +0.124 A 
ATOM      8  C   LIG    1       27.808 -20.947   7.425  0.00  0.00    -0.003 A 
ATOM      9  C   LIG    1       29.156 -20.861   7.798  0.00  0.00    +0.045 A 
ATOM     10  C   LIG    1       30.014 -20.027   7.092  0.00  0.00    +0.124 A 
ATOM     11  C   LIG    1       29.563 -19.294   6.001  0.00  0.00    +0.042 A 
ATOM     12  F   LIG    1       31.294 -19.920   7.476  0.00  0.00    -0.205 F 
ATOM     13  C   LIG    1       26.849 -21.794   8.197  0.00  0.00    +0.042 C 
ATOM     14  C   LIG    1       28.229 -19.405   5.606  0.00  0.00    +0.049 A 
ATOM     15  C   LIG    1       25.515 -21.072   8.194  0.00  0.00    +0.052 C 
ENDBRANCH   4   5
BRANCH   4  16
ATOM     16  O   LIG    1       25.016 -22.368   4.921  0.00  0.00    -0.387 OA
ATOM     17  H   LIG    1       25.056 -23.339   5.020  0.00  0.00    +0.210 HD
ENDBRANCH   4  16
ENDBRANCH   3   4
ENDBRANCH   1   3
BRANCH   1  18
ATOM     18  C   LIG    1       24.068 -25.431   6.421  0.00  0.00    +0.115 C 
BRANCH  18  19
ATOM     19  C   LIG    1       24.463 -26.008   5.037  0.00  0.00    +0.169 C 
BRANCH  19  20
ATOM     20  C   LIG    1       25.642 -27.012   5.120  0.00  0.00    +0.203 C 
ATOM     21  O   LIG    1       25.199 -28.371   4.969  0.00  0.00    -0.486 OA
ATOM     22  C   LIG    1       24.967 -29.102   6.100  0.00  0.00    +0.124 A 
ATOM     23  C   LIG    1       25.338 -28.696   7.381  0.00  0.00    -0.003 A 
ATOM     24  C   LIG    1       25.075 -29.547   8.467  0.00  0.00    +0.045 A 
ATOM     25  C   LIG    1       24.468 -30.779   8.249  0.00  0.00    +0.124 A 
ATOM     26  C   LIG    1       24.094 -31.182   6.978  0.00  0.00    +0.042 A 
ATOM     27  F   LIG    1       24.241 -31.595   9.293  0.00  0.00    -0.205 F 
ATOM     28  C   LIG    1       25.976 -27.360   7.612  0.00  0.00    +0.042 C 
ATOM     29  C   LIG    1       24.343 -30.336   5.895  0.00  0.00    +0.049 A 
ATOM     30  C   LIG    1       26.570 -26.822   6.321  0.00  0.00    +0.052 C 
ENDBRANCH  19  20
BRANCH  19  31
ATOM     31  O   LIG    1       24.741 -24.933   4.137  0.00  0.00    -0.387 OA
ATOM     32  H   LIG    1       23.984 -24.916   3.518  0.00  0.00    +0.210 HD
ENDBRANCH  19  31
ENDBRANCH  18  19
ENDBRANCH   1  18
TORSDOF 8
ENDMDL
MODEL 9
REMARK VINA RESULT:      -9.0      2.632      9.319
REMARK  Name = *****
REMARK                            x       y       z     vdW  Elec       q    Type
REMARK                         _______ _______ _______ _____ _____    ______ ____
ROOT
ATOM      1  N   LIG    1       27.525 -20.814   5.921  0.00  0.00    -0.311 NA
ATOM      2  H   LIG    1       27.833 -21.408   5.139  0.00  0.00    +0.122 HD
ENDROOT
BRANCH   1   3
ATOM      3  C   LIG    1       26.317 -20.103   5.475  0.00  0.00    +0.115 C 
BRANCH   3   4
ATOM      4  C   LIG    1       25.073 -21.023   5.469  0.00  0.00    +0.169 C 
BRANCH   4   5
ATOM      5  C   LIG    1       25.110 -22.052   6.631  0.00  0.00    +0.203 C 
ATOM      6  O   LIG    1       25.978 -23.142   6.244  0.00  0.00    -0.486 OA
ATOM      7  C   LIG    1       25.489 -24.416   6.286  0.00  0.00    +0.124 A 
ATOM      8  C   LIG    1       24.125 -24.717   6.326  0.00  0.00    -0.003 A 
ATOM      9  C   LIG    1       23.713 -26.056   6.350  0.00  0.00    +0.045 A 
ATOM     10  C   LIG    1       24.664 -27.069   6.373  0.00  0.00    +0.124 A 
ATOM     11  C   LIG    1       26.022 -26.776   6.345  0.00  0.00    +0.042 A 
ATOM     12  F   LIG    1       24.266 -28.347   6.434  0.00  0.00    -0.205 F 
ATOM     13  C   LIG    1       23.128 -23.605   6.355  0.00  0.00    +0.042 C 
ATOM     14  C   LIG    1       26.435 -25.444   6.285  0.00  0.00    +0.049 A 
ATOM     15  C   LIG    1       23.737 -22.481   7.170  0.00  0.00    +0.052 C 
ENDBRANCH   4   5
BRANCH   4  16
ATOM     16  O   LIG    1       23.881 -20.227   5.534  0.00  0.00    -0.387 OA
ATOM     17  H   LIG    1       23.142 -20.867   5.563  0.00  0.00    +0.210 HD
ENDBRANCH   4  16
ENDBRANCH   3   4
ENDBRANCH   1   3
BRANCH   1  18
ATOM     18  C   LIG    1       28.605 -19.870   6.257  0.00  0.00    +0.115 C 
BRANCH  18  19
ATOM     19  C   LIG    1       28.709 -19.577   7.776  0.00  0.00    +0.169 C 
BRANCH  19  20
ATOM     20  C   LIG    1       30.069 -20.014   8.380  0.00  0.00    +0.203 C 
ATOM     21  O   LIG    1       30.234 -19.537   9.726  0.00  0.00    -0.486 OA
ATOM     22  C   LIG    1       30.930 -18.377   9.917  0.00  0.00    +0.124 A 
ATOM     23  C   LIG    1       31.674 -17.741   8.925  0.00  0.00    -0.003 A 
ATOM     24  C   LIG    1       32.375 -16.566   9.248  0.00  0.00    +0.045 A 
ATOM     25  C   LIG    1       32.329 -16.069  10.546  0.00  0.00    +0.124 A 
ATOM     26  C   LIG    1       31.586 -16.695  11.531  0.00  0.00    +0.042 A 
ATOM     27  F   LIG    1       33.020 -14.956  10.848  0.00  0.00    -0.205 F 
ATOM     28  C   LIG    1       31.706 -18.273   7.525  0.00  0.00    +0.042 C 
ATOM     29  C   LIG    1       30.878 -17.857  11.215  0.00  0.00    +0.049 A 
ATOM     30  C   LIG    1       31.288 -19.733   7.499  0.00  0.00    +0.052 C 
ENDBRANCH  19  20
BRANCH  19  31
ATOM     31  O   LIG    1       27.606 -20.183   8.453  0.00  0.00    -0.387 OA
ATOM     32  H   LIG    1       27.997 -20.626   9.233  0.00  0.00    +0.210 HD
ENDBRANCH  19  31
ENDBRANCH  18  19
ENDBRANCH   1  18
TORSDOF 8
ENDMDL
