MODEL 1
REMARK VINA RESULT:      -3.9      0.000      0.000
REMARK  Name = *****
REMARK                            x       y       z     vdW  Elec       q    Type
REMARK                         _______ _______ _______ _____ _____    ______ ____
ROOT
ATOM      1  O   LIG    1       26.358 -17.112   3.654  0.00  0.00    -0.461 OA
ENDROOT
BRANCH   1   2
ATOM      2  C   LIG    1       25.783 -15.862   3.213  0.00  0.00    +0.187 C 
ATOM      3  C   LIG    1       24.625 -15.552   4.180  0.00  0.00    +0.099 C 
ATOM      4  C   LIG    1       24.206 -14.077   4.195  0.00  0.00    +0.070 C 
ATOM      5  N   LIG    1       25.426 -13.198   4.525  0.00  0.00    +0.243 N 
ATOM      6  C   LIG    1       25.006 -11.739   4.798  0.00  0.00    +0.192 C 
ATOM      7  C   LIG    1       26.207 -13.622   5.771  0.00  0.00    +0.192 C 
ATOM      8  C   LIG    1       26.205 -13.323   3.204  0.00  0.00    +0.070 C 
ATOM      9  C   LIG    1       25.115 -13.122   2.138  0.00  0.00    +0.060 C 
ATOM     10  C   LIG    1       23.815 -13.614   2.783  0.00  0.00    +0.060 C 
ATOM     11  C   LIG    1       26.817 -14.726   3.096  0.00  0.00    +0.099 C 
ENDBRANCH   1   2
BRANCH   1  12
ATOM     12  C   LIG    1       25.781 -18.258   3.199  0.00  0.00    +0.310 C 
ATOM     13  O   LIG    1       25.836 -18.643   2.033  0.00  0.00    -0.251 OA
BRANCH  12  14
ATOM     14  C   LIG    1       24.977 -18.952   4.280  0.00  0.00    +0.098 C 
BRANCH  14  15
ATOM     15  C   LIG    1       23.492 -19.088   3.867  0.00  0.00    +0.014 C 
BRANCH  15  17
ATOM     16  C   LIG    1       22.164 -20.901   5.086  0.00  0.00    +0.004 C 
ATOM     17  C   LIG    1       22.550 -19.425   5.039  0.00  0.00    -0.003 C 
ENDBRANCH  15  17
ENDBRANCH  14  15
BRANCH  14  18
ATOM     18  C   LIG    1       25.635 -20.320   4.611  0.00  0.00    +0.014 C 
BRANCH  18  19
ATOM     19  C   LIG    1       26.225 -20.439   6.032  0.00  0.00    -0.003 C 
ATOM     20  C   LIG    1       27.711 -20.132   6.111  0.00  0.00    +0.004 C 
ENDBRANCH  18  19
ENDBRANCH  14  18
ENDBRANCH  12  14
ENDBRANCH   1  12
TORSDOF 7
ENDMDL
MODEL 2
REMARK VINA RESULT:      -3.8      1.097      3.181
REMARK  Name = *****
REMARK                            x       y       z     vdW  Elec       q    Type
REMARK                         _______ _______ _______ _____ _____    ______ ____
ROOT
ATOM      1  O   LIG    1       25.768 -17.017   3.094  0.00  0.00    -0.461 OA
ENDROOT
BRANCH   1   2
ATOM      2  C   LIG    1       25.954 -15.712   3.684  0.00  0.00    +0.187 C 
ATOM      3  C   LIG    1       26.634 -14.844   2.607  0.00  0.00    +0.099 C 
ATOM      4  C   LIG    1       26.482 -13.336   2.840  0.00  0.00    +0.070 C 
ATOM      5  N   LIG    1       24.989 -12.978   2.949  0.00  0.00    +0.243 N 
ATOM      6  C   LIG    1       24.777 -11.450   2.931  0.00  0.00    +0.192 C 
ATOM      7  C   LIG    1       24.114 -13.510   1.812  0.00  0.00    +0.192 C 
ATOM      8  C   LIG    1       24.676 -13.574   4.333  0.00  0.00    +0.070 C 
ATOM      9  C   LIG    1       25.862 -13.098   5.190  0.00  0.00    +0.060 C 
ATOM     10  C   LIG    1       27.036 -12.945   4.219  0.00  0.00    +0.060 C 
ATOM     11  C   LIG    1       24.654 -15.106   4.243  0.00  0.00    +0.099 C 
ENDBRANCH   1   2
BRANCH   1  12
ATOM     12  C   LIG    1       26.361 -18.073   3.716  0.00  0.00    +0.310 C 
ATOM     13  O   LIG    1       27.503 -18.054   4.171  0.00  0.00    -0.251 OA
BRANCH  12  14
ATOM     14  C   LIG    1       25.483 -19.309   3.688  0.00  0.00    +0.098 C 
BRANCH  14  15
ATOM     15  C   LIG    1       25.561 -20.075   5.030  0.00  0.00    +0.014 C 
BRANCH  15  17
ATOM     16  C   LIG    1       27.195 -20.318   6.982  0.00  0.00    +0.004 C 
ATOM     17  C   LIG    1       26.999 -20.411   5.471  0.00  0.00    -0.003 C 
ENDBRANCH  15  17
ENDBRANCH  14  15
BRANCH  14  18
ATOM     18  C   LIG    1       24.031 -18.898   3.314  0.00  0.00    +0.014 C 
BRANCH  18  19
ATOM     19  C   LIG    1       23.008 -18.980   4.466  0.00  0.00    -0.003 C 
ATOM     20  C   LIG    1       21.970 -17.871   4.450  0.00  0.00    +0.004 C 
ENDBRANCH  18  19
ENDBRANCH  14  18
ENDBRANCH  12  14
ENDBRANCH   1  12
TORSDOF 7
ENDMDL
MODEL 3
REMARK VINA RESULT:      -3.6      0.892      2.650
REMARK  Name = *****
REMARK                            x       y       z     vdW  Elec       q    Type
REMARK                         _______ _______ _______ _____ _____    ______ ____
ROOT
ATOM      1  O   LIG    1       26.267 -17.281   3.456  0.00  0.00    -0.461 OA
ENDROOT
BRANCH   1   2
ATOM      2  C   LIG    1       25.718 -15.991   3.113  0.00  0.00    +0.187 C 
ATOM      3  C   LIG    1       24.677 -15.660   4.200  0.00  0.00    +0.099 C 
ATOM      4  C   LIG    1       24.338 -14.168   4.302  0.00  0.00    +0.070 C 
ATOM      5  N   LIG    1       25.628 -13.361   4.536  0.00  0.00    +0.243 N 
ATOM      6  C   LIG    1       25.312 -11.894   4.895  0.00  0.00    +0.192 C 
ATOM      7  C   LIG    1       26.505 -13.866   5.684  0.00  0.00    +0.192 C 
ATOM      8  C   LIG    1       26.267 -13.476   3.141  0.00  0.00    +0.070 C 
ATOM      9  C   LIG    1       25.089 -13.184   2.196  0.00  0.00    +0.060 C 
ATOM     10  C   LIG    1       23.835 -13.637   2.952  0.00  0.00    +0.060 C 
ATOM     11  C   LIG    1       26.792 -14.902   2.929  0.00  0.00    +0.099 C 
ENDBRANCH   1   2
BRANCH   1  12
ATOM     12  C   LIG    1       25.393 -18.316   3.590  0.00  0.00    +0.310 C 
ATOM     13  O   LIG    1       24.199 -18.252   3.304  0.00  0.00    -0.251 OA
BRANCH  12  14
ATOM     14  C   LIG    1       26.045 -19.525   4.231  0.00  0.00    +0.098 C 
BRANCH  14  15
ATOM     15  C   LIG    1       27.425 -19.160   4.828  0.00  0.00    +0.014 C 
BRANCH  15  17
ATOM     16  C   LIG    1       29.108 -19.562   6.711  0.00  0.00    +0.004 C 
ATOM     17  C   LIG    1       27.851 -20.062   6.003  0.00  0.00    -0.003 C 
ENDBRANCH  15  17
ENDBRANCH  14  15
BRANCH  14  18
ATOM     18  C   LIG    1       25.077 -20.130   5.286  0.00  0.00    +0.014 C 
BRANCH  18  19
ATOM     19  C   LIG    1       24.047 -21.136   4.731  0.00  0.00    -0.003 C 
ATOM     20  C   LIG    1       22.616 -20.855   5.158  0.00  0.00    +0.004 C 
ENDBRANCH  18  19
ENDBRANCH  14  18
ENDBRANCH  12  14
ENDBRANCH   1  12
TORSDOF 7
ENDMDL
MODEL 4
REMARK VINA RESULT:      -3.4      1.079      2.502
REMARK  Name = *****
REMARK                            x       y       z     vdW  Elec       q    Type
REMARK                         _______ _______ _______ _____ _____    ______ ____
ROOT
ATOM      1  O   LIG    1       24.806 -17.064   3.860  0.00  0.00    -0.461 OA
ENDROOT
BRANCH   1   2
ATOM      2  C   LIG    1       25.416 -15.861   3.345  0.00  0.00    +0.187 C 
ATOM      3  C   LIG    1       24.673 -14.682   4.003  0.00  0.00    +0.099 C 
ATOM      4  C   LIG    1       25.456 -13.363   3.977  0.00  0.00    +0.070 C 
ATOM      5  N   LIG    1       26.830 -13.566   4.642  0.00  0.00    +0.243 N 
ATOM      6  C   LIG    1       27.547 -12.218   4.865  0.00  0.00    +0.192 C 
ATOM      7  C   LIG    1       26.786 -14.221   6.024  0.00  0.00    +0.192 C 
ATOM      8  C   LIG    1       27.527 -14.402   3.555  0.00  0.00    +0.070 C 
ATOM      9  C   LIG    1       27.168 -13.655   2.259  0.00  0.00    +0.060 C 
ATOM     10  C   LIG    1       25.820 -12.981   2.534  0.00  0.00    +0.060 C 
ATOM     11  C   LIG    1       26.943 -15.821   3.542  0.00  0.00    +0.099 C 
ENDBRANCH   1   2
BRANCH   1  12
ATOM     12  C   LIG    1       25.213 -18.248   3.326  0.00  0.00    +0.310 C 
ATOM     13  O   LIG    1       26.184 -18.372   2.583  0.00  0.00    -0.251 OA
BRANCH  12  14
ATOM     14  C   LIG    1       24.265 -19.378   3.674  0.00  0.00    +0.098 C 
BRANCH  14  15
ATOM     15  C   LIG    1       25.021 -20.550   4.344  0.00  0.00    +0.014 C 
BRANCH  15  17
ATOM     16  C   LIG    1       25.983 -20.596   6.713  0.00  0.00    +0.004 C 
ATOM     17  C   LIG    1       26.160 -20.101   5.279  0.00  0.00    -0.003 C 
ENDBRANCH  15  17
ENDBRANCH  14  15
BRANCH  14  18
ATOM     18  C   LIG    1       23.111 -18.826   4.557  0.00  0.00    +0.014 C 
BRANCH  18  19
ATOM     19  C   LIG    1       22.534 -19.823   5.584  0.00  0.00    -0.003 C 
ATOM     20  C   LIG    1       21.855 -21.030   4.959  0.00  0.00    +0.004 C 
ENDBRANCH  18  19
ENDBRANCH  14  18
ENDBRANCH  12  14
ENDBRANCH   1  12
TORSDOF 7
ENDMDL
MODEL 5
REMARK VINA RESULT:      -3.2      1.621      2.925
REMARK  Name = *****
REMARK                            x       y       z     vdW  Elec       q    Type
REMARK                         _______ _______ _______ _____ _____    ______ ____
ROOT
ATOM      1  O   LIG    1       24.350 -16.846   4.071  0.00  0.00    -0.461 OA
ENDROOT
BRANCH   1   2
ATOM      2  C   LIG    1       25.102 -15.787   3.439  0.00  0.00    +0.187 C 
ATOM      3  C   LIG    1       24.550 -14.465   4.007  0.00  0.00    +0.099 C 
ATOM      4  C   LIG    1       25.504 -13.276   3.850  0.00  0.00    +0.070 C 
ATOM      5  N   LIG    1       26.858 -13.610   4.501  0.00  0.00    +0.243 N 
ATOM      6  C   LIG    1       27.760 -12.361   4.590  0.00  0.00    +0.192 C 
ATOM      7  C   LIG    1       26.770 -14.135   5.936  0.00  0.00    +0.192 C 
ATOM      8  C   LIG    1       27.398 -14.624   3.478  0.00  0.00    +0.070 C 
ATOM      9  C   LIG    1       27.103 -13.945   2.129  0.00  0.00    +0.060 C 
ATOM     10  C   LIG    1       25.870 -13.070   2.372  0.00  0.00    +0.060 C 
ATOM     11  C   LIG    1       26.626 -15.944   3.601  0.00  0.00    +0.099 C 
ENDBRANCH   1   2
BRANCH   1  12
ATOM     12  C   LIG    1       24.638 -18.123   3.697  0.00  0.00    +0.310 C 
ATOM     13  O   LIG    1       25.733 -18.489   3.275  0.00  0.00    -0.251 OA
BRANCH  12  14
ATOM     14  C   LIG    1       23.417 -19.019   3.767  0.00  0.00    +0.098 C 
BRANCH  14  15
ATOM     15  C   LIG    1       23.755 -20.366   4.449  0.00  0.00    +0.014 C 
BRANCH  15  17
ATOM     16  C   LIG    1       23.427 -20.742   6.958  0.00  0.00    +0.004 C 
ATOM     17  C   LIG    1       22.777 -20.752   5.576  0.00  0.00    -0.003 C 
ENDBRANCH  15  17
ENDBRANCH  14  15
BRANCH  14  18
ATOM     18  C   LIG    1       22.263 -18.258   4.478  0.00  0.00    +0.014 C 
BRANCH  18  19
ATOM     19  C   LIG    1       21.073 -17.877   3.575  0.00  0.00    -0.003 C 
ATOM     20  C   LIG    1       20.027 -18.970   3.436  0.00  0.00    +0.004 C 
ENDBRANCH  18  19
ENDBRANCH  14  18
ENDBRANCH  12  14
ENDBRANCH   1  12
TORSDOF 7
ENDMDL
MODEL 6
REMARK VINA RESULT:      -3.0      2.202      6.442
REMARK  Name = *****
REMARK                            x       y       z     vdW  Elec       q    Type
REMARK                         _______ _______ _______ _____ _____    ______ ____
ROOT
ATOM      1  O   LIG    1       25.337 -17.586   2.957  0.00  0.00    -0.461 OA
ENDROOT
BRANCH   1   2
ATOM      2  C   LIG    1       25.182 -18.789   3.740  0.00  0.00    +0.187 C 
ATOM      3  C   LIG    1       24.240 -18.430   4.906  0.00  0.00    +0.099 C 
ATOM      4  C   LIG    1       23.570 -19.644   5.559  0.00  0.00    +0.070 C 
ATOM      5  N   LIG    1       22.812 -20.452   4.490  0.00  0.00    +0.243 N 
ATOM      6  C   LIG    1       21.919 -21.533   5.134  0.00  0.00    +0.192 C 
ATOM      7  C   LIG    1       21.863 -19.630   3.614  0.00  0.00    +0.192 C 
ATOM      8  C   LIG    1       24.001 -21.076   3.739  0.00  0.00    +0.070 C 
ATOM      9  C   LIG    1       24.907 -21.571   4.879  0.00  0.00    +0.060 C 
ATOM     10  C   LIG    1       24.628 -20.638   6.061  0.00  0.00    +0.060 C 
ATOM     11  C   LIG    1       24.712 -19.998   2.910  0.00  0.00    +0.099 C 
ENDBRANCH   1   2
BRANCH   1  12
ATOM     12  C   LIG    1       26.328 -16.727   3.323  0.00  0.00    +0.310 C 
ATOM     13  O   LIG    1       27.362 -17.069   3.893  0.00  0.00    -0.251 OA
BRANCH  12  14
ATOM     14  C   LIG    1       25.959 -15.285   3.035  0.00  0.00    +0.098 C 
BRANCH  14  15
ATOM     15  C   LIG    1       24.937 -14.757   4.070  0.00  0.00    +0.014 C 
BRANCH  15  17
ATOM     16  C   LIG    1       24.119 -12.334   4.012  0.00  0.00    +0.004 C 
ATOM     17  C   LIG    1       23.924 -13.754   3.485  0.00  0.00    -0.003 C 
ENDBRANCH  15  17
ENDBRANCH  14  15
BRANCH  14  18
ATOM     18  C   LIG    1       27.253 -14.426   2.978  0.00  0.00    +0.014 C 
BRANCH  18  19
ATOM     19  C   LIG    1       27.528 -13.568   4.229  0.00  0.00    -0.003 C 
ATOM     20  C   LIG    1       28.775 -12.705   4.125  0.00  0.00    +0.004 C 
ENDBRANCH  18  19
ENDBRANCH  14  18
ENDBRANCH  12  14
ENDBRANCH   1  12
TORSDOF 7
ENDMDL
MODEL 7
REMARK VINA RESULT:      -2.9      2.098      6.548
REMARK  Name = *****
REMARK                            x       y       z     vdW  Elec       q    Type
REMARK                         _______ _______ _______ _____ _____    ______ ____
ROOT
ATOM      1  O   LIG    1       25.713 -17.339   2.962  0.00  0.00    -0.461 OA
ENDROOT
BRANCH   1   2
ATOM      2  C   LIG    1       25.430 -18.686   3.398  0.00  0.00    +0.187 C 
ATOM      3  C   LIG    1       25.098 -18.596   4.900  0.00  0.00    +0.099 C 
ATOM      4  C   LIG    1       24.313 -19.799   5.435  0.00  0.00    +0.070 C 
ATOM      5  N   LIG    1       23.023 -19.981   4.614  0.00  0.00    +0.243 N 
ATOM      6  C   LIG    1       22.084 -21.015   5.270  0.00  0.00    +0.192 C 
ATOM      7  C   LIG    1       22.173 -18.718   4.463  0.00  0.00    +0.192 C 
ATOM      8  C   LIG    1       23.621 -20.515   3.301  0.00  0.00    +0.070 C 
ATOM      9  C   LIG    1       24.630 -21.571   3.785  0.00  0.00    +0.060 C 
ATOM     10  C   LIG    1       25.081 -21.103   5.172  0.00  0.00    +0.060 C 
ATOM     11  C   LIG    1       24.339 -19.379   2.560  0.00  0.00    +0.099 C 
ENDBRANCH   1   2
BRANCH   1  12
ATOM     12  C   LIG    1       26.715 -16.674   3.600  0.00  0.00    +0.310 C 
ATOM     13  O   LIG    1       27.725 -17.213   4.048  0.00  0.00    -0.251 OA
BRANCH  12  14
ATOM     14  C   LIG    1       26.388 -15.206   3.786  0.00  0.00    +0.098 C 
BRANCH  14  15
ATOM     15  C   LIG    1       27.241 -14.324   2.844  0.00  0.00    +0.014 C 
BRANCH  15  17
ATOM     16  C   LIG    1       27.755 -13.108   5.035  0.00  0.00    +0.004 C 
ATOM     17  C   LIG    1       28.172 -13.344   3.585  0.00  0.00    -0.003 C 
ENDBRANCH  15  17
ENDBRANCH  14  15
BRANCH  14  18
ATOM     18  C   LIG    1       24.861 -14.991   3.589  0.00  0.00    +0.014 C 
BRANCH  18  19
ATOM     19  C   LIG    1       24.269 -13.769   4.321  0.00  0.00    -0.003 C 
ATOM     20  C   LIG    1       23.974 -12.588   3.412  0.00  0.00    +0.004 C 
ENDBRANCH  18  19
ENDBRANCH  14  18
ENDBRANCH  12  14
ENDBRANCH   1  12
TORSDOF 7
ENDMDL
MODEL 8
REMARK VINA RESULT:      -2.6      1.782      2.612
REMARK  Name = *****
REMARK                            x       y       z     vdW  Elec       q    Type
REMARK                         _______ _______ _______ _____ _____    ______ ____
ROOT
ATOM      1  O   LIG    1       23.681 -16.329   4.431  0.00  0.00    -0.461 OA
ENDROOT
BRANCH   1   2
ATOM      2  C   LIG    1       24.530 -15.474   3.635  0.00  0.00    +0.187 C 
ATOM      3  C   LIG    1       24.294 -14.037   4.139  0.00  0.00    +0.099 C 
ATOM      4  C   LIG    1       25.420 -13.061   3.781  0.00  0.00    +0.070 C 
ATOM      5  N   LIG    1       26.759 -13.599   4.315  0.00  0.00    +0.243 N 
ATOM      6  C   LIG    1       27.874 -12.538   4.201  0.00  0.00    +0.192 C 
ATOM      7  C   LIG    1       26.749 -14.001   5.792  0.00  0.00    +0.192 C 
ATOM      8  C   LIG    1       26.986 -14.762   3.334  0.00  0.00    +0.070 C 
ATOM      9  C   LIG    1       26.660 -14.131   1.969  0.00  0.00    +0.060 C 
ATOM     10  C   LIG    1       25.640 -13.026   2.261  0.00  0.00    +0.060 C 
ATOM     11  C   LIG    1       26.010 -15.903   3.651  0.00  0.00    +0.099 C 
ENDBRANCH   1   2
BRANCH   1  12
ATOM     12  C   LIG    1       23.633 -17.647   4.095  0.00  0.00    +0.310 C 
ATOM     13  O   LIG    1       24.506 -18.229   3.455  0.00  0.00    -0.251 OA
BRANCH  12  14
ATOM     14  C   LIG    1       22.326 -18.289   4.515  0.00  0.00    +0.098 C 
BRANCH  14  15
ATOM     15  C   LIG    1       21.561 -18.845   3.291  0.00  0.00    +0.014 C 
BRANCH  15  17
ATOM     16  C   LIG    1       19.350 -17.896   2.423  0.00  0.00    +0.004 C 
ATOM     17  C   LIG    1       20.028 -18.805   3.446  0.00  0.00    -0.003 C 
ENDBRANCH  15  17
ENDBRANCH  14  15
BRANCH  14  18
ATOM     18  C   LIG    1       22.610 -19.375   5.590  0.00  0.00    +0.014 C 
BRANCH  18  19
ATOM     19  C   LIG    1       22.599 -20.829   5.074  0.00  0.00    -0.003 C 
ATOM     20  C   LIG    1       23.983 -21.422   4.870  0.00  0.00    +0.004 C 
ENDBRANCH  18  19
ENDBRANCH  14  18
ENDBRANCH  12  14
ENDBRANCH   1  12
TORSDOF 7
ENDMDL
MODEL 9
REMARK VINA RESULT:      -2.5      2.098      6.560
REMARK  Name = *****
REMARK                            x       y       z     vdW  Elec       q    Type
REMARK                         _______ _______ _______ _____ _____    ______ ____
ROOT
ATOM      1  O   LIG    1       26.169 -16.586   3.701  0.00  0.00    -0.461 OA
ENDROOT
BRANCH   1   2
ATOM      2  C   LIG    1       25.231 -17.638   3.386  0.00  0.00    +0.187 C 
ATOM      3  C   LIG    1       26.059 -18.930   3.246  0.00  0.00    +0.099 C 
ATOM      4  C   LIG    1       25.235 -20.214   3.396  0.00  0.00    +0.070 C 
ATOM      5  N   LIG    1       24.496 -20.199   4.746  0.00  0.00    +0.243 N 
ATOM      6  C   LIG    1       23.860 -21.571   5.051  0.00  0.00    +0.192 C 
ATOM      7  C   LIG    1       25.378 -19.897   5.959  0.00  0.00    +0.192 C 
ATOM      8  C   LIG    1       23.426 -19.135   4.448  0.00  0.00    +0.070 C 
ATOM      9  C   LIG    1       22.912 -19.542   3.056  0.00  0.00    +0.060 C 
ATOM     10  C   LIG    1       24.090 -20.242   2.372  0.00  0.00    +0.060 C 
ATOM     11  C   LIG    1       24.077 -17.746   4.400  0.00  0.00    +0.099 C 
ENDBRANCH   1   2
BRANCH   1  12
ATOM     12  C   LIG    1       25.902 -15.345   3.211  0.00  0.00    +0.310 C 
ATOM     13  O   LIG    1       26.253 -14.950   2.101  0.00  0.00    -0.251 OA
BRANCH  12  14
ATOM     14  C   LIG    1       25.210 -14.471   4.238  0.00  0.00    +0.098 C 
BRANCH  14  15
ATOM     15  C   LIG    1       26.170 -13.387   4.783  0.00  0.00    +0.014 C 
BRANCH  15  17
ATOM     16  C   LIG    1       28.549 -12.965   3.943  0.00  0.00    +0.004 C 
ATOM     17  C   LIG    1       27.647 -13.829   4.821  0.00  0.00    -0.003 C 
ENDBRANCH  15  17
ENDBRANCH  14  15
BRANCH  14  18
ATOM     18  C   LIG    1       23.919 -13.870   3.615  0.00  0.00    +0.014 C 
BRANCH  18  19
ATOM     19  C   LIG    1       23.968 -12.355   3.335  0.00  0.00    -0.003 C 
ATOM     20  C   LIG    1       24.483 -11.998   1.950  0.00  0.00    +0.004 C 
ENDBRANCH  18  19
ENDBRANCH  14  18
ENDBRANCH  12  14
ENDBRANCH   1  12
TORSDOF 7
ENDMDL
