MODEL 1
REMARK VINA RESULT:       2.5      0.000      0.000
REMARK  Name = *****
REMARK                            x       y       z     vdW  Elec       q    Type
REMARK                         _______ _______ _______ _____ _____    ______ ____
ROOT
ATOM      1  C   LIG    1       26.748 -20.906   6.161  0.00  0.00    +0.034 C 
ENDROOT
BRANCH   1   2
ATOM      2  C   LIG    1       27.071 -19.601   5.429  0.00  0.00    +0.085 C 
BRANCH   2   3
ATOM      3  N   LIG    1       28.508 -19.283   5.236  0.00  0.00    -0.305 NA
ATOM      4  C   LIG    1       29.214 -19.165   6.520  0.00  0.00    +0.105 C 
BRANCH   3   5
ATOM      5  C   LIG    1       28.653 -17.999   4.496  0.00  0.00    +0.092 C 
BRANCH   5  10
ATOM      6  C   LIG    1       27.104 -13.413   2.730  0.00  0.00    +0.162 A 
ATOM      7  C   LIG    1       27.918 -13.385   3.895  0.00  0.00    +0.162 A 
ATOM      8  C   LIG    1       28.194 -14.574   4.579  0.00  0.00    +0.053 A 
ATOM      9  C   LIG    1       27.589 -15.720   4.126  0.00  0.00    -0.036 A 
ATOM     10  C   LIG    1       27.367 -17.168   4.473  0.00  0.00    +0.038 C 
ATOM     11  C   LIG    1       26.449 -17.216   3.196  0.00  0.00    +0.045 C 
ATOM     12  C   LIG    1       26.748 -15.748   3.046  0.00  0.00    -0.040 A 
ATOM     13  C   LIG    1       26.487 -14.611   2.322  0.00  0.00    +0.053 A 
BRANCH   6  15
ATOM     14  C   LIG    1       25.332 -12.053   1.915  0.00  0.00    +0.277 C 
ATOM     15  O   LIG    1       26.730 -12.315   1.993  0.00  0.00    -0.491 OA
ENDBRANCH   6  15
BRANCH   7  16
ATOM     16  O   LIG    1       28.379 -12.176   4.339  0.00  0.00    -0.491 OA
ATOM     17  C   LIG    1       28.829 -12.113   5.687  0.00  0.00    +0.277 C 
ENDBRANCH   7  16
ENDBRANCH   5  10
ENDBRANCH   3   5
ENDBRANCH   2   3
ENDBRANCH   1   2
BRANCH   1  18
ATOM     18  C   LIG    1       25.468 -21.570   5.617  0.00  0.00    +0.109 C 
BRANCH  18  19
ATOM     19  N   LIG    1       24.449 -20.681   5.031  0.00  0.00    -0.301 N 
ATOM     20  C   LIG    1       23.271 -20.516   5.773  0.00  0.00    +0.220 C 
ATOM     21  O   LIG    1       23.128 -21.001   6.885  0.00  0.00    -0.275 OA
ATOM     22  C   LIG    1       22.093 -19.798   5.129  0.00  0.00    +0.131 C 
ATOM     23  C   LIG    1       22.390 -18.363   4.819  0.00  0.00    -0.032 A 
ATOM     24  C   LIG    1       23.225 -18.038   3.748  0.00  0.00    -0.039 A 
ATOM     25  C   LIG    1       23.572 -16.696   3.530  0.00  0.00    +0.053 A 
ATOM     26  C   LIG    1       23.129 -15.689   4.406  0.00  0.00    +0.162 A 
ATOM     27  C   LIG    1       22.270 -16.023   5.468  0.00  0.00    +0.162 A 
ATOM     28  C   LIG    1       23.844 -19.168   2.968  0.00  0.00    +0.054 C 
ATOM     29  C   LIG    1       21.908 -17.356   5.658  0.00  0.00    +0.053 A 
ATOM     30  C   LIG    1       24.877 -19.891   3.850  0.00  0.00    +0.112 C 
BRANCH  27  31
ATOM     31  O   LIG    1       21.808 -15.017   6.266  0.00  0.00    -0.491 OA
ATOM     32  C   LIG    1       20.658 -15.251   7.061  0.00  0.00    +0.277 C 
ENDBRANCH  27  31
BRANCH  26  33
ATOM     33  O   LIG    1       23.591 -14.428   4.104  0.00  0.00    -0.491 OA
ATOM     34  C   LIG    1       24.710 -13.968   4.862  0.00  0.00    +0.277 C 
ENDBRANCH  26  33
ENDBRANCH  18  19
ENDBRANCH   1  18
TORSDOF 10
ENDMDL
MODEL 2
REMARK VINA RESULT:       5.3      1.918      5.946
REMARK  Name = *****
REMARK                            x       y       z     vdW  Elec       q    Type
REMARK                         _______ _______ _______ _____ _____    ______ ____
ROOT
ATOM      1  C   LIG    1       25.045 -20.485   3.329  0.00  0.00    +0.034 C 
ENDROOT
BRANCH   1   2
ATOM      2  C   LIG    1       25.408 -21.142   4.663  0.00  0.00    +0.085 C 
BRANCH   2   3
ATOM      3  N   LIG    1       25.582 -20.237   5.826  0.00  0.00    -0.305 NA
ATOM      4  C   LIG    1       26.993 -20.136   6.228  0.00  0.00    +0.105 C 
BRANCH   3   5
ATOM      5  C   LIG    1       24.794 -20.738   6.986  0.00  0.00    +0.092 C 
BRANCH   5  10
ATOM      6  C   LIG    1       21.465 -18.270   3.924  0.00  0.00    +0.162 A 
ATOM      7  C   LIG    1       22.005 -17.506   4.995  0.00  0.00    +0.162 A 
ATOM      8  C   LIG    1       22.729 -18.144   6.007  0.00  0.00    +0.053 A 
ATOM      9  C   LIG    1       22.818 -19.512   5.956  0.00  0.00    -0.036 A 
ATOM     10  C   LIG    1       23.281 -20.708   6.746  0.00  0.00    +0.038 C 
ATOM     11  C   LIG    1       22.676 -21.571   5.578  0.00  0.00    +0.045 C 
ATOM     12  C   LIG    1       22.245 -20.265   4.967  0.00  0.00    -0.040 A 
ATOM     13  C   LIG    1       21.564 -19.673   3.932  0.00  0.00    +0.053 A 
BRANCH   6  15
ATOM     14  C   LIG    1       19.410 -18.337   2.731  0.00  0.00    +0.277 C 
ATOM     15  O   LIG    1       20.707 -17.770   2.892  0.00  0.00    -0.491 OA
ENDBRANCH   6  15
BRANCH   7  16
ATOM     16  O   LIG    1       21.762 -16.160   5.022  0.00  0.00    -0.491 OA
ATOM     17  C   LIG    1       21.690 -15.543   6.303  0.00  0.00    +0.277 C 
ENDBRANCH   7  16
ENDBRANCH   5  10
ENDBRANCH   3   5
ENDBRANCH   2   3
ENDBRANCH   1   2
BRANCH   1  18
ATOM     18  C   LIG    1       26.100 -19.450   2.890  0.00  0.00    +0.109 C 
BRANCH  18  19
ATOM     19  N   LIG    1       26.056 -18.130   3.544  0.00  0.00    -0.301 N 
ATOM     20  C   LIG    1       27.234 -17.714   4.178  0.00  0.00    +0.220 C 
ATOM     21  O   LIG    1       28.269 -18.357   4.116  0.00  0.00    -0.275 OA
ATOM     22  C   LIG    1       27.193 -16.472   5.059  0.00  0.00    +0.131 C 
ATOM     23  C   LIG    1       26.877 -15.227   4.289  0.00  0.00    -0.032 A 
ATOM     24  C   LIG    1       25.575 -14.998   3.837  0.00  0.00    -0.039 A 
ATOM     25  C   LIG    1       25.314 -13.877   3.035  0.00  0.00    +0.053 A 
ATOM     26  C   LIG    1       26.355 -13.016   2.643  0.00  0.00    +0.162 A 
ATOM     27  C   LIG    1       27.658 -13.242   3.122  0.00  0.00    +0.162 A 
ATOM     28  C   LIG    1       24.538 -16.057   4.104  0.00  0.00    +0.054 C 
ATOM     29  C   LIG    1       27.901 -14.343   3.943  0.00  0.00    +0.053 A 
ATOM     30  C   LIG    1       24.855 -17.305   3.260  0.00  0.00    +0.112 C 
BRANCH  27  31
ATOM     31  O   LIG    1       28.637 -12.358   2.774  0.00  0.00    -0.491 OA
ATOM     32  C   LIG    1       29.435 -11.786   3.797  0.00  0.00    +0.277 C 
ENDBRANCH  27  31
BRANCH  26  33
ATOM     33  O   LIG    1       25.966 -11.991   1.812  0.00  0.00    -0.491 OA
ATOM     34  C   LIG    1       24.580 -11.646   1.843  0.00  0.00    +0.277 C 
ENDBRANCH  26  33
ENDBRANCH  18  19
ENDBRANCH   1  18
TORSDOF 10
ENDMDL
