MODEL 1
REMARK VINA RESULT:      -7.8      0.000      0.000
REMARK  Name = *****
REMARK                            x       y       z     vdW  Elec       q    Type
REMARK                         _______ _______ _______ _____ _____    ______ ____
ROOT
ATOM      1  C   LIG    1       29.358 -19.986   8.234  0.00  0.00    +0.152 C 
ENDROOT
BRANCH   1   2
ATOM      2  C   LIG    1       27.821 -20.223   7.863  0.00  0.00    +0.034 C 
BRANCH   2   3
ATOM      3  C   LIG    1       27.218 -21.596   7.372  0.00  0.00    +0.006 C 
BRANCH   3   4
ATOM      4  C   LIG    1       25.715 -21.917   7.750  0.00  0.00    -0.011 C 
BRANCH   4   5
ATOM      5  C   LIG    1       25.130 -23.213   7.209  0.00  0.00    -0.000 C 
ATOM      6  C   LIG    1       25.857 -24.477   6.819  0.00  0.00    +0.004 C 
ENDBRANCH   4   5
BRANCH   4   7
ATOM      7  C   LIG    1       24.773 -20.710   7.535  0.00  0.00    +0.003 C 
BRANCH   7   8
ATOM      8  C   LIG    1       23.301 -20.792   7.051  0.00  0.00    -0.000 C 
BRANCH   8  10
ATOM      9  C   LIG    1       22.515 -19.373   5.073  0.00  0.00    +0.004 C 
ATOM     10  C   LIG    1       22.915 -20.738   5.548  0.00  0.00    -0.003 C 
ENDBRANCH   8  10
ENDBRANCH   7   8
ENDBRANCH   4   7
ENDBRANCH   3   4
ENDBRANCH   2   3
ENDBRANCH   1   2
BRANCH   1  11
ATOM     11  C   LIG    1       30.015 -18.558   7.783  0.00  0.00    +0.037 C 
BRANCH  11  12
ATOM     12  C   LIG    1       30.475 -17.490   8.865  0.00  0.00    -0.015 C 
ATOM     13  C   LIG    1       31.969 -17.023   9.043  0.00  0.00    +0.007 C 
ATOM     14  C   LIG    1       30.089 -17.986  10.257  0.00  0.00    +0.007 C 
ENDBRANCH  11  12
ENDBRANCH   1  11
BRANCH   1  15
ATOM     15  O   LIG    1       30.296 -21.061   7.899  0.00  0.00    -0.212 OA
BRANCH  15  16
ATOM     16  S   LIG    1       31.394 -21.525   9.014  0.00  0.00    +0.208 S 
ATOM     17  O   LIG    1       30.576 -22.305   9.997  0.00  0.00    -0.118 OA
ATOM     18  O   LIG    1       32.302 -20.480   9.347  0.00  0.00    -0.118 OA
BRANCH  16  19
ATOM     19  O   LIG    1       32.271 -22.788   8.596  0.00  0.00    -0.231 OA
ATOM     20  H   LIG    1       31.628 -23.233   7.979  0.00  0.00    +0.247 HD
ENDBRANCH  16  19
ENDBRANCH  15  16
ENDBRANCH   1  15
TORSDOF 12
ENDMDL
MODEL 2
REMARK VINA RESULT:      -7.7      1.090      2.033
REMARK  Name = *****
REMARK                            x       y       z     vdW  Elec       q    Type
REMARK                         _______ _______ _______ _____ _____    ______ ____
ROOT
ATOM      1  C   LIG    1       29.355 -19.990   8.110  0.00  0.00    +0.152 C 
ENDROOT
BRANCH   1   2
ATOM      2  C   LIG    1       27.833 -20.247   7.694  0.00  0.00    +0.034 C 
BRANCH   2   3
ATOM      3  C   LIG    1       27.307 -20.302   6.208  0.00  0.00    +0.006 C 
BRANCH   3   4
ATOM      4  C   LIG    1       25.812 -20.771   5.973  0.00  0.00    -0.011 C 
BRANCH   4   5
ATOM      5  C   LIG    1       25.069 -20.141   4.805  0.00  0.00    -0.000 C 
ATOM      6  C   LIG    1       24.197 -20.820   3.776  0.00  0.00    +0.004 C 
ENDBRANCH   4   5
BRANCH   4   7
ATOM      7  C   LIG    1       24.975 -20.772   7.273  0.00  0.00    +0.003 C 
BRANCH   7   8
ATOM      8  C   LIG    1       23.527 -21.313   7.409  0.00  0.00    -0.000 C 
BRANCH   8  10
ATOM      9  C   LIG    1       24.161 -23.710   6.775  0.00  0.00    +0.004 C 
ATOM     10  C   LIG    1       23.084 -22.667   6.791  0.00  0.00    -0.003 C 
ENDBRANCH   8  10
ENDBRANCH   7   8
ENDBRANCH   4   7
ENDBRANCH   3   4
ENDBRANCH   2   3
ENDBRANCH   1   2
BRANCH   1  11
ATOM     11  C   LIG    1       30.005 -18.552   7.681  0.00  0.00    +0.037 C 
BRANCH  11  12
ATOM     12  C   LIG    1       30.500 -17.517   8.780  0.00  0.00    -0.015 C 
ATOM     13  C   LIG    1       32.015 -17.154   9.010  0.00  0.00    +0.007 C 
ATOM     14  C   LIG    1       30.032 -17.983  10.157  0.00  0.00    +0.007 C 
ENDBRANCH  11  12
ENDBRANCH   1  11
BRANCH   1  15
ATOM     15  O   LIG    1       30.318 -21.051   7.801  0.00  0.00    -0.212 OA
BRANCH  15  16
ATOM     16  S   LIG    1       31.342 -21.552   8.968  0.00  0.00    +0.208 S 
ATOM     17  O   LIG    1       30.451 -22.314   9.901  0.00  0.00    -0.118 OA
ATOM     18  O   LIG    1       32.259 -20.535   9.356  0.00  0.00    -0.118 OA
BRANCH  16  19
ATOM     19  O   LIG    1       32.204 -22.836   8.588  0.00  0.00    -0.231 OA
ATOM     20  H   LIG    1       32.866 -22.411   7.978  0.00  0.00    +0.247 HD
ENDBRANCH  16  19
ENDBRANCH  15  16
ENDBRANCH   1  15
TORSDOF 12
ENDMDL
MODEL 3
REMARK VINA RESULT:      -7.5      1.704      2.288
REMARK  Name = *****
REMARK                            x       y       z     vdW  Elec       q    Type
REMARK                         _______ _______ _______ _____ _____    ______ ____
ROOT
ATOM      1  C   LIG    1       28.572 -21.030   8.294  0.00  0.00    +0.152 C 
ENDROOT
BRANCH   1   2
ATOM      2  C   LIG    1       27.207 -21.855   8.210  0.00  0.00    +0.034 C 
BRANCH   2   3
ATOM      3  C   LIG    1       25.767 -21.222   8.338  0.00  0.00    +0.006 C 
BRANCH   3   4
ATOM      4  C   LIG    1       24.640 -21.750   7.359  0.00  0.00    -0.011 C 
BRANCH   4   5
ATOM      5  C   LIG    1       25.102 -22.514   6.126  0.00  0.00    -0.000 C 
ATOM      6  C   LIG    1       25.065 -24.003   5.880  0.00  0.00    +0.004 C 
ENDBRANCH   4   5
BRANCH   4   7
ATOM      7  C   LIG    1       23.585 -20.672   7.022  0.00  0.00    +0.003 C 
BRANCH   7   8
ATOM      8  C   LIG    1       22.673 -20.666   5.767  0.00  0.00    -0.000 C 
BRANCH   8  10
ATOM      9  C   LIG    1       23.900 -19.361   3.939  0.00  0.00    +0.004 C 
ATOM     10  C   LIG    1       22.651 -19.483   4.761  0.00  0.00    -0.003 C 
ENDBRANCH   8  10
ENDBRANCH   7   8
ENDBRANCH   4   7
ENDBRANCH   3   4
ENDBRANCH   2   3
ENDBRANCH   1   2
BRANCH   1  11
ATOM     11  C   LIG    1       28.604 -19.575   7.548  0.00  0.00    +0.037 C 
BRANCH  11  12
ATOM     12  C   LIG    1       28.751 -19.467   5.969  0.00  0.00    -0.015 C 
ATOM     13  C   LIG    1       29.296 -18.185   5.235  0.00  0.00    +0.007 C 
ATOM     14  C   LIG    1       27.388 -19.697   5.321  0.00  0.00    +0.007 C 
ENDBRANCH  11  12
ENDBRANCH   1  11
BRANCH   1  15
ATOM     15  O   LIG    1       29.807 -21.749   7.971  0.00  0.00    -0.212 OA
BRANCH  15  16
ATOM     16  S   LIG    1       31.091 -21.601   8.966  0.00  0.00    +0.208 S 
ATOM     17  O   LIG    1       30.676 -22.377  10.179  0.00  0.00    -0.118 OA
ATOM     18  O   LIG    1       31.616 -20.278   8.978  0.00  0.00    -0.118 OA
BRANCH  16  19
ATOM     19  O   LIG    1       32.303 -22.581   8.637  0.00  0.00    -0.231 OA
ATOM     20  H   LIG    1       32.303 -22.509   7.643  0.00  0.00    +0.247 HD
ENDBRANCH  16  19
ENDBRANCH  15  16
ENDBRANCH   1  15
TORSDOF 12
ENDMDL
MODEL 4
REMARK VINA RESULT:      -7.4      3.768      7.252
REMARK  Name = *****
REMARK                            x       y       z     vdW  Elec       q    Type
REMARK                         _______ _______ _______ _____ _____    ______ ____
ROOT
ATOM      1  C   LIG    1       24.760 -21.351   6.924  0.00  0.00    +0.152 C 
ENDROOT
BRANCH   1   2
ATOM      2  C   LIG    1       25.873 -20.505   7.699  0.00  0.00    +0.034 C 
BRANCH   2   3
ATOM      3  C   LIG    1       27.364 -20.973   7.917  0.00  0.00    +0.006 C 
BRANCH   3   4
ATOM      4  C   LIG    1       28.518 -19.976   7.490  0.00  0.00    -0.011 C 
BRANCH   4   5
ATOM      5  C   LIG    1       28.607 -19.616   6.015  0.00  0.00    -0.000 C 
ATOM      6  C   LIG    1       29.205 -18.380   5.387  0.00  0.00    +0.004 C 
ENDBRANCH   4   5
BRANCH   4   7
ATOM      7  C   LIG    1       29.891 -20.360   8.087  0.00  0.00    +0.003 C 
BRANCH   7   8
ATOM      8  C   LIG    1       30.990 -19.360   8.533  0.00  0.00    -0.000 C 
BRANCH   8  10
ATOM      9  C   LIG    1       30.291 -17.607  10.262  0.00  0.00    +0.004 C 
ATOM     10  C   LIG    1       30.682 -17.868   8.838  0.00  0.00    -0.003 C 
ENDBRANCH   8  10
ENDBRANCH   7   8
ENDBRANCH   4   7
ENDBRANCH   3   4
ENDBRANCH   2   3
ENDBRANCH   1   2
BRANCH   1  11
ATOM     11  C   LIG    1       23.402 -20.554   6.482  0.00  0.00    +0.037 C 
BRANCH  11  12
ATOM     12  C   LIG    1       23.070 -20.287   4.951  0.00  0.00    -0.015 C 
ATOM     13  C   LIG    1       24.166 -20.245   3.821  0.00  0.00    +0.007 C 
ATOM     14  C   LIG    1       22.367 -18.939   4.816  0.00  0.00    +0.007 C 
ENDBRANCH  11  12
ENDBRANCH   1  11
BRANCH   1  15
ATOM     15  O   LIG    1       24.378 -22.640   7.505  0.00  0.00    -0.212 OA
BRANCH  15  16
ATOM     16  S   LIG    1       24.579 -23.996   6.620  0.00  0.00    +0.208 S 
ATOM     17  O   LIG    1       23.215 -24.616   6.628  0.00  0.00    -0.118 OA
ATOM     18  O   LIG    1       25.791 -24.673   6.937  0.00  0.00    -0.118 OA
BRANCH  16  19
ATOM     19  O   LIG    1       24.571 -23.767   5.044  0.00  0.00    -0.231 OA
ATOM     20  H   LIG    1       24.803 -22.799   5.021  0.00  0.00    +0.247 HD
ENDBRANCH  16  19
ENDBRANCH  15  16
ENDBRANCH   1  15
TORSDOF 12
ENDMDL
MODEL 5
REMARK VINA RESULT:      -7.1      3.239      4.940
REMARK  Name = *****
REMARK                            x       y       z     vdW  Elec       q    Type
REMARK                         _______ _______ _______ _____ _____    ______ ____
ROOT
ATOM      1  C   LIG    1       26.848 -22.080   6.989  0.00  0.00    +0.152 C 
ENDROOT
BRANCH   1   2
ATOM      2  C   LIG    1       25.866 -20.877   6.614  0.00  0.00    +0.034 C 
BRANCH   2   3
ATOM      3  C   LIG    1       24.616 -20.438   7.472  0.00  0.00    +0.006 C 
BRANCH   3   4
ATOM      4  C   LIG    1       23.204 -21.032   7.072  0.00  0.00    -0.011 C 
BRANCH   4   5
ATOM      5  C   LIG    1       22.928 -22.476   7.464  0.00  0.00    -0.000 C 
ATOM      6  C   LIG    1       22.351 -23.583   6.615  0.00  0.00    +0.004 C 
ENDBRANCH   4   5
BRANCH   4   7
ATOM      7  C   LIG    1       22.825 -20.738   5.603  0.00  0.00    +0.003 C 
BRANCH   7   8
ATOM      8  C   LIG    1       22.473 -19.341   5.026  0.00  0.00    -0.000 C 
BRANCH   8  10
ATOM      9  C   LIG    1       24.612 -19.310   3.623  0.00  0.00    +0.004 C 
ATOM     10  C   LIG    1       23.258 -18.706   3.846  0.00  0.00    -0.003 C 
ENDBRANCH   8  10
ENDBRANCH   7   8
ENDBRANCH   4   7
ENDBRANCH   3   4
ENDBRANCH   2   3
ENDBRANCH   1   2
BRANCH   1  11
ATOM     11  C   LIG    1       26.154 -23.518   7.341  0.00  0.00    +0.037 C 
BRANCH  11  12
ATOM     12  C   LIG    1       26.051 -24.668   6.250  0.00  0.00    -0.015 C 
ATOM     13  C   LIG    1       25.066 -24.612   5.022  0.00  0.00    +0.007 C 
ATOM     14  C   LIG    1       25.691 -25.983   6.936  0.00  0.00    +0.007 C 
ENDBRANCH  11  12
ENDBRANCH   1  11
BRANCH   1  15
ATOM     15  O   LIG    1       27.888 -21.805   7.984  0.00  0.00    -0.212 OA
BRANCH  15  16
ATOM     16  S   LIG    1       29.132 -20.830   7.577  0.00  0.00    +0.208 S 
ATOM     17  O   LIG    1       29.036 -19.717   8.575  0.00  0.00    -0.118 OA
ATOM     18  O   LIG    1       29.249 -20.662   6.168  0.00  0.00    -0.118 OA
BRANCH  16  19
ATOM     19  O   LIG    1       30.554 -21.312   8.108  0.00  0.00    -0.231 OA
ATOM     20  H   LIG    1       30.965 -21.586   7.243  0.00  0.00    +0.247 HD
ENDBRANCH  16  19
ENDBRANCH  15  16
ENDBRANCH   1  15
TORSDOF 12
ENDMDL
MODEL 6
REMARK VINA RESULT:      -7.1      3.438      5.677
REMARK  Name = *****
REMARK                            x       y       z     vdW  Elec       q    Type
REMARK                         _______ _______ _______ _____ _____    ______ ____
ROOT
ATOM      1  C   LIG    1       26.048 -21.184   7.257  0.00  0.00    +0.152 C 
ENDROOT
BRANCH   1   2
ATOM      2  C   LIG    1       25.899 -22.678   7.806  0.00  0.00    +0.034 C 
BRANCH   2   3
ATOM      3  C   LIG    1       26.071 -23.977   6.928  0.00  0.00    +0.006 C 
BRANCH   3   4
ATOM      4  C   LIG    1       24.872 -24.388   5.979  0.00  0.00    -0.011 C 
BRANCH   4   5
ATOM      5  C   LIG    1       23.492 -24.480   6.613  0.00  0.00    -0.000 C 
ATOM      6  C   LIG    1       22.449 -23.396   6.747  0.00  0.00    +0.004 C 
ENDBRANCH   4   5
BRANCH   4   7
ATOM      7  C   LIG    1       25.199 -25.616   5.098  0.00  0.00    +0.003 C 
BRANCH   7   8
ATOM      8  C   LIG    1       24.511 -27.003   5.198  0.00  0.00    -0.000 C 
BRANCH   8  10
ATOM      9  C   LIG    1       25.816 -27.712   7.281  0.00  0.00    +0.004 C 
ATOM     10  C   LIG    1       24.549 -27.860   6.493  0.00  0.00    -0.003 C 
ENDBRANCH   8  10
ENDBRANCH   7   8
ENDBRANCH   4   7
ENDBRANCH   3   4
ENDBRANCH   2   3
ENDBRANCH   1   2
BRANCH   1  11
ATOM     11  C   LIG    1       24.694 -20.470   6.682  0.00  0.00    +0.037 C 
BRANCH  11  12
ATOM     12  C   LIG    1       24.255 -20.648   5.166  0.00  0.00    -0.015 C 
ATOM     13  C   LIG    1       24.913 -19.858   3.973  0.00  0.00    +0.007 C 
ATOM     14  C   LIG    1       22.769 -20.323   5.031  0.00  0.00    +0.007 C 
ENDBRANCH  11  12
ENDBRANCH   1  11
BRANCH   1  15
ATOM     15  O   LIG    1       27.148 -20.924   6.325  0.00  0.00    -0.212 OA
BRANCH  15  16
ATOM     16  S   LIG    1       28.497 -20.192   6.879  0.00  0.00    +0.208 S 
ATOM     17  O   LIG    1       28.205 -19.993   8.335  0.00  0.00    -0.118 OA
ATOM     18  O   LIG    1       28.968 -19.184   5.991  0.00  0.00    -0.118 OA
BRANCH  16  19
ATOM     19  O   LIG    1       29.718 -21.174   7.159  0.00  0.00    -0.231 OA
ATOM     20  H   LIG    1       30.092 -21.234   6.238  0.00  0.00    +0.247 HD
ENDBRANCH  16  19
ENDBRANCH  15  16
ENDBRANCH   1  15
TORSDOF 12
ENDMDL
MODEL 7
REMARK VINA RESULT:      -7.0      4.543      7.279
REMARK  Name = *****
REMARK                            x       y       z     vdW  Elec       q    Type
REMARK                         _______ _______ _______ _____ _____    ______ ____
ROOT
ATOM      1  C   LIG    1       24.352 -23.925   6.395  0.00  0.00    +0.152 C 
ENDROOT
BRANCH   1   2
ATOM      2  C   LIG    1       25.771 -23.585   7.046  0.00  0.00    +0.034 C 
BRANCH   2   3
ATOM      3  C   LIG    1       26.015 -22.469   8.135  0.00  0.00    +0.006 C 
BRANCH   3   4
ATOM      4  C   LIG    1       26.990 -21.278   7.763  0.00  0.00    -0.011 C 
BRANCH   4   5
ATOM      5  C   LIG    1       26.512 -20.305   6.695  0.00  0.00    -0.000 C 
ATOM      6  C   LIG    1       27.204 -19.908   5.413  0.00  0.00    +0.004 C 
ENDBRANCH   4   5
BRANCH   4   7
ATOM      7  C   LIG    1       28.444 -21.746   7.525  0.00  0.00    +0.003 C 
BRANCH   7   8
ATOM      8  C   LIG    1       29.717 -21.013   8.021  0.00  0.00    -0.000 C 
BRANCH   8  10
ATOM      9  C   LIG    1       30.056 -18.484   7.820  0.00  0.00    +0.004 C 
ATOM     10  C   LIG    1       30.357 -19.834   7.238  0.00  0.00    -0.003 C 
ENDBRANCH   8  10
ENDBRANCH   7   8
ENDBRANCH   4   7
ENDBRANCH   3   4
ENDBRANCH   2   3
ENDBRANCH   1   2
BRANCH   1  11
ATOM     11  C   LIG    1       23.112 -22.924   6.765  0.00  0.00    +0.037 C 
BRANCH  11  12
ATOM     12  C   LIG    1       22.891 -21.565   5.972  0.00  0.00    -0.015 C 
ATOM     13  C   LIG    1       23.676 -21.190   4.659  0.00  0.00    +0.007 C 
ATOM     14  C   LIG    1       23.171 -20.389   6.904  0.00  0.00    +0.007 C 
ENDBRANCH  11  12
ENDBRANCH   1  11
BRANCH   1  15
ATOM     15  O   LIG    1       23.885 -25.309   6.501  0.00  0.00    -0.212 OA
BRANCH  15  16
ATOM     16  S   LIG    1       24.762 -26.494   5.801  0.00  0.00    +0.208 S 
ATOM     17  O   LIG    1       25.467 -27.129   6.960  0.00  0.00    -0.118 OA
ATOM     18  O   LIG    1       25.386 -26.065   4.596  0.00  0.00    -0.118 OA
BRANCH  16  19
ATOM     19  O   LIG    1       23.939 -27.813   5.455  0.00  0.00    -0.231 OA
ATOM     20  H   LIG    1       23.212 -27.731   6.131  0.00  0.00    +0.247 HD
ENDBRANCH  16  19
ENDBRANCH  15  16
ENDBRANCH   1  15
TORSDOF 12
ENDMDL
MODEL 8
REMARK VINA RESULT:      -7.0      3.724      7.110
REMARK  Name = *****
REMARK                            x       y       z     vdW  Elec       q    Type
REMARK                         _______ _______ _______ _____ _____    ______ ____
ROOT
ATOM      1  C   LIG    1       25.601 -21.799   6.898  0.00  0.00    +0.152 C 
ENDROOT
BRANCH   1   2
ATOM      2  C   LIG    1       26.905 -21.312   7.682  0.00  0.00    +0.034 C 
BRANCH   2   3
ATOM      3  C   LIG    1       27.926 -20.236   7.142  0.00  0.00    +0.006 C 
BRANCH   3   4
ATOM      4  C   LIG    1       29.470 -20.517   7.350  0.00  0.00    -0.011 C 
BRANCH   4   5
ATOM      5  C   LIG    1       29.853 -21.449   8.490  0.00  0.00    -0.000 C 
ATOM      6  C   LIG    1       31.234 -21.790   8.996  0.00  0.00    +0.004 C 
ENDBRANCH   4   5
BRANCH   4   7
ATOM      7  C   LIG    1       30.321 -19.227   7.332  0.00  0.00    +0.003 C 
BRANCH   7   8
ATOM      8  C   LIG    1       30.247 -18.085   8.379  0.00  0.00    -0.000 C 
BRANCH   8  10
ATOM      9  C   LIG    1       30.346 -17.461  10.859  0.00  0.00    +0.004 C 
ATOM     10  C   LIG    1       31.047 -18.122   9.709  0.00  0.00    -0.003 C 
ENDBRANCH   8  10
ENDBRANCH   7   8
ENDBRANCH   4   7
ENDBRANCH   3   4
ENDBRANCH   2   3
ENDBRANCH   1   2
BRANCH   1  11
ATOM     11  C   LIG    1       24.459 -20.670   6.589  0.00  0.00    +0.037 C 
BRANCH  11  12
ATOM     12  C   LIG    1       23.895 -20.454   5.120  0.00  0.00    -0.015 C 
ATOM     13  C   LIG    1       24.679 -19.680   3.995  0.00  0.00    +0.007 C 
ATOM     14  C   LIG    1       22.561 -19.717   5.196  0.00  0.00    +0.007 C 
ENDBRANCH  11  12
ENDBRANCH   1  11
BRANCH   1  15
ATOM     15  O   LIG    1       24.940 -23.010   7.392  0.00  0.00    -0.212 OA
BRANCH  15  16
ATOM     16  S   LIG    1       24.872 -24.323   6.425  0.00  0.00    +0.208 S 
ATOM     17  O   LIG    1       23.421 -24.694   6.454  0.00  0.00    -0.118 OA
ATOM     18  O   LIG    1       25.954 -25.219   6.653  0.00  0.00    -0.118 OA
BRANCH  16  19
ATOM     19  O   LIG    1       24.856 -23.999   4.866  0.00  0.00    -0.231 OA
ATOM     20  H   LIG    1       25.705 -23.481   4.801  0.00  0.00    +0.247 HD
ENDBRANCH  16  19
ENDBRANCH  15  16
ENDBRANCH   1  15
TORSDOF 12
ENDMDL
MODEL 9
REMARK VINA RESULT:      -6.9      2.841      4.845
REMARK  Name = *****
REMARK                            x       y       z     vdW  Elec       q    Type
REMARK                         _______ _______ _______ _____ _____    ______ ____
ROOT
ATOM      1  C   LIG    1       27.443 -20.033   6.415  0.00  0.00    +0.152 C 
ENDROOT
BRANCH   1   2
ATOM      2  C   LIG    1       26.319 -20.677   7.351  0.00  0.00    +0.034 C 
BRANCH   2   3
ATOM      3  C   LIG    1       25.673 -22.100   7.128  0.00  0.00    +0.006 C 
BRANCH   3   4
ATOM      4  C   LIG    1       24.200 -22.157   6.550  0.00  0.00    -0.011 C 
BRANCH   4   5
ATOM      5  C   LIG    1       23.300 -20.965   6.838  0.00  0.00    -0.000 C 
ATOM      6  C   LIG    1       22.629 -20.039   5.852  0.00  0.00    +0.004 C 
ENDBRANCH   4   5
BRANCH   4   7
ATOM      7  C   LIG    1       23.499 -23.506   6.830  0.00  0.00    +0.003 C 
BRANCH   7   8
ATOM      8  C   LIG    1       23.972 -24.890   6.314  0.00  0.00    -0.000 C 
BRANCH   8  10
ATOM      9  C   LIG    1       25.777 -26.326   5.206  0.00  0.00    +0.004 C 
ATOM     10  C   LIG    1       25.006 -25.041   5.165  0.00  0.00    -0.003 C 
ENDBRANCH   8  10
ENDBRANCH   7   8
ENDBRANCH   4   7
ENDBRANCH   3   4
ENDBRANCH   2   3
ENDBRANCH   1   2
BRANCH   1  11
ATOM     11  C   LIG    1       27.116 -19.953   4.815  0.00  0.00    +0.037 C 
BRANCH  11  12
ATOM     12  C   LIG    1       25.669 -19.555   4.293  0.00  0.00    -0.015 C 
ATOM     13  C   LIG    1       24.803 -20.474   3.353  0.00  0.00    +0.007 C 
ATOM     14  C   LIG    1       25.756 -18.239   3.524  0.00  0.00    +0.007 C 
ENDBRANCH  11  12
ENDBRANCH   1  11
BRANCH   1  15
ATOM     15  O   LIG    1       28.814 -20.521   6.590  0.00  0.00    -0.212 OA
BRANCH  15  16
ATOM     16  S   LIG    1       29.957 -19.487   7.126  0.00  0.00    +0.208 S 
ATOM     17  O   LIG    1       29.692 -19.418   8.599  0.00  0.00    -0.118 OA
ATOM     18  O   LIG    1       30.117 -18.364   6.266  0.00  0.00    -0.118 OA
BRANCH  16  19
ATOM     19  O   LIG    1       31.399 -20.135   7.319  0.00  0.00    -0.231 OA
ATOM     20  H   LIG    1       31.667 -20.221   6.363  0.00  0.00    +0.247 HD
ENDBRANCH  16  19
ENDBRANCH  15  16
ENDBRANCH   1  15
TORSDOF 12
ENDMDL
