MODEL 1
REMARK VINA RESULT:      -4.0      0.000      0.000
REMARK  Name = *****
REMARK                            x       y       z     vdW  Elec       q    Type
REMARK                         _______ _______ _______ _____ _____    ______ ____
ROOT
ATOM      1  C   LIG    1       28.370 -12.951   3.866  0.00  0.00    +0.058 C 
ATOM      2  C   LIG    1       27.237 -13.984   3.886  0.00  0.00    +0.220 C 
ENDROOT
BRANCH   2   3
ATOM      3  C   LIG    1       26.043 -13.527   4.771  0.00  0.00    +0.177 C 
BRANCH   3   4
ATOM      4  N   LIG    1       24.709 -13.248   4.008  0.00  0.00    +0.239 N 
ATOM      5  C   LIG    1       23.775 -14.448   4.220  0.00  0.00    +0.192 C 
ATOM      6  C   LIG    1       24.952 -13.112   2.511  0.00  0.00    +0.192 C 
ATOM      7  C   LIG    1       23.997 -12.008   4.529  0.00  0.00    +0.192 C 
ENDBRANCH   3   4
ENDBRANCH   2   3
BRANCH   2   8
ATOM      8  O   LIG    1       27.794 -15.282   4.201  0.00  0.00    -0.442 OA
BRANCH   8   9
ATOM      9  C   LIG    1       27.199 -16.371   3.694  0.00  0.00    +0.398 C 
ATOM     10  O   LIG    1       26.216 -16.361   2.959  0.00  0.00    -0.227 OA
ATOM     11  N   LIG    1       27.816 -17.486   4.137  0.00  0.00    -0.295 N 
ATOM     12  H   LIG    1       27.333 -18.373   4.033  0.00  0.00    +0.148 HD
ATOM     13  H   LIG    1       28.472 -17.403   4.914  0.00  0.00    +0.148 HD
ENDBRANCH   8   9
ENDBRANCH   2   8
TORSDOF 4
ENDMDL
MODEL 2
REMARK VINA RESULT:      -3.5      2.499      4.572
REMARK  Name = *****
REMARK                            x       y       z     vdW  Elec       q    Type
REMARK                         _______ _______ _______ _____ _____    ______ ____
ROOT
ATOM      1  C   LIG    1       23.469 -14.772   4.876  0.00  0.00    +0.058 C 
ATOM      2  C   LIG    1       24.431 -14.256   3.800  0.00  0.00    +0.220 C 
ENDROOT
BRANCH   2   3
ATOM      3  C   LIG    1       25.745 -13.693   4.409  0.00  0.00    +0.177 C 
BRANCH   3   4
ATOM      4  N   LIG    1       27.063 -14.152   3.707  0.00  0.00    +0.239 N 
ATOM      5  C   LIG    1       26.847 -14.083   2.189  0.00  0.00    +0.192 C 
ATOM      6  C   LIG    1       27.397 -15.596   4.059  0.00  0.00    +0.192 C 
ATOM      7  C   LIG    1       28.242 -13.253   4.050  0.00  0.00    +0.192 C 
ENDBRANCH   3   4
ENDBRANCH   2   3
BRANCH   2   8
ATOM      8  O   LIG    1       23.710 -13.361   2.920  0.00  0.00    -0.442 OA
BRANCH   8   9
ATOM      9  C   LIG    1       23.855 -12.040   3.097  0.00  0.00    +0.398 C 
ATOM     10  O   LIG    1       23.690 -11.448   4.159  0.00  0.00    -0.227 OA
ATOM     11  N   LIG    1       24.176 -11.447   1.929  0.00  0.00    -0.295 N 
ATOM     12  H   LIG    1       24.079 -10.439   1.861  0.00  0.00    +0.148 HD
ATOM     13  H   LIG    1       24.069 -11.982   1.066  0.00  0.00    +0.148 HD
ENDBRANCH   8   9
ENDBRANCH   2   8
TORSDOF 4
ENDMDL
MODEL 3
REMARK VINA RESULT:      -3.5      2.279      2.820
REMARK  Name = *****
REMARK                            x       y       z     vdW  Elec       q    Type
REMARK                         _______ _______ _______ _____ _____    ______ ____
ROOT
ATOM      1  C   LIG    1       26.829 -15.362   3.425  0.00  0.00    +0.058 C 
ATOM      2  C   LIG    1       26.467 -14.064   4.157  0.00  0.00    +0.220 C 
ENDROOT
BRANCH   2   3
ATOM      3  C   LIG    1       25.963 -12.963   3.183  0.00  0.00    +0.177 C 
BRANCH   3   4
ATOM      4  N   LIG    1       24.474 -12.529   3.371  0.00  0.00    +0.239 N 
ATOM      5  C   LIG    1       23.588 -13.772   3.209  0.00  0.00    +0.192 C 
ATOM      6  C   LIG    1       24.057 -11.525   2.305  0.00  0.00    +0.192 C 
ATOM      7  C   LIG    1       24.214 -11.950   4.754  0.00  0.00    +0.192 C 
ENDBRANCH   3   4
ENDBRANCH   2   3
BRANCH   2   8
ATOM      8  O   LIG    1       27.570 -13.689   5.016  0.00  0.00    -0.442 OA
BRANCH   8   9
ATOM      9  C   LIG    1       28.564 -12.956   4.493  0.00  0.00    +0.398 C 
ATOM     10  O   LIG    1       29.149 -13.206   3.444  0.00  0.00    -0.227 OA
ATOM     11  N   LIG    1       28.852 -11.918   5.305  0.00  0.00    -0.295 N 
ATOM     12  H   LIG    1       29.729 -11.427   5.162  0.00  0.00    +0.148 HD
ATOM     13  H   LIG    1       28.472 -11.921   6.253  0.00  0.00    +0.148 HD
ENDBRANCH   8   9
ENDBRANCH   2   8
TORSDOF 4
ENDMDL
MODEL 4
REMARK VINA RESULT:      -3.3      5.560      6.740
REMARK  Name = *****
REMARK                            x       y       z     vdW  Elec       q    Type
REMARK                         _______ _______ _______ _____ _____    ______ ____
ROOT
ATOM      1  C   LIG    1       25.258 -18.933   3.594  0.00  0.00    +0.058 C 
ATOM      2  C   LIG    1       25.373 -20.257   4.358  0.00  0.00    +0.220 C 
ENDROOT
BRANCH   2   3
ATOM      3  C   LIG    1       24.072 -21.102   4.266  0.00  0.00    +0.177 C 
BRANCH   3   4
ATOM      4  N   LIG    1       22.924 -20.676   5.235  0.00  0.00    +0.239 N 
ATOM      5  C   LIG    1       21.707 -21.571   4.960  0.00  0.00    +0.192 C 
ATOM      6  C   LIG    1       22.501 -19.234   4.983  0.00  0.00    +0.192 C 
ATOM      7  C   LIG    1       23.308 -20.852   6.697  0.00  0.00    +0.192 C 
ENDBRANCH   3   4
ENDBRANCH   2   3
BRANCH   2   8
ATOM      8  O   LIG    1       25.854 -19.983   5.696  0.00  0.00    -0.442 OA
BRANCH   8   9
ATOM      9  C   LIG    1       27.013 -20.535   6.082  0.00  0.00    +0.398 C 
ATOM     10  O   LIG    1       27.144 -21.326   7.010  0.00  0.00    -0.227 OA
ATOM     11  N   LIG    1       28.026 -20.069   5.322  0.00  0.00    -0.295 N 
ATOM     12  H   LIG    1       28.975 -20.210   5.651  0.00  0.00    +0.148 HD
ATOM     13  H   LIG    1       27.855 -19.254   4.732  0.00  0.00    +0.148 HD
ENDBRANCH   8   9
ENDBRANCH   2   8
TORSDOF 4
ENDMDL
MODEL 5
REMARK VINA RESULT:      -3.1      2.203      3.948
REMARK  Name = *****
REMARK                            x       y       z     vdW  Elec       q    Type
REMARK                         _______ _______ _______ _____ _____    ______ ____
ROOT
ATOM      1  C   LIG    1       24.536 -11.672   1.888  0.00  0.00    +0.058 C 
ATOM      2  C   LIG    1       25.068 -12.741   2.850  0.00  0.00    +0.220 C 
ENDROOT
BRANCH   2   3
ATOM      3  C   LIG    1       26.545 -13.119   2.548  0.00  0.00    +0.177 C 
BRANCH   3   4
ATOM      4  N   LIG    1       27.345 -13.719   3.748  0.00  0.00    +0.239 N 
ATOM      5  C   LIG    1       28.811 -13.286   3.611  0.00  0.00    +0.192 C 
ATOM      6  C   LIG    1       27.310 -15.241   3.723  0.00  0.00    +0.192 C 
ATOM      7  C   LIG    1       26.835 -13.214   5.089  0.00  0.00    +0.192 C 
ENDBRANCH   3   4
ENDBRANCH   2   3
BRANCH   2   8
ATOM      8  O   LIG    1       24.130 -13.842   2.889  0.00  0.00    -0.442 OA
BRANCH   8   9
ATOM      9  C   LIG    1       23.643 -14.223   4.079  0.00  0.00    +0.398 C 
ATOM     10  O   LIG    1       23.188 -15.333   4.333  0.00  0.00    -0.227 OA
ATOM     11  N   LIG    1       23.692 -13.194   4.952  0.00  0.00    -0.295 N 
ATOM     12  H   LIG    1       23.143 -13.262   5.802  0.00  0.00    +0.148 HD
ATOM     13  H   LIG    1       23.873 -12.257   4.589  0.00  0.00    +0.148 HD
ENDBRANCH   8   9
ENDBRANCH   2   8
TORSDOF 4
ENDMDL
MODEL 6
REMARK VINA RESULT:      -2.7      4.423      6.091
REMARK  Name = *****
REMARK                            x       y       z     vdW  Elec       q    Type
REMARK                         _______ _______ _______ _____ _____    ______ ____
ROOT
ATOM      1  C   LIG    1       26.556 -20.156   5.197  0.00  0.00    +0.058 C 
ATOM      2  C   LIG    1       25.354 -19.532   4.479  0.00  0.00    +0.220 C 
ENDROOT
BRANCH   2   3
ATOM      3  C   LIG    1       24.207 -20.557   4.257  0.00  0.00    +0.177 C 
BRANCH   3   4
ATOM      4  N   LIG    1       22.936 -20.344   5.139  0.00  0.00    +0.239 N 
ATOM      5  C   LIG    1       22.425 -18.916   4.907  0.00  0.00    +0.192 C 
ATOM      6  C   LIG    1       23.267 -20.480   6.620  0.00  0.00    +0.192 C 
ATOM      7  C   LIG    1       21.814 -21.304   4.773  0.00  0.00    +0.192 C 
ENDBRANCH   3   4
ENDBRANCH   2   3
BRANCH   2   8
ATOM      8  O   LIG    1       25.824 -18.846   3.294  0.00  0.00    -0.442 OA
BRANCH   8   9
ATOM      9  C   LIG    1       26.143 -17.547   3.395  0.00  0.00    +0.398 C 
ATOM     10  O   LIG    1       25.384 -16.613   3.157  0.00  0.00    -0.227 OA
ATOM     11  N   LIG    1       27.434 -17.413   3.764  0.00  0.00    -0.295 N 
ATOM     12  H   LIG    1       27.874 -16.506   3.645  0.00  0.00    +0.148 HD
ATOM     13  H   LIG    1       28.040 -18.233   3.719  0.00  0.00    +0.148 HD
ENDBRANCH   8   9
ENDBRANCH   2   8
TORSDOF 4
ENDMDL
MODEL 7
REMARK VINA RESULT:      -2.6      5.921      6.717
REMARK  Name = *****
REMARK                            x       y       z     vdW  Elec       q    Type
REMARK                         _______ _______ _______ _____ _____    ______ ____
ROOT
ATOM      1  C   LIG    1       26.608 -19.693   4.774  0.00  0.00    +0.058 C 
ATOM      2  C   LIG    1       26.175 -20.585   5.943  0.00  0.00    +0.220 C 
ENDROOT
BRANCH   2   3
ATOM      3  C   LIG    1       24.661 -20.436   6.265  0.00  0.00    +0.177 C 
BRANCH   3   4
ATOM      4  N   LIG    1       23.694 -20.633   5.054  0.00  0.00    +0.239 N 
ATOM      5  C   LIG    1       22.403 -21.282   5.572  0.00  0.00    +0.192 C 
ATOM      6  C   LIG    1       24.297 -21.572   4.018  0.00  0.00    +0.192 C 
ATOM      7  C   LIG    1       23.319 -19.313   4.397  0.00  0.00    +0.192 C 
ENDBRANCH   3   4
ENDBRANCH   2   3
BRANCH   2   8
ATOM      8  O   LIG    1       27.079 -20.372   7.053  0.00  0.00    -0.442 OA
BRANCH   8   9
ATOM      9  C   LIG    1       28.378 -20.172   6.786  0.00  0.00    +0.398 C 
ATOM     10  O   LIG    1       28.903 -19.076   6.617  0.00  0.00    -0.227 OA
ATOM     11  N   LIG    1       29.021 -21.355   6.697  0.00  0.00    -0.295 N 
ATOM     12  H   LIG    1       29.941 -21.368   6.267  0.00  0.00    +0.148 HD
ATOM     13  H   LIG    1       28.465 -22.208   6.628  0.00  0.00    +0.148 HD
ENDBRANCH   8   9
ENDBRANCH   2   8
TORSDOF 4
ENDMDL
MODEL 8
REMARK VINA RESULT:      -2.5      5.305      6.720
REMARK  Name = *****
REMARK                            x       y       z     vdW  Elec       q    Type
REMARK                         _______ _______ _______ _____ _____    ______ ____
ROOT
ATOM      1  C   LIG    1       24.515 -20.882   7.061  0.00  0.00    +0.058 C 
ATOM      2  C   LIG    1       25.594 -20.661   5.995  0.00  0.00    +0.220 C 
ENDROOT
BRANCH   2   3
ATOM      3  C   LIG    1       25.106 -21.060   4.575  0.00  0.00    +0.177 C 
BRANCH   3   4
ATOM      4  N   LIG    1       24.436 -19.916   3.749  0.00  0.00    +0.239 N 
ATOM      5  C   LIG    1       25.369 -18.697   3.772  0.00  0.00    +0.192 C 
ATOM      6  C   LIG    1       23.112 -19.493   4.373  0.00  0.00    +0.192 C 
ATOM      7  C   LIG    1       24.218 -20.307   2.295  0.00  0.00    +0.192 C 
ENDBRANCH   3   4
ENDBRANCH   2   3
BRANCH   2   8
ATOM      8  O   LIG    1       26.822 -21.287   6.438  0.00  0.00    -0.442 OA
BRANCH   8   9
ATOM      9  C   LIG    1       27.958 -20.577   6.375  0.00  0.00    +0.398 C 
ATOM     10  O   LIG    1       28.067 -19.464   5.870  0.00  0.00    -0.227 OA
ATOM     11  N   LIG    1       28.975 -21.278   6.916  0.00  0.00    -0.295 N 
ATOM     12  H   LIG    1       29.924 -20.973   6.722  0.00  0.00    +0.148 HD
ATOM     13  H   LIG    1       28.837 -22.272   7.102  0.00  0.00    +0.148 HD
ENDBRANCH   8   9
ENDBRANCH   2   8
TORSDOF 4
ENDMDL
MODEL 9
REMARK VINA RESULT:      -2.5      5.026      5.958
REMARK  Name = *****
REMARK                            x       y       z     vdW  Elec       q    Type
REMARK                         _______ _______ _______ _____ _____    ______ ____
ROOT
ATOM      1  C   LIG    1       24.263 -21.433   3.320  0.00  0.00    +0.058 C 
ATOM      2  C   LIG    1       24.519 -20.151   4.122  0.00  0.00    +0.220 C 
ENDROOT
BRANCH   2   3
ATOM      3  C   LIG    1       23.706 -18.945   3.576  0.00  0.00    +0.177 C 
BRANCH   3   4
ATOM      4  N   LIG    1       22.430 -18.568   4.394  0.00  0.00    +0.239 N 
ATOM      5  C   LIG    1       22.420 -19.407   5.680  0.00  0.00    +0.192 C 
ATOM      6  C   LIG    1       21.163 -18.902   3.618  0.00  0.00    +0.192 C 
ATOM      7  C   LIG    1       22.416 -17.101   4.797  0.00  0.00    +0.192 C 
ENDBRANCH   3   4
ENDBRANCH   2   3
BRANCH   2   8
ATOM      8  O   LIG    1       25.948 -19.950   4.234  0.00  0.00    -0.442 OA
BRANCH   8   9
ATOM      9  C   LIG    1       26.532 -20.171   5.421  0.00  0.00    +0.398 C 
ATOM     10  O   LIG    1       25.936 -20.396   6.470  0.00  0.00    -0.227 OA
ATOM     11  N   LIG    1       27.873 -20.076   5.305  0.00  0.00    -0.295 N 
ATOM     12  H   LIG    1       28.421 -19.980   6.153  0.00  0.00    +0.148 HD
ATOM     13  H   LIG    1       28.259 -19.667   4.453  0.00  0.00    +0.148 HD
ENDBRANCH   8   9
ENDBRANCH   2   8
TORSDOF 4
ENDMDL
