MODEL 1
REMARK VINA RESULT:      -3.9      0.000      0.000
REMARK  Name = *****
REMARK                            x       y       z     vdW  Elec       q    Type
REMARK                         _______ _______ _______ _____ _____    ______ ____
ROOT
ATOM      1  S   LIG    1       23.740 -20.336   4.787  0.00  0.00    +0.074 S 
ATOM      2  O   LIG    1       23.422 -21.550   4.050  0.00  0.00    -0.150 OA
ATOM      3  O   LIG    1       22.876 -19.871   5.847  0.00  0.00    -0.150 OA
ENDROOT
BRANCH   1   4
ATOM      4  C   LIG    1       25.379 -20.498   5.431  0.00  0.00    +0.109 A 
ATOM      5  C   LIG    1       25.614 -21.330   6.526  0.00  0.00    +0.030 A 
ATOM      6  C   LIG    1       26.905 -21.435   7.048  0.00  0.00    +0.024 A 
ATOM      7  C   LIG    1       27.975 -20.759   6.452  0.00  0.00    +0.025 A 
ATOM      8  C   LIG    1       27.715 -19.897   5.382  0.00  0.00    +0.024 A 
ATOM      9  C   LIG    1       26.427 -19.777   4.855  0.00  0.00    +0.030 A 
BRANCH   7  10
ATOM     10  N   LIG    1       29.235 -20.761   7.061  0.00  0.00    -0.358 N 
ATOM     11  H   LIG    1       29.933 -20.219   6.561  0.00  0.00    +0.142 HD
ATOM     12  H   LIG    1       29.213 -20.537   8.051  0.00  0.00    +0.142 HD
ENDBRANCH   7  10
ENDBRANCH   1   4
BRANCH   1  13
ATOM     13  N   LIG    1       23.916 -19.157   3.579  0.00  0.00    -0.197 N 
ATOM     14  H   LIG    1       23.403 -19.509   2.771  0.00  0.00    +0.175 HD
BRANCH  13  19
ATOM     15  C   LIG    1       23.886 -14.227   4.330  0.00  0.00    +0.089 C 
ATOM     16  C   LIG    1       23.689 -15.684   4.254  0.00  0.00    +0.136 A 
ATOM     17  O   LIG    1       22.496 -16.157   4.706  0.00  0.00    -0.358 OA
ATOM     18  N   LIG    1       22.446 -17.527   4.517  0.00  0.00    -0.062 NA
ATOM     19  C   LIG    1       23.608 -17.853   3.946  0.00  0.00    +0.181 A 
ATOM     20  C   LIG    1       24.450 -16.733   3.799  0.00  0.00    +0.092 A 
ENDBRANCH  13  19
ENDBRANCH   1  13
TORSDOF 4
ENDMDL
MODEL 2
REMARK VINA RESULT:      -3.8      2.009      5.360
REMARK  Name = *****
REMARK                            x       y       z     vdW  Elec       q    Type
REMARK                         _______ _______ _______ _____ _____    ______ ____
ROOT
ATOM      1  S   LIG    1       22.678 -18.618   4.319  0.00  0.00    +0.074 S 
ATOM      2  O   LIG    1       22.515 -18.826   5.749  0.00  0.00    -0.150 OA
ATOM      3  O   LIG    1       21.528 -18.576   3.446  0.00  0.00    -0.150 OA
ENDROOT
BRANCH   1   4
ATOM      4  C   LIG    1       23.615 -17.137   4.082  0.00  0.00    +0.109 A 
ATOM      5  C   LIG    1       24.898 -17.210   3.537  0.00  0.00    +0.030 A 
ATOM      6  C   LIG    1       25.645 -16.041   3.376  0.00  0.00    +0.024 A 
ATOM      7  C   LIG    1       25.103 -14.793   3.701  0.00  0.00    +0.025 A 
ATOM      8  C   LIG    1       23.832 -14.743   4.284  0.00  0.00    +0.024 A 
ATOM      9  C   LIG    1       23.077 -15.905   4.459  0.00  0.00    +0.030 A 
BRANCH   7  10
ATOM     10  N   LIG    1       25.904 -13.647   3.665  0.00  0.00    -0.358 N 
ATOM     11  H   LIG    1       25.939 -13.200   2.753  0.00  0.00    +0.142 HD
ATOM     12  H   LIG    1       25.707 -12.984   4.408  0.00  0.00    +0.142 HD
ENDBRANCH   7  10
ENDBRANCH   1   4
BRANCH   1  13
ATOM     13  N   LIG    1       23.760 -19.838   3.847  0.00  0.00    -0.197 N 
ATOM     14  H   LIG    1       24.274 -19.459   3.051  0.00  0.00    +0.175 HD
BRANCH  13  19
ATOM     15  C   LIG    1       27.412 -20.933   7.061  0.00  0.00    +0.089 C 
ATOM     16  C   LIG    1       26.217 -20.811   6.209  0.00  0.00    +0.136 A 
ATOM     17  O   LIG    1       25.146 -21.572   6.559  0.00  0.00    -0.358 OA
ATOM     18  N   LIG    1       24.095 -21.304   5.700  0.00  0.00    -0.062 NA
ATOM     19  C   LIG    1       24.551 -20.379   4.852  0.00  0.00    +0.181 A 
ATOM     20  C   LIG    1       25.901 -20.065   5.100  0.00  0.00    +0.092 A 
ENDBRANCH  13  19
ENDBRANCH   1  13
TORSDOF 4
ENDMDL
MODEL 3
REMARK VINA RESULT:      -3.7      2.021      5.428
REMARK  Name = *****
REMARK                            x       y       z     vdW  Elec       q    Type
REMARK                         _______ _______ _______ _____ _____    ______ ____
ROOT
ATOM      1  S   LIG    1       22.615 -18.322   4.215  0.00  0.00    +0.074 S 
ATOM      2  O   LIG    1       22.408 -18.595   5.629  0.00  0.00    -0.150 OA
ATOM      3  O   LIG    1       21.491 -18.213   3.314  0.00  0.00    -0.150 OA
ENDROOT
BRANCH   1   4
ATOM      4  C   LIG    1       23.588 -16.853   4.075  0.00  0.00    +0.109 A 
ATOM      5  C   LIG    1       23.058 -15.630   4.487  0.00  0.00    +0.030 A 
ATOM      6  C   LIG    1       23.821 -14.467   4.351  0.00  0.00    +0.024 A 
ATOM      7  C   LIG    1       25.129 -14.522   3.859  0.00  0.00    +0.025 A 
ATOM      8  C   LIG    1       25.629 -15.749   3.412  0.00  0.00    +0.024 A 
ATOM      9  C   LIG    1       24.875 -16.919   3.535  0.00  0.00    +0.030 A 
BRANCH   7  10
ATOM     10  N   LIG    1       25.833 -13.341   3.599  0.00  0.00    -0.358 N 
ATOM     11  H   LIG    1       26.483 -13.414   2.822  0.00  0.00    +0.142 HD
ATOM     12  H   LIG    1       25.243 -12.518   3.527  0.00  0.00    +0.142 HD
ENDBRANCH   7  10
ENDBRANCH   1   4
BRANCH   1  13
ATOM     13  N   LIG    1       23.685 -19.541   3.713  0.00  0.00    -0.197 N 
ATOM     14  H   LIG    1       24.283 -19.111   3.008  0.00  0.00    +0.175 HD
BRANCH  13  19
ATOM     15  C   LIG    1       27.014 -21.174   7.048  0.00  0.00    +0.089 C 
ATOM     16  C   LIG    1       25.892 -20.888   6.138  0.00  0.00    +0.136 A 
ATOM     17  O   LIG    1       24.738 -21.571   6.369  0.00  0.00    -0.358 OA
ATOM     18  N   LIG    1       23.772 -21.153   5.471  0.00  0.00    -0.062 NA
ATOM     19  C   LIG    1       24.360 -20.218   4.721  0.00  0.00    +0.181 A 
ATOM     20  C   LIG    1       25.713 -20.044   5.070  0.00  0.00    +0.092 A 
ENDBRANCH  13  19
ENDBRANCH   1  13
TORSDOF 4
ENDMDL
MODEL 4
REMARK VINA RESULT:      -3.3      2.272      5.487
REMARK  Name = *****
REMARK                            x       y       z     vdW  Elec       q    Type
REMARK                         _______ _______ _______ _____ _____    ______ ____
ROOT
ATOM      1  S   LIG    1       24.317 -19.637   3.734  0.00  0.00    +0.074 S 
ATOM      2  O   LIG    1       22.924 -19.855   3.375  0.00  0.00    -0.150 OA
ATOM      3  O   LIG    1       25.377 -20.291   3.000  0.00  0.00    -0.150 OA
ENDROOT
BRANCH   1   4
ATOM      4  C   LIG    1       24.623 -17.896   3.724  0.00  0.00    +0.109 A 
ATOM      5  C   LIG    1       25.867 -17.413   3.317  0.00  0.00    +0.030 A 
ATOM      6  C   LIG    1       26.112 -16.038   3.337  0.00  0.00    +0.024 A 
ATOM      7  C   LIG    1       25.109 -15.136   3.705  0.00  0.00    +0.025 A 
ATOM      8  C   LIG    1       23.882 -15.639   4.150  0.00  0.00    +0.024 A 
ATOM      9  C   LIG    1       23.625 -17.012   4.144  0.00  0.00    +0.030 A 
BRANCH   7  10
ATOM     10  N   LIG    1       25.405 -13.777   3.852  0.00  0.00    -0.358 N 
ATOM     11  H   LIG    1       24.584 -13.179   3.878  0.00  0.00    +0.142 HD
ATOM     12  H   LIG    1       26.048 -13.576   4.611  0.00  0.00    +0.142 HD
ENDBRANCH   7  10
ENDBRANCH   1   4
BRANCH   1  13
ATOM     13  N   LIG    1       24.383 -20.030   5.384  0.00  0.00    -0.197 N 
ATOM     14  H   LIG    1       23.621 -20.690   5.541  0.00  0.00    +0.175 HD
BRANCH  13  19
ATOM     15  C   LIG    1       29.205 -20.441   6.585  0.00  0.00    +0.089 C 
ATOM     16  C   LIG    1       27.759 -20.550   6.331  0.00  0.00    +0.136 A 
ATOM     17  O   LIG    1       27.111 -21.571   6.954  0.00  0.00    -0.358 OA
ATOM     18  N   LIG    1       25.761 -21.503   6.659  0.00  0.00    -0.062 NA
ATOM     19  C   LIG    1       25.619 -20.436   5.869  0.00  0.00    +0.181 A 
ATOM     20  C   LIG    1       26.857 -19.824   5.592  0.00  0.00    +0.092 A 
ENDBRANCH  13  19
ENDBRANCH   1  13
TORSDOF 4
ENDMDL
MODEL 5
REMARK VINA RESULT:      -3.1      2.809      3.278
REMARK  Name = *****
REMARK                            x       y       z     vdW  Elec       q    Type
REMARK                         _______ _______ _______ _____ _____    ______ ____
ROOT
ATOM      1  S   LIG    1       25.893 -17.782   3.537  0.00  0.00    +0.074 S 
ATOM      2  O   LIG    1       26.072 -18.251   2.172  0.00  0.00    -0.150 OA
ATOM      3  O   LIG    1       24.569 -17.573   4.076  0.00  0.00    -0.150 OA
ENDROOT
BRANCH   1   4
ATOM      4  C   LIG    1       26.769 -18.877   4.614  0.00  0.00    +0.109 A 
ATOM      5  C   LIG    1       28.101 -18.614   4.934  0.00  0.00    +0.030 A 
ATOM      6  C   LIG    1       28.797 -19.496   5.764  0.00  0.00    +0.024 A 
ATOM      7  C   LIG    1       28.159 -20.608   6.324  0.00  0.00    +0.025 A 
ATOM      8  C   LIG    1       26.836 -20.879   5.959  0.00  0.00    +0.024 A 
ATOM      9  C   LIG    1       26.130 -20.010   5.124  0.00  0.00    +0.030 A 
BRANCH   7  10
ATOM     10  N   LIG    1       28.898 -21.555   7.040  0.00  0.00    -0.358 N 
ATOM     11  H   LIG    1       28.593 -21.671   8.003  0.00  0.00    +0.142 HD
ATOM     12  H   LIG    1       28.998 -22.445   6.562  0.00  0.00    +0.142 HD
ENDBRANCH   7  10
ENDBRANCH   1   4
BRANCH   1  13
ATOM     13  N   LIG    1       26.813 -16.357   3.606  0.00  0.00    -0.197 N 
ATOM     14  H   LIG    1       27.678 -16.562   3.106  0.00  0.00    +0.175 HD
BRANCH  13  19
ATOM     15  C   LIG    1       23.935 -12.297   3.278  0.00  0.00    +0.089 C 
ATOM     16  C   LIG    1       24.850 -13.442   3.138  0.00  0.00    +0.136 A 
ATOM     17  O   LIG    1       25.672 -13.428   2.054  0.00  0.00    -0.358 OA
ATOM     18  N   LIG    1       26.502 -14.536   2.095  0.00  0.00    -0.062 NA
ATOM     19  C   LIG    1       26.169 -15.191   3.210  0.00  0.00    +0.181 A 
ATOM     20  C   LIG    1       25.100 -14.569   3.882  0.00  0.00    +0.092 A 
ENDBRANCH  13  19
ENDBRANCH   1  13
TORSDOF 4
ENDMDL
MODEL 6
REMARK VINA RESULT:      -3.0      1.745      2.159
REMARK  Name = *****
REMARK                            x       y       z     vdW  Elec       q    Type
REMARK                         _______ _______ _______ _____ _____    ______ ____
ROOT
ATOM      1  S   LIG    1       24.679 -19.331   3.946  0.00  0.00    +0.074 S 
ATOM      2  O   LIG    1       24.255 -20.440   3.106  0.00  0.00    -0.150 OA
ATOM      3  O   LIG    1       23.740 -18.674   4.826  0.00  0.00    -0.150 OA
ENDROOT
BRANCH   1   4
ATOM      4  C   LIG    1       26.064 -19.866   4.906  0.00  0.00    +0.109 A 
ATOM      5  C   LIG    1       27.298 -19.232   4.753  0.00  0.00    +0.030 A 
ATOM      6  C   LIG    1       28.396 -19.675   5.494  0.00  0.00    +0.024 A 
ATOM      7  C   LIG    1       28.261 -20.709   6.427  0.00  0.00    +0.025 A 
ATOM      8  C   LIG    1       27.028 -21.361   6.536  0.00  0.00    +0.024 A 
ATOM      9  C   LIG    1       25.924 -20.933   5.796  0.00  0.00    +0.030 A 
BRANCH   7  10
ATOM     10  N   LIG    1       29.391 -21.235   7.062  0.00  0.00    -0.358 N 
ATOM     11  H   LIG    1       29.261 -21.406   8.054  0.00  0.00    +0.142 HD
ATOM     12  H   LIG    1       29.795 -22.035   6.585  0.00  0.00    +0.142 HD
ENDBRANCH   7  10
ENDBRANCH   1   4
BRANCH   1  13
ATOM     13  N   LIG    1       25.369 -18.229   2.855  0.00  0.00    -0.197 N 
ATOM     14  H   LIG    1       24.860 -18.351   1.980  0.00  0.00    +0.175 HD
BRANCH  13  19
ATOM     15  C   LIG    1       26.927 -13.653   4.083  0.00  0.00    +0.089 C 
ATOM     16  C   LIG    1       26.250 -14.936   3.829  0.00  0.00    +0.136 A 
ATOM     17  O   LIG    1       24.904 -14.957   4.023  0.00  0.00    -0.358 OA
ATOM     18  N   LIG    1       24.414 -16.208   3.691  0.00  0.00    -0.062 NA
ATOM     19  C   LIG    1       25.474 -16.915   3.294  0.00  0.00    +0.181 A 
ATOM     20  C   LIG    1       26.666 -16.174   3.405  0.00  0.00    +0.092 A 
ENDBRANCH  13  19
ENDBRANCH   1  13
TORSDOF 4
ENDMDL
MODEL 7
REMARK VINA RESULT:      -3.0      4.007      6.192
REMARK  Name = *****
REMARK                            x       y       z     vdW  Elec       q    Type
REMARK                         _______ _______ _______ _____ _____    ______ ____
ROOT
ATOM      1  S   LIG    1       25.476 -15.205   3.202  0.00  0.00    +0.074 S 
ATOM      2  O   LIG    1       24.338 -15.291   4.103  0.00  0.00    -0.150 OA
ATOM      3  O   LIG    1       25.298 -14.798   1.827  0.00  0.00    -0.150 OA
ENDROOT
BRANCH   1   4
ATOM      4  C   LIG    1       26.688 -14.153   3.944  0.00  0.00    +0.109 A 
ATOM      5  C   LIG    1       26.525 -13.735   5.265  0.00  0.00    +0.030 A 
ATOM      6  C   LIG    1       27.471 -12.882   5.839  0.00  0.00    +0.024 A 
ATOM      7  C   LIG    1       28.607 -12.487   5.125  0.00  0.00    +0.025 A 
ATOM      8  C   LIG    1       28.733 -12.881   3.789  0.00  0.00    +0.024 A 
ATOM      9  C   LIG    1       27.790 -13.728   3.199  0.00  0.00    +0.030 A 
BRANCH   7  10
ATOM     10  N   LIG    1       29.475 -11.528   5.658  0.00  0.00    -0.358 N 
ATOM     11  H   LIG    1       29.605 -11.606   6.663  0.00  0.00    +0.142 HD
ATOM     12  H   LIG    1       30.357 -11.452   5.163  0.00  0.00    +0.142 HD
ENDBRANCH   7  10
ENDBRANCH   1   4
BRANCH   1  13
ATOM     13  N   LIG    1       26.192 -16.742   3.296  0.00  0.00    -0.197 N 
ATOM     14  H   LIG    1       26.941 -16.656   3.983  0.00  0.00    +0.175 HD
BRANCH  13  19
ATOM     15  C   LIG    1       24.147 -21.208   4.155  0.00  0.00    +0.089 C 
ATOM     16  C   LIG    1       24.514 -19.813   3.860  0.00  0.00    +0.136 A 
ATOM     17  O   LIG    1       23.493 -18.917   3.814  0.00  0.00    -0.358 OA
ATOM     18  N   LIG    1       24.004 -17.652   3.581  0.00  0.00    -0.062 NA
ATOM     19  C   LIG    1       25.328 -17.810   3.501  0.00  0.00    +0.181 A 
ATOM     20  C   LIG    1       25.700 -19.162   3.624  0.00  0.00    +0.092 A 
ENDBRANCH  13  19
ENDBRANCH   1  13
TORSDOF 4
ENDMDL
MODEL 8
REMARK VINA RESULT:      -2.7      3.684      6.084
REMARK  Name = *****
REMARK                            x       y       z     vdW  Elec       q    Type
REMARK                         _______ _______ _______ _____ _____    ______ ____
ROOT
ATOM      1  S   LIG    1       24.260 -14.647   3.982  0.00  0.00    +0.074 S 
ATOM      2  O   LIG    1       23.606 -14.738   5.278  0.00  0.00    -0.150 OA
ATOM      3  O   LIG    1       23.594 -14.020   2.864  0.00  0.00    -0.150 OA
ENDROOT
BRANCH   1   4
ATOM      4  C   LIG    1       25.829 -13.864   4.210  0.00  0.00    +0.109 A 
ATOM      5  C   LIG    1       26.305 -13.633   5.501  0.00  0.00    +0.030 A 
ATOM      6  C   LIG    1       27.533 -12.990   5.677  0.00  0.00    +0.024 A 
ATOM      7  C   LIG    1       28.316 -12.626   4.577  0.00  0.00    +0.025 A 
ATOM      8  C   LIG    1       27.804 -12.827   3.290  0.00  0.00    +0.024 A 
ATOM      9  C   LIG    1       26.574 -13.462   3.099  0.00  0.00    +0.030 A 
BRANCH   7  10
ATOM     10  N   LIG    1       29.474 -11.863   4.759  0.00  0.00    -0.358 N 
ATOM     11  H   LIG    1       29.298 -10.867   4.856  0.00  0.00    +0.142 HD
ATOM     12  H   LIG    1       30.088 -12.215   5.486  0.00  0.00    +0.142 HD
ENDBRANCH   7  10
ENDBRANCH   1   4
BRANCH   1  13
ATOM     13  N   LIG    1       24.681 -16.252   3.621  0.00  0.00    -0.197 N 
ATOM     14  H   LIG    1       25.614 -16.388   4.011  0.00  0.00    +0.175 HD
BRANCH  13  19
ATOM     15  C   LIG    1       22.308 -20.501   4.710  0.00  0.00    +0.089 C 
ATOM     16  C   LIG    1       22.781 -19.139   4.409  0.00  0.00    +0.136 A 
ATOM     17  O   LIG    1       21.907 -18.127   4.657  0.00  0.00    -0.358 OA
ATOM     18  N   LIG    1       22.517 -16.917   4.376  0.00  0.00    -0.062 NA
ATOM     19  C   LIG    1       23.752 -17.223   3.971  0.00  0.00    +0.181 A 
ATOM     20  C   LIG    1       23.956 -18.616   3.929  0.00  0.00    +0.092 A 
ENDBRANCH  13  19
ENDBRANCH   1  13
TORSDOF 4
ENDMDL
MODEL 9
REMARK VINA RESULT:      -2.6      4.028      5.351
REMARK  Name = *****
REMARK                            x       y       z     vdW  Elec       q    Type
REMARK                         _______ _______ _______ _____ _____    ______ ____
ROOT
ATOM      1  S   LIG    1       23.972 -14.970   3.938  0.00  0.00    +0.074 S 
ATOM      2  O   LIG    1       22.833 -14.348   3.281  0.00  0.00    -0.150 OA
ATOM      3  O   LIG    1       24.427 -14.499   5.226  0.00  0.00    -0.150 OA
ENDROOT
BRANCH   1   4
ATOM      4  C   LIG    1       23.658 -16.706   4.057  0.00  0.00    +0.109 A 
ATOM      5  C   LIG    1       22.445 -17.156   4.580  0.00  0.00    +0.030 A 
ATOM      6  C   LIG    1       22.212 -18.529   4.697  0.00  0.00    +0.024 A 
ATOM      7  C   LIG    1       23.155 -19.457   4.243  0.00  0.00    +0.025 A 
ATOM      8  C   LIG    1       24.381 -18.989   3.760  0.00  0.00    +0.024 A 
ATOM      9  C   LIG    1       24.632 -17.619   3.645  0.00  0.00    +0.030 A 
BRANCH   7  10
ATOM     10  N   LIG    1       22.972 -20.822   4.487  0.00  0.00    -0.358 N 
ATOM     11  H   LIG    1       23.831 -21.363   4.455  0.00  0.00    +0.142 HD
ATOM     12  H   LIG    1       22.426 -21.021   5.320  0.00  0.00    +0.142 HD
ENDBRANCH   7  10
ENDBRANCH   1   4
BRANCH   1  13
ATOM     13  N   LIG    1       25.212 -14.882   2.782  0.00  0.00    -0.197 N 
ATOM     14  H   LIG    1       24.827 -14.346   2.005  0.00  0.00    +0.175 HD
BRANCH  13  19
ATOM     15  C   LIG    1       29.183 -12.198   4.161  0.00  0.00    +0.089 C 
ATOM     16  C   LIG    1       28.157 -13.191   3.798  0.00  0.00    +0.136 A 
ATOM     17  O   LIG    1       28.421 -14.482   4.134  0.00  0.00    -0.358 OA
ATOM     18  N   LIG    1       27.345 -15.276   3.777  0.00  0.00    -0.062 NA
ATOM     19  C   LIG    1       26.448 -14.445   3.241  0.00  0.00    +0.181 A 
ATOM     20  C   LIG    1       26.929 -13.123   3.187  0.00  0.00    +0.092 A 
ENDBRANCH  13  19
ENDBRANCH   1  13
TORSDOF 4
ENDMDL
