MODEL 1
REMARK VINA RESULT:       1.3      0.000      0.000
REMARK  Name = *****
REMARK                            x       y       z     vdW  Elec       q    Type
REMARK                         _______ _______ _______ _____ _____    ______ ____
ROOT
ATOM      1  O   LIG    1       22.767 -20.725   3.132  0.00  0.00    -0.273 OA
ATOM      2  C   LIG    1       23.659 -19.883   3.179  0.00  0.00    +0.241 C 
ATOM      3  N   LIG    1       23.511 -18.679   3.913  0.00  0.00    -0.261 N 
ATOM      4  C   LIG    1       24.433 -17.591   3.771  0.00  0.00    +0.046 A 
ATOM      5  C   LIG    1       25.822 -17.807   3.636  0.00  0.00    +0.023 A 
ATOM      6  C   LIG    1       26.701 -16.763   3.308  0.00  0.00    +0.032 A 
ATOM      7  C   LIG    1       26.239 -15.457   3.321  0.00  0.00    +0.042 A 
ATOM      8  C   LIG    1       24.895 -15.200   3.562  0.00  0.00    +0.022 A 
ATOM      9 CL   LIG    1       27.344 -14.160   3.100  0.00  0.00    -0.084 Cl
ATOM     10  C   LIG    1       26.423 -19.133   3.954  0.00  0.00    +0.075 C 
ATOM     11  N   LIG    1       26.057 -20.215   3.345  0.00  0.00    -0.273 NA
ATOM     12  C   LIG    1       23.992 -16.262   3.719  0.00  0.00    +0.026 A 
ATOM     13  C   LIG    1       24.954 -20.090   2.389  0.00  0.00    +0.238 C 
ENDROOT
BRANCH  10  14
ATOM     14  C   LIG    1       27.460 -19.231   5.052  0.00  0.00    +0.001 A 
ATOM     15  C   LIG    1       28.472 -18.266   5.129  0.00  0.00    +0.010 A 
ATOM     16  C   LIG    1       29.456 -18.338   6.122  0.00  0.00    +0.001 A 
ATOM     17  C   LIG    1       29.429 -19.367   7.062  0.00  0.00    +0.000 A 
ATOM     18  C   LIG    1       28.442 -20.340   6.991  0.00  0.00    +0.001 A 
ATOM     19  C   LIG    1       27.483 -20.287   5.978  0.00  0.00    +0.010 A 
ENDBRANCH  10  14
BRANCH   3  20
ATOM     20  C   LIG    1       22.212 -18.580   4.605  0.00  0.00    +0.226 C 
BRANCH  20  21
ATOM     21  C   LIG    1       20.857 -18.399   3.909  0.00  0.00    +0.406 C 
ATOM     22  F   LIG    1       20.170 -17.363   4.449  0.00  0.00    -0.169 F 
ATOM     23  F   LIG    1       20.097 -19.510   4.091  0.00  0.00    -0.169 F 
ATOM     24  F   LIG    1       20.916 -18.170   2.585  0.00  0.00    -0.169 F 
ENDBRANCH  20  21
ENDBRANCH   3  20
TORSDOF 3
ENDMDL
MODEL 2
REMARK VINA RESULT:       2.3      1.529      2.013
REMARK  Name = *****
REMARK                            x       y       z     vdW  Elec       q    Type
REMARK                         _______ _______ _______ _____ _____    ______ ____
ROOT
ATOM      1  O   LIG    1       22.044 -19.570   3.731  0.00  0.00    -0.273 OA
ATOM      2  C   LIG    1       23.106 -18.962   3.635  0.00  0.00    +0.241 C 
ATOM      3  N   LIG    1       23.325 -17.734   4.310  0.00  0.00    -0.261 N 
ATOM      4  C   LIG    1       24.452 -16.901   4.010  0.00  0.00    +0.046 A 
ATOM      5  C   LIG    1       25.728 -17.443   3.744  0.00  0.00    +0.023 A 
ATOM      6  C   LIG    1       26.782 -16.647   3.266  0.00  0.00    +0.032 A 
ATOM      7  C   LIG    1       26.639 -15.269   3.251  0.00  0.00    +0.042 A 
ATOM      8  C   LIG    1       25.428 -14.695   3.615  0.00  0.00    +0.022 A 
ATOM      9 CL   LIG    1       27.980 -14.278   2.842  0.00  0.00    -0.084 Cl
ATOM     10  C   LIG    1       26.039 -18.862   4.074  0.00  0.00    +0.075 C 
ATOM     11  N   LIG    1       25.364 -19.846   3.570  0.00  0.00    -0.273 NA
ATOM     12  C   LIG    1       24.327 -15.507   3.927  0.00  0.00    +0.026 A 
ATOM     13  C   LIG    1       24.218 -19.495   2.728  0.00  0.00    +0.238 C 
ENDROOT
BRANCH  10  14
ATOM     14  C   LIG    1       27.143 -19.168   5.062  0.00  0.00    +0.001 A 
ATOM     15  C   LIG    1       26.945 -20.167   6.025  0.00  0.00    +0.010 A 
ATOM     16  C   LIG    1       27.940 -20.462   6.964  0.00  0.00    +0.001 A 
ATOM     17  C   LIG    1       29.152 -19.775   6.941  0.00  0.00    +0.000 A 
ATOM     18  C   LIG    1       29.359 -18.773   6.002  0.00  0.00    +0.001 A 
ATOM     19  C   LIG    1       28.352 -18.454   5.090  0.00  0.00    +0.010 A 
ENDBRANCH  10  14
BRANCH   3  20
ATOM     20  C   LIG    1       22.172 -17.309   5.126  0.00  0.00    +0.226 C 
BRANCH  20  21
ATOM     21  C   LIG    1       21.979 -15.903   5.709  0.00  0.00    +0.406 C 
ATOM     22  F   LIG    1       22.449 -15.837   6.978  0.00  0.00    -0.169 F 
ATOM     23  F   LIG    1       20.654 -15.609   5.766  0.00  0.00    -0.169 F 
ATOM     24  F   LIG    1       22.578 -14.911   5.027  0.00  0.00    -0.169 F 
ENDBRANCH  20  21
ENDBRANCH   3  20
TORSDOF 3
ENDMDL
