MODEL 1
REMARK VINA RESULT:      -0.5      0.000      0.000
REMARK  Name = *****
REMARK                            x       y       z     vdW  Elec       q    Type
REMARK                         _______ _______ _______ _____ _____    ______ ____
ROOT
ATOM      1  C   LIG    1       24.227 -17.852   3.860  0.00  0.00    +0.248 C 
ATOM      2  N   LIG    1       23.448 -18.515   4.813  0.00  0.00    -0.308 N 
ATOM      3  H   LIG    1       22.893 -17.960   5.486  0.00  0.00    +0.149 HD
ATOM      4  O   LIG    1       24.860 -18.449   3.011  0.00  0.00    -0.270 OA
ENDROOT
BRANCH   1   6
ATOM      5  C   LIG    1       23.155 -15.483   4.262  0.00  0.00    +0.135 A 
ATOM      6  C   LIG    1       24.212 -16.341   3.869  0.00  0.00    +0.085 A 
ATOM      7  C   LIG    1       25.416 -15.743   3.443  0.00  0.00    +0.103 A 
ATOM      8  C   LIG    1       25.555 -14.347   3.369  0.00  0.00    +0.294 A 
ATOM      9  C   LIG    1       24.486 -13.489   3.634  0.00  0.00    +0.106 A 
ATOM     10  C   LIG    1       23.313 -14.088   4.099  0.00  0.00    +0.076 A 
BRANCH   8  11
ATOM     11  N   LIG    1       26.828 -13.801   2.935  0.00  0.00    +0.082 N 
ATOM     12  O   LIG    1       27.228 -14.139   1.813  0.00  0.00    -0.576 OA
ATOM     13  O   LIG    1       27.411 -13.019   3.698  0.00  0.00    +0.042 OA
ENDBRANCH   8  11
BRANCH   9  14
ATOM     14  N   LIG    1       24.558 -12.095   3.684  0.00  0.00    -0.353 N 
ATOM     15  H   LIG    1       24.378 -11.655   4.584  0.00  0.00    +0.142 HD
ATOM     16  H   LIG    1       25.338 -11.670   3.193  0.00  0.00    +0.142 HD
ENDBRANCH   9  14
BRANCH   5  17
ATOM     17  O   LIG    1       21.974 -15.977   4.771  0.00  0.00    -0.491 OA
BRANCH  17  19
ATOM     18  C   LIG    1       21.458 -14.670   6.795  0.00  0.00    +0.048 C 
ATOM     19  C   LIG    1       21.901 -16.008   6.216  0.00  0.00    +0.226 C 
ENDBRANCH  17  19
ENDBRANCH   5  17
ENDBRANCH   1   6
BRANCH   2  20
ATOM     20  C   LIG    1       23.324 -19.984   4.816  0.00  0.00    +0.076 C 
ATOM     21  C   LIG    1       24.470 -20.707   4.107  0.00  0.00    +0.037 C 
ATOM     22  C   LIG    1       25.772 -20.755   4.928  0.00  0.00    +0.086 C 
ATOM     23  N   LIG    1       25.651 -21.104   6.364  0.00  0.00    -0.302 NA
ATOM     24  C   LIG    1       24.514 -20.417   6.998  0.00  0.00    +0.086 C 
ATOM     25  C   LIG    1       23.205 -20.569   6.225  0.00  0.00    +0.037 C 
BRANCH  23  26
ATOM     26  C   LIG    1       26.932 -20.770   7.062  0.00  0.00    +0.088 C 
BRANCH  26  27
ATOM     27  C   LIG    1       28.274 -20.986   6.290  0.00  0.00    +0.007 C 
ATOM     28  C   LIG    1       29.474 -20.369   7.048  0.00  0.00    +0.009 C 
ATOM     29  C   LIG    1       29.475 -18.835   7.062  0.00  0.00    +0.027 C 
ATOM     30  C   LIG    1       29.008 -18.225   5.775  0.00  0.00    -0.031 C 
ATOM     31  C   LIG    1       28.489 -18.946   4.770  0.00  0.00    -0.031 C 
ATOM     32  C   LIG    1       28.299 -20.437   4.849  0.00  0.00    +0.031 C 
ENDBRANCH  26  27
ENDBRANCH  23  26
ENDBRANCH   2  20
TORSDOF 8
ENDMDL
MODEL 2
REMARK VINA RESULT:       0.0      1.980      4.744
REMARK  Name = *****
REMARK                            x       y       z     vdW  Elec       q    Type
REMARK                         _______ _______ _______ _____ _____    ______ ____
ROOT
ATOM      1  C   LIG    1       27.461 -16.861   3.922  0.00  0.00    +0.248 C 
ATOM      2  N   LIG    1       28.423 -17.170   4.889  0.00  0.00    -0.308 N 
ATOM      3  H   LIG    1       28.628 -16.484   5.634  0.00  0.00    +0.149 HD
ATOM      4  O   LIG    1       27.141 -17.647   3.052  0.00  0.00    -0.270 OA
ENDROOT
BRANCH   1   6
ATOM      5  C   LIG    1       27.356 -14.238   4.108  0.00  0.00    +0.135 A 
ATOM      6  C   LIG    1       26.765 -15.524   4.027  0.00  0.00    +0.085 A 
ATOM      7  C   LIG    1       25.356 -15.597   4.024  0.00  0.00    +0.103 A 
ATOM      8  C   LIG    1       24.562 -14.445   4.140  0.00  0.00    +0.294 A 
ATOM      9  C   LIG    1       25.126 -13.184   4.345  0.00  0.00    +0.106 A 
ATOM     10  C   LIG    1       26.520 -13.115   4.300  0.00  0.00    +0.076 A 
BRANCH   8  11
ATOM     11  N   LIG    1       23.119 -14.595   4.116  0.00  0.00    +0.082 N 
ATOM     12  O   LIG    1       22.525 -14.138   3.129  0.00  0.00    -0.576 OA
ATOM     13  O   LIG    1       22.584 -15.189   5.062  0.00  0.00    +0.042 OA
ENDBRANCH   8  11
BRANCH   9  14
ATOM     14  N   LIG    1       24.424 -11.976   4.370  0.00  0.00    -0.353 N 
ATOM     15  H   LIG    1       23.964 -11.691   3.508  0.00  0.00    +0.142 HD
ATOM     16  H   LIG    1       23.850 -11.810   5.191  0.00  0.00    +0.142 HD
ENDBRANCH   9  14
BRANCH   5  17
ATOM     17  O   LIG    1       28.720 -14.065   4.033  0.00  0.00    -0.491 OA
BRANCH  17  19
ATOM     18  C   LIG    1       29.209 -11.780   4.818  0.00  0.00    +0.048 C 
ATOM     19  C   LIG    1       29.142 -12.738   3.636  0.00  0.00    +0.226 C 
ENDBRANCH  17  19
ENDBRANCH   5  17
ENDBRANCH   1   6
BRANCH   2  20
ATOM     20  C   LIG    1       29.080 -18.489   4.924  0.00  0.00    +0.076 C 
ATOM     21  C   LIG    1       29.365 -19.005   6.335  0.00  0.00    +0.037 C 
ATOM     22  C   LIG    1       28.117 -19.541   7.060  0.00  0.00    +0.086 C 
ATOM     23  N   LIG    1       27.209 -20.418   6.282  0.00  0.00    -0.302 NA
ATOM     24  C   LIG    1       26.993 -19.905   4.919  0.00  0.00    +0.086 C 
ATOM     25  C   LIG    1       28.289 -19.569   4.184  0.00  0.00    +0.037 C 
BRANCH  23  26
ATOM     26  C   LIG    1       25.911 -20.555   7.013  0.00  0.00    +0.088 C 
BRANCH  26  27
ATOM     27  C   LIG    1       24.857 -21.571   6.466  0.00  0.00    +0.007 C 
ATOM     28  C   LIG    1       24.815 -21.572   4.918  0.00  0.00    +0.009 C 
ATOM     29  C   LIG    1       24.218 -20.293   4.316  0.00  0.00    +0.027 C 
ATOM     30  C   LIG    1       23.061 -19.747   5.097  0.00  0.00    -0.031 C 
ATOM     31  C   LIG    1       22.690 -20.235   6.290  0.00  0.00    -0.031 C 
ATOM     32  C   LIG    1       23.416 -21.362   6.973  0.00  0.00    +0.031 C 
ENDBRANCH  26  27
ENDBRANCH  23  26
ENDBRANCH   2  20
TORSDOF 8
ENDMDL
MODEL 3
REMARK VINA RESULT:       0.2      2.099      7.163
REMARK  Name = *****
REMARK                            x       y       z     vdW  Elec       q    Type
REMARK                         _______ _______ _______ _____ _____    ______ ____
ROOT
ATOM      1  C   LIG    1       26.611 -17.725   3.733  0.00  0.00    +0.248 C 
ATOM      2  N   LIG    1       26.263 -16.422   3.365  0.00  0.00    -0.308 N 
ATOM      3  H   LIG    1       25.267 -16.148   3.361  0.00  0.00    +0.149 HD
ATOM      4  O   LIG    1       27.767 -18.092   3.806  0.00  0.00    -0.270 OA
ENDROOT
BRANCH   1   6
ATOM      5  C   LIG    1       25.601 -19.986   4.626  0.00  0.00    +0.135 A 
ATOM      6  C   LIG    1       25.493 -18.670   4.111  0.00  0.00    +0.085 A 
ATOM      7  C   LIG    1       24.197 -18.142   3.933  0.00  0.00    +0.103 A 
ATOM      8  C   LIG    1       23.051 -18.903   4.215  0.00  0.00    +0.294 A 
ATOM      9  C   LIG    1       23.137 -20.240   4.605  0.00  0.00    +0.106 A 
ATOM     10  C   LIG    1       24.423 -20.740   4.822  0.00  0.00    +0.076 A 
BRANCH   8  11
ATOM     11  N   LIG    1       21.750 -18.290   4.021  0.00  0.00    +0.082 N 
ATOM     12  O   LIG    1       21.579 -17.169   4.521  0.00  0.00    -0.576 OA
ATOM     13  O   LIG    1       20.913 -18.910   3.351  0.00  0.00    +0.042 OA
ENDBRANCH   8  11
BRANCH   9  14
ATOM     14  N   LIG    1       22.062 -21.040   5.001  0.00  0.00    -0.353 N 
ATOM     15  H   LIG    1       21.895 -21.128   6.001  0.00  0.00    +0.142 HD
ATOM     16  H   LIG    1       21.203 -20.929   4.471  0.00  0.00    +0.142 HD
ENDBRANCH   9  14
BRANCH   5  17
ATOM     17  O   LIG    1       26.825 -20.551   4.911  0.00  0.00    -0.491 OA
BRANCH  17  19
ATOM     18  C   LIG    1       28.676 -20.171   6.494  0.00  0.00    +0.048 C 
ATOM     19  C   LIG    1       27.202 -20.510   6.308  0.00  0.00    +0.226 C 
ENDBRANCH  17  19
ENDBRANCH   5  17
ENDBRANCH   1   6
BRANCH   2  20
ATOM     20  C   LIG    1       27.291 -15.406   3.077  0.00  0.00    +0.076 C 
ATOM     21  C   LIG    1       26.781 -14.221   2.255  0.00  0.00    +0.037 C 
ATOM     22  C   LIG    1       25.937 -13.223   3.069  0.00  0.00    +0.086 C 
ATOM     23  N   LIG    1       26.450 -12.838   4.406  0.00  0.00    -0.302 NA
ATOM     24  C   LIG    1       26.965 -14.002   5.147  0.00  0.00    +0.086 C 
ATOM     25  C   LIG    1       27.948 -14.848   4.341  0.00  0.00    +0.037 C 
BRANCH  23  26
ATOM     26  C   LIG    1       25.362 -12.157   5.174  0.00  0.00    +0.088 C 
BRANCH  26  27
ATOM     27  C   LIG    1       23.933 -12.102   4.543  0.00  0.00    +0.007 C 
ATOM     28  C   LIG    1       22.850 -12.578   5.542  0.00  0.00    +0.009 C 
ATOM     29  C   LIG    1       22.900 -14.082   5.839  0.00  0.00    +0.027 C 
ATOM     30  C   LIG    1       23.233 -14.918   4.640  0.00  0.00    -0.031 C 
ATOM     31  C   LIG    1       23.608 -14.392   3.464  0.00  0.00    -0.031 C 
ATOM     32  C   LIG    1       23.758 -12.911   3.243  0.00  0.00    +0.031 C 
ENDBRANCH  26  27
ENDBRANCH  23  26
ENDBRANCH   2  20
TORSDOF 8
ENDMDL
MODEL 4
REMARK VINA RESULT:       1.0      2.553      6.307
REMARK  Name = *****
REMARK                            x       y       z     vdW  Elec       q    Type
REMARK                         _______ _______ _______ _____ _____    ______ ____
ROOT
ATOM      1  C   LIG    1       24.428 -18.593   4.041  0.00  0.00    +0.248 C 
ATOM      2  N   LIG    1       24.234 -17.304   4.547  0.00  0.00    -0.308 N 
ATOM      3  H   LIG    1       24.790 -16.992   5.360  0.00  0.00    +0.149 HD
ATOM      4  O   LIG    1       23.841 -18.998   3.057  0.00  0.00    -0.270 OA
ENDROOT
BRANCH   1   6
ATOM      5  C   LIG    1       25.330 -20.826   5.102  0.00  0.00    +0.135 A 
ATOM      6  C   LIG    1       25.457 -19.467   4.721  0.00  0.00    +0.085 A 
ATOM      7  C   LIG    1       26.687 -18.827   4.980  0.00  0.00    +0.103 A 
ATOM      8  C   LIG    1       27.738 -19.495   5.630  0.00  0.00    +0.294 A 
ATOM      9  C   LIG    1       27.588 -20.793   6.122  0.00  0.00    +0.106 A 
ATOM     10  C   LIG    1       26.383 -21.434   5.821  0.00  0.00    +0.076 A 
BRANCH   8  11
ATOM     11  N   LIG    1       28.980 -18.779   5.851  0.00  0.00    +0.082 N 
ATOM     12  O   LIG    1       29.473 -18.850   6.985  0.00  0.00    -0.576 OA
ATOM     13  O   LIG    1       29.475 -18.172   4.891  0.00  0.00    +0.042 OA
ENDBRANCH   8  11
BRANCH   9  14
ATOM     14  N   LIG    1       28.603 -21.568   6.688  0.00  0.00    -0.353 N 
ATOM     15  H   LIG    1       29.071 -21.189   7.508  0.00  0.00    +0.142 HD
ATOM     16  H   LIG    1       28.412 -22.562   6.772  0.00  0.00    +0.142 HD
ENDBRANCH   9  14
BRANCH   5  17
ATOM     17  O   LIG    1       24.196 -21.554   4.813  0.00  0.00    -0.491 OA
BRANCH  17  19
ATOM     18  C   LIG    1       21.882 -20.742   5.053  0.00  0.00    +0.048 C 
ATOM     19  C   LIG    1       23.097 -21.358   5.734  0.00  0.00    +0.226 C 
ENDBRANCH  17  19
ENDBRANCH   5  17
ENDBRANCH   1   6
BRANCH   2  20
ATOM     20  C   LIG    1       23.326 -16.349   3.887  0.00  0.00    +0.076 C 
ATOM     21  C   LIG    1       22.672 -15.350   4.843  0.00  0.00    +0.037 C 
ATOM     22  C   LIG    1       23.618 -14.225   5.302  0.00  0.00    +0.086 C 
ATOM     23  N   LIG    1       24.459 -13.585   4.262  0.00  0.00    -0.302 NA
ATOM     24  C   LIG    1       25.037 -14.578   3.342  0.00  0.00    +0.086 C 
ATOM     25  C   LIG    1       24.006 -15.552   2.773  0.00  0.00    +0.037 C 
BRANCH  23  26
ATOM     26  C   LIG    1       25.535 -12.782   4.924  0.00  0.00    +0.088 C 
BRANCH  26  27
ATOM     27  C   LIG    1       26.738 -13.545   5.566  0.00  0.00    +0.007 C 
ATOM     28  C   LIG    1       27.945 -12.606   5.807  0.00  0.00    +0.009 C 
ATOM     29  C   LIG    1       28.640 -12.148   4.518  0.00  0.00    +0.027 C 
ATOM     30  C   LIG    1       28.719 -13.215   3.469  0.00  0.00    -0.031 C 
ATOM     31  C   LIG    1       28.101 -14.400   3.584  0.00  0.00    -0.031 C 
ATOM     32  C   LIG    1       27.245 -14.763   4.768  0.00  0.00    +0.031 C 
ENDBRANCH  26  27
ENDBRANCH  23  26
ENDBRANCH   2  20
TORSDOF 8
ENDMDL
MODEL 5
REMARK VINA RESULT:       1.2      1.650      3.903
REMARK  Name = *****
REMARK                            x       y       z     vdW  Elec       q    Type
REMARK                         _______ _______ _______ _____ _____    ______ ____
ROOT
ATOM      1  C   LIG    1       27.316 -17.373   3.940  0.00  0.00    +0.248 C 
ATOM      2  N   LIG    1       28.228 -17.693   4.949  0.00  0.00    -0.308 N 
ATOM      3  H   LIG    1       28.526 -16.959   5.612  0.00  0.00    +0.149 HD
ATOM      4  O   LIG    1       26.891 -18.204   3.162  0.00  0.00    -0.270 OA
ENDROOT
BRANCH   1   6
ATOM      5  C   LIG    1       25.467 -15.509   3.753  0.00  0.00    +0.135 A 
ATOM      6  C   LIG    1       26.808 -15.950   3.878  0.00  0.00    +0.085 A 
ATOM      7  C   LIG    1       27.814 -14.967   3.975  0.00  0.00    +0.103 A 
ATOM      8  C   LIG    1       27.509 -13.597   3.908  0.00  0.00    +0.294 A 
ATOM      9  C   LIG    1       26.210 -13.147   3.662  0.00  0.00    +0.106 A 
ATOM     10  C   LIG    1       25.215 -14.126   3.614  0.00  0.00    +0.076 A 
BRANCH   8  11
ATOM     11  N   LIG    1       28.594 -12.641   4.029  0.00  0.00    +0.082 N 
ATOM     12  O   LIG    1       28.763 -12.124   5.142  0.00  0.00    -0.576 OA
ATOM     13  O   LIG    1       29.289 -12.428   3.026  0.00  0.00    +0.042 OA
ENDBRANCH   8  11
BRANCH   9  14
ATOM     14  N   LIG    1       25.798 -11.812   3.680  0.00  0.00    -0.353 N 
ATOM     15  H   LIG    1       25.203 -11.523   4.454  0.00  0.00    +0.142 HD
ATOM     16  H   LIG    1       26.508 -11.123   3.456  0.00  0.00    +0.142 HD
ENDBRANCH   9  14
BRANCH   5  17
ATOM     17  O   LIG    1       24.413 -16.396   3.737  0.00  0.00    -0.491 OA
BRANCH  17  19
ATOM     18  C   LIG    1       22.534 -15.933   5.263  0.00  0.00    +0.048 C 
ATOM     19  C   LIG    1       23.105 -15.788   3.858  0.00  0.00    +0.226 C 
ENDBRANCH  17  19
ENDBRANCH   5  17
ENDBRANCH   1   6
BRANCH   2  20
ATOM     20  C   LIG    1       28.701 -19.075   5.146  0.00  0.00    +0.076 C 
ATOM     21  C   LIG    1       28.625 -19.557   6.596  0.00  0.00    +0.037 C 
ATOM     22  C   LIG    1       27.200 -19.915   7.055  0.00  0.00    +0.086 C 
ATOM     23  N   LIG    1       26.373 -20.717   6.121  0.00  0.00    -0.302 NA
ATOM     24  C   LIG    1       26.504 -20.244   4.733  0.00  0.00    +0.086 C 
ATOM     25  C   LIG    1       27.954 -20.090   4.279  0.00  0.00    +0.037 C 
BRANCH  23  26
ATOM     26  C   LIG    1       24.945 -20.673   6.567  0.00  0.00    +0.088 C 
BRANCH  26  27
ATOM     27  C   LIG    1       23.892 -21.498   5.759  0.00  0.00    +0.007 C 
ATOM     28  C   LIG    1       24.193 -21.478   4.241  0.00  0.00    +0.009 C 
ATOM     29  C   LIG    1       23.953 -20.113   3.581  0.00  0.00    +0.027 C 
ATOM     30  C   LIG    1       22.753 -19.392   4.117  0.00  0.00    -0.031 C 
ATOM     31  C   LIG    1       22.055 -19.823   5.179  0.00  0.00    -0.031 C 
ATOM     32  C   LIG    1       22.426 -21.060   5.952  0.00  0.00    +0.031 C 
ENDBRANCH  26  27
ENDBRANCH  23  26
ENDBRANCH   2  20
TORSDOF 8
ENDMDL
MODEL 6
REMARK VINA RESULT:       1.7      1.959      5.171
REMARK  Name = *****
REMARK                            x       y       z     vdW  Elec       q    Type
REMARK                         _______ _______ _______ _____ _____    ______ ____
ROOT
ATOM      1  C   LIG    1       26.475 -19.195   4.160  0.00  0.00    +0.248 C 
ATOM      2  N   LIG    1       26.336 -19.805   5.410  0.00  0.00    -0.308 N 
ATOM      3  H   LIG    1       26.611 -19.284   6.260  0.00  0.00    +0.149 HD
ATOM      4  O   LIG    1       26.121 -19.737   3.131  0.00  0.00    -0.270 OA
ENDROOT
BRANCH   1   6
ATOM      5  C   LIG    1       28.299 -17.339   4.555  0.00  0.00    +0.135 A 
ATOM      6  C   LIG    1       27.026 -17.788   4.123  0.00  0.00    +0.085 A 
ATOM      7  C   LIG    1       26.148 -16.832   3.570  0.00  0.00    +0.103 A 
ATOM      8  C   LIG    1       26.501 -15.475   3.487  0.00  0.00    +0.294 A 
ATOM      9  C   LIG    1       27.699 -14.995   4.019  0.00  0.00    +0.106 A 
ATOM     10  C   LIG    1       28.580 -15.955   4.522  0.00  0.00    +0.076 A 
BRANCH   8  11
ATOM     11  N   LIG    1       25.553 -14.549   2.894  0.00  0.00    +0.082 N 
ATOM     12  O   LIG    1       24.514 -14.328   3.531  0.00  0.00    -0.576 OA
ATOM     13  O   LIG    1       25.856 -14.026   1.814  0.00  0.00    +0.042 OA
ENDBRANCH   8  11
BRANCH   9  14
ATOM     14  N   LIG    1       28.176 -13.688   3.894  0.00  0.00    -0.353 N 
ATOM     15  H   LIG    1       27.774 -13.118   3.152  0.00  0.00    +0.142 HD
ATOM     16  H   LIG    1       28.297 -13.172   4.759  0.00  0.00    +0.142 HD
ENDBRANCH   9  14
BRANCH   5  17
ATOM     17  O   LIG    1       29.251 -18.215   5.028  0.00  0.00    -0.491 OA
BRANCH  17  19
ATOM     18  C   LIG    1       29.319 -19.640   7.038  0.00  0.00    +0.048 C 
ATOM     19  C   LIG    1       29.400 -18.230   6.468  0.00  0.00    +0.226 C 
ENDBRANCH  17  19
ENDBRANCH   5  17
ENDBRANCH   1   6
BRANCH   2  20
ATOM     20  C   LIG    1       25.716 -21.134   5.551  0.00  0.00    +0.076 C 
ATOM     21  C   LIG    1       24.767 -21.255   6.745  0.00  0.00    +0.037 C 
ATOM     22  C   LIG    1       23.403 -20.577   6.520  0.00  0.00    +0.086 C 
ATOM     23  N   LIG    1       22.742 -20.808   5.213  0.00  0.00    -0.302 NA
ATOM     24  C   LIG    1       23.697 -20.720   4.096  0.00  0.00    +0.086 C 
ATOM     25  C   LIG    1       24.950 -21.570   4.301  0.00  0.00    +0.037 C 
BRANCH  23  26
ATOM     26  C   LIG    1       21.630 -19.821   5.042  0.00  0.00    +0.088 C 
BRANCH  26  27
ATOM     27  C   LIG    1       21.612 -18.943   3.749  0.00  0.00    +0.007 C 
ATOM     28  C   LIG    1       22.989 -18.286   3.487  0.00  0.00    +0.009 C 
ATOM     29  C   LIG    1       23.351 -17.186   4.493  0.00  0.00    +0.027 C 
ATOM     30  C   LIG    1       22.183 -16.340   4.901  0.00  0.00    -0.031 C 
ATOM     31  C   LIG    1       20.919 -16.620   4.548  0.00  0.00    -0.031 C 
ATOM     32  C   LIG    1       20.549 -17.827   3.728  0.00  0.00    +0.031 C 
ENDBRANCH  26  27
ENDBRANCH  23  26
ENDBRANCH   2  20
TORSDOF 8
ENDMDL
MODEL 7
REMARK VINA RESULT:       2.3      1.980      2.771
REMARK  Name = *****
REMARK                            x       y       z     vdW  Elec       q    Type
REMARK                         _______ _______ _______ _____ _____    ______ ____
ROOT
ATOM      1  C   LIG    1       23.588 -16.189   3.858  0.00  0.00    +0.248 C 
ATOM      2  N   LIG    1       23.831 -17.537   3.576  0.00  0.00    -0.308 N 
ATOM      3  H   LIG    1       24.781 -17.830   3.296  0.00  0.00    +0.149 HD
ATOM      4  O   LIG    1       22.504 -15.792   4.241  0.00  0.00    -0.270 OA
ENDROOT
BRANCH   1   6
ATOM      5  C   LIG    1       24.704 -13.855   3.377  0.00  0.00    +0.135 A 
ATOM      6  C   LIG    1       24.746 -15.226   3.735  0.00  0.00    +0.085 A 
ATOM      7  C   LIG    1       26.005 -15.786   4.036  0.00  0.00    +0.103 A 
ATOM      8  C   LIG    1       27.184 -15.028   3.945  0.00  0.00    +0.294 A 
ATOM      9  C   LIG    1       27.176 -13.714   3.475  0.00  0.00    +0.106 A 
ATOM     10  C   LIG    1       25.921 -13.154   3.224  0.00  0.00    +0.076 A 
BRANCH   8  11
ATOM     11  N   LIG    1       28.443 -15.667   4.282  0.00  0.00    +0.082 N 
ATOM     12  O   LIG    1       28.440 -16.903   4.364  0.00  0.00    -0.576 OA
ATOM     13  O   LIG    1       29.435 -14.941   4.437  0.00  0.00    +0.042 OA
ENDBRANCH   8  11
BRANCH   9  14
ATOM     14  N   LIG    1       28.279 -12.856   3.446  0.00  0.00    -0.353 N 
ATOM     15  H   LIG    1       29.061 -13.088   4.056  0.00  0.00    +0.142 HD
ATOM     16  H   LIG    1       28.580 -12.547   2.528  0.00  0.00    +0.142 HD
ENDBRANCH   9  14
BRANCH   5  17
ATOM     17  O   LIG    1       23.512 -13.204   3.149  0.00  0.00    -0.491 OA
BRANCH  17  19
ATOM     18  C   LIG    1       23.453 -11.469   4.899  0.00  0.00    +0.048 C 
ATOM     19  C   LIG    1       23.538 -11.781   3.410  0.00  0.00    +0.226 C 
ENDBRANCH  17  19
ENDBRANCH   5  17
ENDBRANCH   1   6
BRANCH   2  20
ATOM     20  C   LIG    1       22.788 -18.561   3.765  0.00  0.00    +0.076 C 
ATOM     21  C   LIG    1       23.027 -19.846   2.970  0.00  0.00    +0.037 C 
ATOM     22  C   LIG    1       24.113 -20.754   3.576  0.00  0.00    +0.086 C 
ATOM     23  N   LIG    1       24.074 -20.965   5.043  0.00  0.00    -0.302 NA
ATOM     24  C   LIG    1       23.804 -19.711   5.767  0.00  0.00    +0.086 C 
ATOM     25  C   LIG    1       22.593 -18.950   5.232  0.00  0.00    +0.037 C 
BRANCH  23  26
ATOM     26  C   LIG    1       25.368 -21.570   5.488  0.00  0.00    +0.088 C 
BRANCH  26  27
ATOM     27  C   LIG    1       26.170 -20.851   6.621  0.00  0.00    +0.007 C 
ATOM     28  C   LIG    1       26.541 -19.401   6.226  0.00  0.00    +0.009 C 
ATOM     29  C   LIG    1       27.600 -19.313   5.119  0.00  0.00    +0.027 C 
ATOM     30  C   LIG    1       28.671 -20.356   5.232  0.00  0.00    -0.031 C 
ATOM     31  C   LIG    1       28.618 -21.364   6.115  0.00  0.00    -0.031 C 
ATOM     32  C   LIG    1       27.465 -21.562   7.061  0.00  0.00    +0.031 C 
ENDBRANCH  26  27
ENDBRANCH  23  26
ENDBRANCH   2  20
TORSDOF 8
ENDMDL
