MODEL 1
REMARK VINA RESULT:      89.5      0.000      0.000
REMARK  Name = *****
REMARK                            x       y       z     vdW  Elec       q    Type
REMARK                         _______ _______ _______ _____ _____    ______ ____
ROOT
ATOM      1  C   LIG    1       21.879 -16.669   4.250  0.00  0.00    +0.215 C 
ATOM      2  C   LIG    1       20.678 -15.968   4.881  0.00  0.00    +0.074 C 
ATOM      3  C   LIG    1       21.441 -17.522   3.059  0.00  0.00    +0.271 C 
ATOM      4  O   LIG    1       20.830 -17.133   2.072  0.00  0.00    -0.270 OA
ATOM      5  N   LIG    1       21.894 -18.801   3.306  0.00  0.00    -0.233 N 
ATOM      6  C   LIG    1       22.244 -18.903   4.690  0.00  0.00    +0.269 C 
ATOM      7  C   LIG    1       21.101 -19.595   5.470  0.00  0.00    +0.156 C 
ATOM      8  N   LIG    1       20.432 -20.673   4.757  0.00  0.00    -0.290 N 
ATOM      9  C   LIG    1       20.247 -20.678   3.391  0.00  0.00    +0.237 C 
ATOM     10  O   LIG    1       19.369 -21.360   2.866  0.00  0.00    -0.274 OA
ATOM     11  C   LIG    1       19.756 -21.571   5.668  0.00  0.00    +0.108 C 
ATOM     12  C   LIG    1       20.180 -21.094   7.058  0.00  0.00    +0.021 C 
ATOM     13  C   LIG    1       21.433 -20.246   6.805  0.00  0.00    +0.031 C 
ATOM     14  C   LIG    1       21.372 -19.981   2.577  0.00  0.00    +0.171 C 
ATOM     15  O   LIG    1       22.404 -17.583   5.209  0.00  0.00    -0.299 OA
ENDROOT
BRANCH   1  17
ATOM     16  C   LIG    1       22.921 -15.009   2.704  0.00  0.00    +0.224 C 
ATOM     17  N   LIG    1       22.893 -15.690   3.901  0.00  0.00    -0.280 N 
ATOM     18  H   LIG    1       23.406 -15.293   4.677  0.00  0.00    +0.152 HD
ATOM     19  O   LIG    1       22.087 -15.191   1.815  0.00  0.00    -0.275 OA
BRANCH  16  35
ATOM     20  C   LIG    1       25.661 -11.449   2.034  0.00  0.00    +0.105 C 
ATOM     21  N   LIG    1       24.937 -11.758   3.272  0.00  0.00    -0.297 NA
ATOM     22  C   LIG    1       25.791 -12.398   4.316  0.00  0.00    +0.091 C 
ATOM     23  C   LIG    1       26.114 -13.897   4.018  0.00  0.00    -0.025 C 
ATOM     24  C   LIG    1       27.233 -14.521   4.771  0.00  0.00    -0.011 C 
ATOM     25  C   LIG    1       27.984 -13.635   5.557  0.00  0.00    +0.010 C 
ATOM     26  C   LIG    1       28.985 -14.076   6.408  0.00  0.00    +0.047 C 
ATOM     27  N   LIG    1       29.469 -12.957   7.053  0.00  0.00    -0.360 NA
ATOM     28  H   LIG    1       30.200 -12.968   7.751  0.00  0.00    +0.165 HD
ATOM     29  C   LIG    1       28.832 -11.826   6.591  0.00  0.00    +0.087 C 
ATOM     30  C   LIG    1       29.330 -15.425   6.497  0.00  0.00    +0.026 C 
ATOM     31  C   LIG    1       28.615 -16.315   5.683  0.00  0.00    +0.003 C 
ATOM     32  C   LIG    1       27.919 -12.226   5.645  0.00  0.00    -0.020 C 
ATOM     33  C   LIG    1       27.582 -15.878   4.842  0.00  0.00    +0.009 C 
ATOM     34  C   LIG    1       25.345 -14.611   3.169  0.00  0.00    -0.007 C 
ATOM     35  C   LIG    1       24.106 -14.038   2.512  0.00  0.00    +0.112 C 
ATOM     36  C   LIG    1       26.996 -11.483   4.745  0.00  0.00    +0.060 C 
ATOM     37  C   LIG    1       23.764 -12.617   3.008  0.00  0.00    +0.101 C 
ENDBRANCH  16  35
ENDBRANCH   1  17
BRANCH   6  38
ATOM     38  O   LIG    1       23.475 -19.564   4.788  0.00  0.00    -0.348 OA
ATOM     39  H   LIG    1       23.995 -18.960   5.359  0.00  0.00    +0.214 HD
ENDBRANCH   6  38
BRANCH  14  40
ATOM     40  C   LIG    1       22.498 -20.997   2.270  0.00  0.00    +0.067 C 
BRANCH  40  41
ATOM     41  C   LIG    1       23.823 -20.731   2.956  0.00  0.00    -0.045 A 
ATOM     42  C   LIG    1       24.200 -21.447   4.098  0.00  0.00    +0.003 A 
ATOM     43  C   LIG    1       25.425 -21.193   4.721  0.00  0.00    +0.000 A 
ATOM     44  C   LIG    1       26.282 -20.217   4.215  0.00  0.00    +0.000 A 
ATOM     45  C   LIG    1       25.918 -19.496   3.081  0.00  0.00    +0.000 A 
ATOM     46  C   LIG    1       24.700 -19.757   2.452  0.00  0.00    +0.003 A 
ENDBRANCH  40  41
ENDBRANCH  14  40
TORSDOF 5
ENDMDL
