MODEL 1
REMARK VINA RESULT:      -7.9      0.000      0.000
REMARK  Name = *****
REMARK                            x       y       z     vdW  Elec       q    Type
REMARK                         _______ _______ _______ _____ _____    ______ ____
ROOT
ATOM      1  C   LIG    1       26.698 -20.678   7.594  0.00  0.00    +0.168 C 
ATOM      2  C   LIG    1       25.620 -20.863   6.686  0.00  0.00    +0.097 C 
ATOM      3  C   LIG    1       25.695 -20.256   5.425  0.00  0.00    +0.052 C 
ATOM      4  C   LIG    1       24.473 -20.159   4.609  0.00  0.00    +0.204 C 
ATOM      5  C   LIG    1       23.212 -20.665   5.161  0.00  0.00    +0.122 C 
ATOM      6  C   LIG    1       23.295 -21.390   6.279  0.00  0.00    +0.105 C 
ATOM      7  O   LIG    1       24.474 -19.568   3.510  0.00  0.00    -0.286 OA
ATOM      8  C   LIG    1       26.883 -19.697   4.977  0.00  0.00    +0.054 C 
ATOM      9  C   LIG    1       27.988 -19.660   5.825  0.00  0.00    +0.149 C 
ATOM     10  F   LIG    1       29.091 -19.092   5.311  0.00  0.00    -0.203 F 
ATOM     11  N   LIG    1       24.461 -21.646   6.994  0.00  0.00    -0.340 NA
ATOM     12  C   LIG    1       27.958 -20.129   7.168  0.00  0.00    +0.110 C 
ENDROOT
BRANCH  12  13
ATOM     13  N   LIG    1       29.125 -19.996   8.003  0.00  0.00    -0.322 NA
ATOM     14  C   LIG    1       29.848 -18.696   7.852  0.00  0.00    +0.123 C 
ATOM     15  C   LIG    1       31.169 -18.598   8.681  0.00  0.00    +0.068 C 
ATOM     16  C   LIG    1       30.920 -18.249  10.153  0.00  0.00    +0.025 C 
ATOM     17  N   LIG    1       32.044 -19.785   8.583  0.00  0.00    -0.310 NA
ATOM     18  H   LIG    1       32.328 -19.882   7.608  0.00  0.00    +0.122 HD
ATOM     19  C   LIG    1       31.266 -20.980   8.940  0.00  0.00    +0.100 C 
ATOM     20  C   LIG    1       30.028 -21.166   8.056  0.00  0.00    +0.120 C 
ENDBRANCH  12  13
BRANCH  11  21
ATOM     21  C   LIG    1       24.621 -23.090   7.356  0.00  0.00    +0.088 C 
ATOM     22  C   LIG    1       24.291 -24.175   6.350  0.00  0.00    +0.027 C 
ATOM     23  C   LIG    1       25.690 -24.028   6.856  0.00  0.00    +0.027 C 
ENDBRANCH  11  21
BRANCH   1  25
ATOM     24  C   LIG    1       25.745 -20.326   9.764  0.00  0.00    +0.277 C 
ATOM     25  O   LIG    1       26.563 -21.116   8.897  0.00  0.00    -0.491 OA
ENDBRANCH   1  25
BRANCH   5  26
ATOM     26  C   LIG    1       21.906 -20.411   4.549  0.00  0.00    +0.342 C 
ATOM     27  O   LIG    1       21.029 -21.278   4.465  0.00  0.00    -0.245 OA
BRANCH  26  28
ATOM     28  O   LIG    1       21.694 -19.138   4.158  0.00  0.00    -0.477 OA
ATOM     29  H   LIG    1       21.832 -18.488   4.874  0.00  0.00    +0.295 HD
ENDBRANCH  26  28
ENDBRANCH   5  26
TORSDOF 5
ENDMDL
MODEL 2
REMARK VINA RESULT:      -5.9      9.022     11.867
REMARK  Name = *****
REMARK                            x       y       z     vdW  Elec       q    Type
REMARK                         _______ _______ _______ _____ _____    ______ ____
ROOT
ATOM      1  C   LIG    1       24.663 -30.217   8.924  0.00  0.00    +0.168 C 
ATOM      2  C   LIG    1       24.621 -30.703   7.589  0.00  0.00    +0.097 C 
ATOM      3  C   LIG    1       23.975 -31.922   7.340  0.00  0.00    +0.052 C 
ATOM      4  C   LIG    1       24.200 -32.596   6.050  0.00  0.00    +0.204 C 
ATOM      5  C   LIG    1       25.124 -31.989   5.086  0.00  0.00    +0.122 C 
ATOM      6  C   LIG    1       25.529 -30.743   5.348  0.00  0.00    +0.105 C 
ATOM      7  O   LIG    1       23.702 -33.714   5.809  0.00  0.00    -0.286 OA
ATOM      8  C   LIG    1       23.188 -32.519   8.314  0.00  0.00    +0.054 C 
ATOM      9  C   LIG    1       23.111 -31.946   9.582  0.00  0.00    +0.149 C 
ATOM     10  F   LIG    1       22.334 -32.596  10.463  0.00  0.00    -0.203 F 
ATOM     11  N   LIG    1       25.202 -30.005   6.481  0.00  0.00    -0.340 NA
ATOM     12  C   LIG    1       23.844 -30.786   9.961  0.00  0.00    +0.110 C 
ENDROOT
BRANCH  12  13
ATOM     13  N   LIG    1       23.761 -30.292  11.312  0.00  0.00    -0.322 NA
ATOM     14  C   LIG    1       24.407 -31.173  12.333  0.00  0.00    +0.123 C 
ATOM     15  C   LIG    1       24.225 -30.685  13.807  0.00  0.00    +0.068 C 
ATOM     16  C   LIG    1       25.211 -29.576  14.190  0.00  0.00    +0.025 C 
ATOM     17  N   LIG    1       22.847 -30.280  14.152  0.00  0.00    -0.310 NA
ATOM     18  H   LIG    1       22.246 -31.098  14.048  0.00  0.00    +0.122 HD
ATOM     19  C   LIG    1       22.392 -29.270  13.186  0.00  0.00    +0.100 C 
ATOM     20  C   LIG    1       22.444 -29.770  11.738  0.00  0.00    +0.120 C 
ENDBRANCH  12  13
BRANCH  11  21
ATOM     21  C   LIG    1       24.746 -28.615   6.165  0.00  0.00    +0.088 C 
ATOM     22  C   LIG    1       25.631 -27.425   6.480  0.00  0.00    +0.027 C 
ATOM     23  C   LIG    1       25.267 -27.728   5.062  0.00  0.00    +0.027 C 
ENDBRANCH  11  21
BRANCH   1  25
ATOM     24  C   LIG    1       26.789 -29.369   9.633  0.00  0.00    +0.277 C 
ATOM     25  O   LIG    1       25.445 -29.117   9.214  0.00  0.00    -0.491 OA
ENDBRANCH   1  25
BRANCH   5  26
ATOM     26  C   LIG    1       25.604 -32.678   3.887  0.00  0.00    +0.342 C 
ATOM     27  O   LIG    1       26.806 -32.866   3.663  0.00  0.00    -0.245 OA
BRANCH  26  28
ATOM     28  O   LIG    1       24.640 -33.171   3.084  0.00  0.00    -0.477 OA
ATOM     29  H   LIG    1       24.993 -33.668   2.321  0.00  0.00    +0.295 HD
ENDBRANCH  26  28
ENDBRANCH   5  26
TORSDOF 5
ENDMDL
MODEL 3
REMARK VINA RESULT:      -5.6      8.393     11.093
REMARK  Name = *****
REMARK                            x       y       z     vdW  Elec       q    Type
REMARK                         _______ _______ _______ _____ _____    ______ ____
ROOT
ATOM      1  C   LIG    1       24.058 -30.731   9.262  0.00  0.00    +0.168 C 
ATOM      2  C   LIG    1       24.476 -29.905   8.183  0.00  0.00    +0.097 C 
ATOM      3  C   LIG    1       25.474 -28.949   8.419  0.00  0.00    +0.052 C 
ATOM      4  C   LIG    1       25.686 -27.882   7.427  0.00  0.00    +0.204 C 
ATOM      5  C   LIG    1       24.817 -27.832   6.246  0.00  0.00    +0.122 C 
ATOM      6  C   LIG    1       24.037 -28.894   6.031  0.00  0.00    +0.105 C 
ATOM      7  O   LIG    1       26.514 -26.971   7.624  0.00  0.00    -0.286 OA
ATOM      8  C   LIG    1       26.209 -28.967   9.596  0.00  0.00    +0.054 C 
ATOM      9  C   LIG    1       25.890 -29.889  10.591  0.00  0.00    +0.149 C 
ATOM     10  F   LIG    1       26.647 -29.828  11.698  0.00  0.00    -0.203 F 
ATOM     11  N   LIG    1       23.931 -30.005   6.863  0.00  0.00    -0.340 NA
ATOM     12  C   LIG    1       24.804 -30.803  10.491  0.00  0.00    +0.110 C 
ENDROOT
BRANCH  12  13
ATOM     13  N   LIG    1       24.498 -31.681  11.591  0.00  0.00    -0.322 NA
ATOM     14  C   LIG    1       24.143 -30.980  12.862  0.00  0.00    +0.123 C 
ATOM     15  C   LIG    1       23.914 -31.934  14.079  0.00  0.00    +0.068 C 
ATOM     16  C   LIG    1       22.519 -32.568  14.079  0.00  0.00    +0.025 C 
ATOM     17  N   LIG    1       24.946 -32.979  14.240  0.00  0.00    -0.310 NA
ATOM     18  H   LIG    1       25.838 -32.513  14.410  0.00  0.00    +0.122 HD
ATOM     19  C   LIG    1       25.068 -33.726  12.980  0.00  0.00    +0.100 C 
ATOM     20  C   LIG    1       25.416 -32.824  11.790  0.00  0.00    +0.120 C 
ENDBRANCH  12  13
BRANCH  11  21
ATOM     21  C   LIG    1       24.025 -31.302   6.122  0.00  0.00    +0.088 C 
ATOM     22  C   LIG    1       25.217 -31.594   5.231  0.00  0.00    +0.027 C 
ATOM     23  C   LIG    1       24.956 -32.447   6.431  0.00  0.00    +0.027 C 
ENDBRANCH  11  21
BRANCH   1  25
ATOM     24  C   LIG    1       21.803 -31.249   9.884  0.00  0.00    +0.277 C 
ATOM     25  O   LIG    1       22.958 -31.549   9.096  0.00  0.00    -0.491 OA
ENDBRANCH   1  25
BRANCH   5  26
ATOM     26  C   LIG    1       24.776 -26.695   5.324  0.00  0.00    +0.342 C 
ATOM     27  O   LIG    1       25.672 -26.470   4.503  0.00  0.00    -0.245 OA
BRANCH  26  28
ATOM     28  O   LIG    1       23.650 -25.956   5.376  0.00  0.00    -0.477 OA
ATOM     29  H   LIG    1       23.820 -25.006   5.530  0.00  0.00    +0.295 HD
ENDBRANCH  26  28
ENDBRANCH   5  26
TORSDOF 5
ENDMDL
MODEL 4
REMARK VINA RESULT:      -5.5     10.153     11.816
REMARK  Name = *****
REMARK                            x       y       z     vdW  Elec       q    Type
REMARK                         _______ _______ _______ _____ _____    ______ ____
ROOT
ATOM      1  C   LIG    1       22.350 -28.991  13.899  0.00  0.00    +0.168 C 
ATOM      2  C   LIG    1       20.977 -28.638  13.802  0.00  0.00    +0.097 C 
ATOM      3  C   LIG    1       20.638 -27.280  13.731  0.00  0.00    +0.052 C 
ATOM      4  C   LIG    1       19.239 -26.882  13.960  0.00  0.00    +0.204 C 
ATOM      5  C   LIG    1       18.256 -27.918  14.296  0.00  0.00    +0.122 C 
ATOM      6  C   LIG    1       18.647 -29.186  14.149  0.00  0.00    +0.105 C 
ATOM      7  O   LIG    1       18.901 -25.682  13.973  0.00  0.00    -0.286 OA
ATOM      8  C   LIG    1       21.613 -26.317  13.511  0.00  0.00    +0.054 C 
ATOM      9  C   LIG    1       22.952 -26.696  13.451  0.00  0.00    +0.149 C 
ATOM     10  F   LIG    1       23.826 -25.697  13.244  0.00  0.00    -0.203 F 
ATOM     11  N   LIG    1       19.919 -29.603  13.770  0.00  0.00    -0.340 NA
ATOM     12  C   LIG    1       23.395 -28.033  13.652  0.00  0.00    +0.110 C 
ENDROOT
BRANCH  12  13
ATOM     13  N   LIG    1       24.804 -28.334  13.639  0.00  0.00    -0.322 NA
ATOM     14  C   LIG    1       25.585 -27.685  14.736  0.00  0.00    +0.123 C 
ATOM     15  C   LIG    1       27.127 -27.930  14.657  0.00  0.00    +0.068 C 
ATOM     16  C   LIG    1       27.539 -29.296  15.218  0.00  0.00    +0.025 C 
ATOM     17  N   LIG    1       27.709 -27.737  13.314  0.00  0.00    -0.310 NA
ATOM     18  H   LIG    1       27.564 -26.762  13.048  0.00  0.00    +0.122 HD
ATOM     19  C   LIG    1       26.977 -28.574  12.352  0.00  0.00    +0.100 C 
ATOM     20  C   LIG    1       25.476 -28.264  12.322  0.00  0.00    +0.120 C 
ENDBRANCH  12  13
BRANCH  11  21
ATOM     21  C   LIG    1       19.899 -30.638  12.689  0.00  0.00    +0.088 C 
ATOM     22  C   LIG    1       19.921 -32.114  13.037  0.00  0.00    +0.027 C 
ATOM     23  C   LIG    1       18.742 -31.534  12.324  0.00  0.00    +0.027 C 
ENDBRANCH  11  21
BRANCH   1  25
ATOM     24  C   LIG    1       23.029 -30.640  15.499  0.00  0.00    +0.277 C 
ATOM     25  O   LIG    1       22.691 -30.305  14.151  0.00  0.00    -0.491 OA
ENDBRANCH   1  25
BRANCH   5  26
ATOM     26  C   LIG    1       16.904 -27.620  14.774  0.00  0.00    +0.342 C 
ATOM     27  O   LIG    1       15.949 -28.385  14.593  0.00  0.00    -0.245 OA
BRANCH  26  28
ATOM     28  O   LIG    1       16.788 -26.490  15.500  0.00  0.00    -0.477 OA
ATOM     29  H   LIG    1       17.228 -26.545  16.370  0.00  0.00    +0.295 HD
ENDBRANCH  26  28
ENDBRANCH   5  26
TORSDOF 5
ENDMDL
MODEL 5
REMARK VINA RESULT:      -5.5      9.650     11.964
REMARK  Name = *****
REMARK                            x       y       z     vdW  Elec       q    Type
REMARK                         _______ _______ _______ _____ _____    ______ ____
ROOT
ATOM      1  C   LIG    1       24.854 -30.046  10.119  0.00  0.00    +0.168 C 
ATOM      2  C   LIG    1       24.194 -29.495  11.251  0.00  0.00    +0.097 C 
ATOM      3  C   LIG    1       22.830 -29.762  11.426  0.00  0.00    +0.052 C 
ATOM      4  C   LIG    1       22.064 -28.950  12.387  0.00  0.00    +0.204 C 
ATOM      5  C   LIG    1       22.747 -27.863  13.097  0.00  0.00    +0.122 C 
ATOM      6  C   LIG    1       24.078 -27.824  12.995  0.00  0.00    +0.105 C 
ATOM      7  O   LIG    1       20.834 -29.104  12.530  0.00  0.00    -0.286 OA
ATOM      8  C   LIG    1       22.193 -30.731  10.665  0.00  0.00    +0.054 C 
ATOM      9  C   LIG    1       22.896 -31.382   9.653  0.00  0.00    +0.149 C 
ATOM     10  F   LIG    1       22.198 -32.297   8.961  0.00  0.00    -0.203 F 
ATOM     11  N   LIG    1       24.858 -28.682  12.225  0.00  0.00    -0.340 NA
ATOM     12  C   LIG    1       24.243 -31.074   9.316  0.00  0.00    +0.110 C 
ENDROOT
BRANCH  12  13
ATOM     13  N   LIG    1       24.881 -31.746   8.212  0.00  0.00    -0.322 NA
ATOM     14  C   LIG    1       24.193 -31.566   6.898  0.00  0.00    +0.123 C 
ATOM     15  C   LIG    1       24.828 -32.381   5.725  0.00  0.00    +0.068 C 
ATOM     16  C   LIG    1       26.065 -31.698   5.131  0.00  0.00    +0.025 C 
ATOM     17  N   LIG    1       25.134 -33.789   6.053  0.00  0.00    -0.310 NA
ATOM     18  H   LIG    1       24.255 -34.255   6.277  0.00  0.00    +0.122 HD
ATOM     19  C   LIG    1       25.976 -33.825   7.257  0.00  0.00    +0.100 C 
ATOM     20  C   LIG    1       25.318 -33.138   8.459  0.00  0.00    +0.120 C 
ENDBRANCH  12  13
BRANCH  11  21
ATOM     21  C   LIG    1       26.031 -29.236  12.972  0.00  0.00    +0.088 C 
ATOM     22  C   LIG    1       27.398 -28.592  12.844  0.00  0.00    +0.027 C 
ATOM     23  C   LIG    1       26.707 -28.618  14.170  0.00  0.00    +0.027 C 
ENDBRANCH  11  21
BRANCH   1  25
ATOM     24  C   LIG    1       26.299 -28.490   9.009  0.00  0.00    +0.277 C 
ATOM     25  O   LIG    1       26.145 -29.650   9.833  0.00  0.00    -0.491 OA
ENDBRANCH   1  25
BRANCH   5  26
ATOM     26  C   LIG    1       22.044 -26.849  13.886  0.00  0.00    +0.342 C 
ATOM     27  O   LIG    1       22.530 -26.340  14.902  0.00  0.00    -0.245 OA
BRANCH  26  28
ATOM     28  O   LIG    1       20.861 -26.447  13.379  0.00  0.00    -0.477 OA
ATOM     29  H   LIG    1       20.927 -25.628  12.850  0.00  0.00    +0.295 HD
ENDBRANCH  26  28
ENDBRANCH   5  26
TORSDOF 5
ENDMDL
MODEL 6
REMARK VINA RESULT:      -5.4     10.149     13.354
REMARK  Name = *****
REMARK                            x       y       z     vdW  Elec       q    Type
REMARK                         _______ _______ _______ _____ _____    ______ ____
ROOT
ATOM      1  C   LIG    1       22.140 -29.937  12.933  0.00  0.00    +0.168 C 
ATOM      2  C   LIG    1       23.269 -29.558  12.158  0.00  0.00    +0.097 C 
ATOM      3  C   LIG    1       23.345 -29.994  10.828  0.00  0.00    +0.052 C 
ATOM      4  C   LIG    1       24.633 -29.897  10.120  0.00  0.00    +0.204 C 
ATOM      5  C   LIG    1       25.801 -29.385  10.844  0.00  0.00    +0.122 C 
ATOM      6  C   LIG    1       25.570 -28.824  12.034  0.00  0.00    +0.105 C 
ATOM      7  O   LIG    1       24.767 -30.334   8.959  0.00  0.00    -0.286 OA
ATOM      8  C   LIG    1       22.246 -30.568  10.206  0.00  0.00    +0.054 C 
ATOM      9  C   LIG    1       21.082 -30.794  10.938  0.00  0.00    +0.149 C 
ATOM     10  F   LIG    1       20.073 -31.361  10.258  0.00  0.00    -0.203 F 
ATOM     11  N   LIG    1       24.334 -28.747  12.667  0.00  0.00    -0.340 NA
ATOM     12  C   LIG    1       20.966 -30.509  12.327  0.00  0.00    +0.110 C 
ENDROOT
BRANCH  12  13
ATOM     13  N   LIG    1       19.750 -30.832  13.029  0.00  0.00    -0.322 NA
ATOM     14  C   LIG    1       19.144 -29.688  13.776  0.00  0.00    +0.123 C 
ATOM     15  C   LIG    1       17.885 -30.068  14.620  0.00  0.00    +0.068 C 
ATOM     16  C   LIG    1       16.608 -30.148  13.775  0.00  0.00    +0.025 C 
ATOM     17  N   LIG    1       18.035 -31.296  15.427  0.00  0.00    -0.310 NA
ATOM     18  H   LIG    1       18.788 -31.137  16.098  0.00  0.00    +0.122 HD
ATOM     19  C   LIG    1       18.451 -32.396  14.546  0.00  0.00    +0.100 C 
ATOM     20  C   LIG    1       19.756 -32.096  13.799  0.00  0.00    +0.120 C 
ENDBRANCH  12  13
BRANCH  11  21
ATOM     21  C   LIG    1       24.030 -27.379  13.195  0.00  0.00    +0.088 C 
ATOM     22  C   LIG    1       24.315 -27.034  14.644  0.00  0.00    +0.027 C 
ATOM     23  C   LIG    1       25.034 -26.311  13.550  0.00  0.00    +0.027 C 
ENDBRANCH  11  21
BRANCH   1  25
ATOM     24  C   LIG    1       22.797 -30.612  15.136  0.00  0.00    +0.277 C 
ATOM     25  O   LIG    1       22.134 -29.670  14.288  0.00  0.00    -0.491 OA
ENDBRANCH   1  25
BRANCH   5  26
ATOM     26  C   LIG    1       27.168 -29.465  10.325  0.00  0.00    +0.342 C 
ATOM     27  O   LIG    1       28.079 -30.040  10.933  0.00  0.00    -0.245 OA
BRANCH  26  28
ATOM     28  O   LIG    1       27.348 -28.940   9.097  0.00  0.00    -0.477 OA
ATOM     29  H   LIG    1       26.874 -28.095   8.967  0.00  0.00    +0.295 HD
ENDBRANCH  26  28
ENDBRANCH   5  26
TORSDOF 5
ENDMDL
MODEL 7
REMARK VINA RESULT:      -5.4      9.666     12.195
REMARK  Name = *****
REMARK                            x       y       z     vdW  Elec       q    Type
REMARK                         _______ _______ _______ _____ _____    ______ ____
ROOT
ATOM      1  C   LIG    1       25.660 -29.623  12.026  0.00  0.00    +0.168 C 
ATOM      2  C   LIG    1       25.840 -28.522  12.907  0.00  0.00    +0.097 C 
ATOM      3  C   LIG    1       24.748 -27.680  13.157  0.00  0.00    +0.052 C 
ATOM      4  C   LIG    1       24.988 -26.372  13.790  0.00  0.00    +0.204 C 
ATOM      5  C   LIG    1       26.368 -25.979  14.097  0.00  0.00    +0.122 C 
ATOM      6  C   LIG    1       27.299 -26.929  13.993  0.00  0.00    +0.105 C 
ATOM      7  O   LIG    1       24.059 -25.560  13.971  0.00  0.00    -0.286 OA
ATOM      8  C   LIG    1       23.468 -28.041  12.761  0.00  0.00    +0.054 C 
ATOM      9  C   LIG    1       23.280 -29.210  12.026  0.00  0.00    +0.149 C 
ATOM     10  F   LIG    1       22.011 -29.475  11.677  0.00  0.00    -0.203 F 
ATOM     11  N   LIG    1       27.083 -28.233  13.556  0.00  0.00    -0.340 NA
ATOM     12  C   LIG    1       24.350 -30.051  11.609  0.00  0.00    +0.110 C 
ENDROOT
BRANCH  12  13
ATOM     13  N   LIG    1       24.081 -31.209  10.796  0.00  0.00    -0.322 NA
ATOM     14  C   LIG    1       23.706 -30.898   9.383  0.00  0.00    +0.123 C 
ATOM     15  C   LIG    1       23.313 -32.150   8.533  0.00  0.00    +0.068 C 
ATOM     16  C   LIG    1       24.533 -32.914   8.006  0.00  0.00    +0.025 C 
ATOM     17  N   LIG    1       22.386 -33.081   9.207  0.00  0.00    -0.310 NA
ATOM     18  H   LIG    1       21.516 -32.579   9.388  0.00  0.00    +0.122 HD
ATOM     19  C   LIG    1       22.956 -33.464  10.507  0.00  0.00    +0.100 C 
ATOM     20  C   LIG    1       23.234 -32.256  11.409  0.00  0.00    +0.120 C 
ENDBRANCH  12  13
BRANCH  11  21
ATOM     21  C   LIG    1       27.705 -29.261  14.449  0.00  0.00    +0.088 C 
ATOM     22  C   LIG    1       29.068 -29.839  14.121  0.00  0.00    +0.027 C 
ATOM     23  C   LIG    1       28.873 -29.054  15.379  0.00  0.00    +0.027 C 
ENDBRANCH  11  21
BRANCH   1  25
ATOM     24  C   LIG    1       27.408 -29.945  10.418  0.00  0.00    +0.277 C 
ATOM     25  O   LIG    1       26.762 -30.353  11.628  0.00  0.00    -0.491 OA
ENDBRANCH   1  25
BRANCH   5  26
ATOM     26  C   LIG    1       26.747 -24.623  14.501  0.00  0.00    +0.342 C 
ATOM     27  O   LIG    1       27.808 -24.095  14.148  0.00  0.00    -0.245 OA
BRANCH  26  28
ATOM     28  O   LIG    1       25.819 -23.956  15.216  0.00  0.00    -0.477 OA
ATOM     29  H   LIG    1       26.203 -23.408  15.927  0.00  0.00    +0.295 HD
ENDBRANCH  26  28
ENDBRANCH   5  26
TORSDOF 5
ENDMDL
MODEL 8
REMARK VINA RESULT:      -5.3      9.371     11.108
REMARK  Name = *****
REMARK                            x       y       z     vdW  Elec       q    Type
REMARK                         _______ _______ _______ _____ _____    ______ ____
ROOT
ATOM      1  C   LIG    1       23.149 -28.551  13.286  0.00  0.00    +0.168 C 
ATOM      2  C   LIG    1       22.321 -29.498  12.625  0.00  0.00    +0.097 C 
ATOM      3  C   LIG    1       22.791 -30.093  11.447  0.00  0.00    +0.052 C 
ATOM      4  C   LIG    1       21.839 -30.812  10.583  0.00  0.00    +0.204 C 
ATOM      5  C   LIG    1       20.423 -30.844  10.965  0.00  0.00    +0.122 C 
ATOM      6  C   LIG    1       20.124 -30.413  12.193  0.00  0.00    +0.105 C 
ATOM      7  O   LIG    1       22.197 -31.300   9.492  0.00  0.00    -0.286 OA
ATOM      8  C   LIG    1       24.118 -29.956  11.064  0.00  0.00    +0.054 C 
ATOM      9  C   LIG    1       24.969 -29.144  11.812  0.00  0.00    +0.149 C 
ATOM     10  F   LIG    1       26.232 -29.064  11.363  0.00  0.00    -0.203 F 
ATOM     11  N   LIG    1       21.027 -29.879  13.107  0.00  0.00    -0.340 NA
ATOM     12  C   LIG    1       24.539 -28.394  12.942  0.00  0.00    +0.110 C 
ENDROOT
BRANCH  12  13
ATOM     13  N   LIG    1       25.464 -27.526  13.624  0.00  0.00    -0.322 NA
ATOM     14  C   LIG    1       25.966 -26.386  12.797  0.00  0.00    +0.123 C 
ATOM     15  C   LIG    1       27.048 -25.508  13.506  0.00  0.00    +0.068 C 
ATOM     16  C   LIG    1       26.440 -24.490  14.478  0.00  0.00    +0.025 C 
ATOM     17  N   LIG    1       28.116 -26.276  14.178  0.00  0.00    -0.310 NA
ATOM     18  H   LIG    1       28.610 -26.812  13.465  0.00  0.00    +0.122 HD
ATOM     19  C   LIG    1       27.501 -27.234  15.107  0.00  0.00    +0.100 C 
ATOM     20  C   LIG    1       26.526 -28.191  14.411  0.00  0.00    +0.120 C 
ENDBRANCH  12  13
BRANCH  11  21
ATOM     21  C   LIG    1       20.895 -30.471  14.476  0.00  0.00    +0.088 C 
ATOM     22  C   LIG    1       19.955 -29.855  15.493  0.00  0.00    +0.027 C 
ATOM     23  C   LIG    1       19.719 -31.249  15.008  0.00  0.00    +0.027 C 
ENDBRANCH  11  21
BRANCH   1  25
ATOM     24  C   LIG    1       22.035 -26.564  14.028  0.00  0.00    +0.277 C 
ATOM     25  O   LIG    1       22.633 -27.825  14.340  0.00  0.00    -0.491 OA
ENDBRANCH   1  25
BRANCH   5  26
ATOM     26  C   LIG    1       19.360 -31.316  10.076  0.00  0.00    +0.342 C 
ATOM     27  O   LIG    1       19.164 -32.516   9.850  0.00  0.00    -0.245 OA
BRANCH  26  28
ATOM     28  O   LIG    1       18.554 -30.354   9.584  0.00  0.00    -0.477 OA
ATOM     29  H   LIG    1       18.455 -30.394   8.613  0.00  0.00    +0.295 HD
ENDBRANCH  26  28
ENDBRANCH   5  26
TORSDOF 5
ENDMDL
MODEL 9
REMARK VINA RESULT:      -5.2      9.815     12.982
REMARK  Name = *****
REMARK                            x       y       z     vdW  Elec       q    Type
REMARK                         _______ _______ _______ _____ _____    ______ ____
ROOT
ATOM      1  C   LIG    1       22.845 -29.435  12.745  0.00  0.00    +0.168 C 
ATOM      2  C   LIG    1       23.830 -28.587  13.319  0.00  0.00    +0.097 C 
ATOM      3  C   LIG    1       23.531 -27.228  13.484  0.00  0.00    +0.052 C 
ATOM      4  C   LIG    1       24.628 -26.287  13.764  0.00  0.00    +0.204 C 
ATOM      5  C   LIG    1       26.002 -26.798  13.819  0.00  0.00    +0.122 C 
ATOM      6  C   LIG    1       26.147 -28.125  13.838  0.00  0.00    +0.105 C 
ATOM      7  O   LIG    1       24.421 -25.059  13.852  0.00  0.00    -0.286 OA
ATOM      8  C   LIG    1       22.233 -26.763  13.325  0.00  0.00    +0.054 C 
ATOM      9  C   LIG    1       21.235 -27.642  12.909  0.00  0.00    +0.149 C 
ATOM     10  F   LIG    1       20.012 -27.104  12.773  0.00  0.00    -0.203 F 
ATOM     11  N   LIG    1       25.115 -29.055  13.744  0.00  0.00    -0.340 NA
ATOM     12  C   LIG    1       21.480 -29.006  12.586  0.00  0.00    +0.110 C 
ENDROOT
BRANCH  12  13
ATOM     13  N   LIG    1       20.406 -29.834  12.099  0.00  0.00    -0.322 NA
ATOM     14  C   LIG    1       19.878 -30.812  13.099  0.00  0.00    +0.123 C 
ATOM     15  C   LIG    1       18.786 -31.778  12.536  0.00  0.00    +0.068 C 
ATOM     16  C   LIG    1       17.396 -31.134  12.483  0.00  0.00    +0.025 C 
ATOM     17  N   LIG    1       19.116 -32.380  11.228  0.00  0.00    -0.310 NA
ATOM     18  H   LIG    1       19.958 -32.944  11.348  0.00  0.00    +0.122 HD
ATOM     19  C   LIG    1       19.433 -31.305  10.276  0.00  0.00    +0.100 C 
ATOM     20  C   LIG    1       20.588 -30.416  10.751  0.00  0.00    +0.120 C 
ENDBRANCH  12  13
BRANCH  11  21
ATOM     21  C   LIG    1       25.203 -30.134  14.778  0.00  0.00    +0.088 C 
ATOM     22  C   LIG    1       25.849 -31.465  14.447  0.00  0.00    +0.027 C 
ATOM     23  C   LIG    1       26.447 -30.587  15.500  0.00  0.00    +0.027 C 
ENDBRANCH  11  21
BRANCH   1  25
ATOM     24  C   LIG    1       23.981 -30.909  11.236  0.00  0.00    +0.277 C 
ATOM     25  O   LIG    1       23.184 -30.731  12.410  0.00  0.00    -0.491 OA
ENDBRANCH   1  25
BRANCH   5  26
ATOM     26  C   LIG    1       27.183 -25.932  13.851  0.00  0.00    +0.342 C 
ATOM     27  O   LIG    1       28.149 -26.151  14.589  0.00  0.00    -0.245 OA
BRANCH  26  28
ATOM     28  O   LIG    1       27.179 -24.925  12.956  0.00  0.00    -0.477 OA
ATOM     29  H   LIG    1       27.982 -24.370  12.997  0.00  0.00    +0.295 HD
ENDBRANCH  26  28
ENDBRANCH   5  26
TORSDOF 5
ENDMDL
