MODEL 1
REMARK VINA RESULT:      -5.2      0.000      0.000
REMARK  Name = *****
REMARK                            x       y       z     vdW  Elec       q    Type
REMARK                         _______ _______ _______ _____ _____    ______ ____
ROOT
ATOM      1  C   LIG    1       23.109 -20.347   5.184  0.00  0.00    +0.052 C 
ATOM      2  C   LIG    1       24.210 -20.708   4.204  0.00  0.00    +0.226 C 
ATOM      3  O   LIG    1       24.141 -20.645   2.988  0.00  0.00    -0.275 OA
ATOM      4  N   LIG    1       25.307 -21.102   4.898  0.00  0.00    -0.256 N 
ATOM      5  H   LIG    1       26.171 -21.371   4.454  0.00  0.00    +0.158 HD
ATOM      6  C   LIG    1       25.131 -21.103   6.241  0.00  0.00    +0.220 C 
ATOM      7  O   LIG    1       25.977 -21.412   7.061  0.00  0.00    -0.275 OA
ATOM      8  C   LIG    1       23.723 -20.687   6.554  0.00  0.00    +0.112 C 
ATOM      9  C   LIG    1       21.891 -21.237   4.904  0.00  0.00    +0.021 C 
ENDROOT
BRANCH   1  11
ATOM     10  C   LIG    1       21.582 -18.574   4.059  0.00  0.00    +0.005 C 
ATOM     11  C   LIG    1       22.716 -18.862   5.037  0.00  0.00    +0.013 C 
ENDBRANCH   1  11
TORSDOF 1
ENDMDL
MODEL 2
REMARK VINA RESULT:      -5.2      6.883      7.486
REMARK  Name = *****
REMARK                            x       y       z     vdW  Elec       q    Type
REMARK                         _______ _______ _______ _____ _____    ______ ____
ROOT
ATOM      1  C   LIG    1       25.997 -14.414   3.855  0.00  0.00    +0.052 C 
ATOM      2  C   LIG    1       26.127 -13.453   2.688  0.00  0.00    +0.226 C 
ATOM      3  O   LIG    1       25.298 -13.269   1.812  0.00  0.00    -0.275 OA
ATOM      4  N   LIG    1       27.317 -12.808   2.777  0.00  0.00    -0.256 N 
ATOM      5  H   LIG    1       27.612 -12.105   2.117  0.00  0.00    +0.158 HD
ATOM      6  C   LIG    1       28.071 -13.199   3.831  0.00  0.00    +0.220 C 
ATOM      7  O   LIG    1       29.170 -12.754   4.114  0.00  0.00    -0.275 OA
ATOM      8  C   LIG    1       27.349 -14.282   4.579  0.00  0.00    +0.112 C 
ATOM      9  C   LIG    1       25.816 -15.834   3.305  0.00  0.00    +0.021 C 
ENDROOT
BRANCH   1  11
ATOM     10  C   LIG    1       23.482 -14.753   4.407  0.00  0.00    +0.005 C 
ATOM     11  C   LIG    1       24.788 -14.037   4.738  0.00  0.00    +0.013 C 
ENDBRANCH   1  11
TORSDOF 1
ENDMDL
MODEL 3
REMARK VINA RESULT:      -4.9      7.095      7.721
REMARK  Name = *****
REMARK                            x       y       z     vdW  Elec       q    Type
REMARK                         _______ _______ _______ _____ _____    ______ ____
ROOT
ATOM      1  C   LIG    1       25.414 -13.553   3.763  0.00  0.00    +0.052 C 
ATOM      2  C   LIG    1       26.618 -13.913   2.912  0.00  0.00    +0.226 C 
ATOM      3  O   LIG    1       26.591 -14.439   1.812  0.00  0.00    -0.275 OA
ATOM      4  N   LIG    1       27.747 -13.540   3.565  0.00  0.00    -0.256 N 
ATOM      5  H   LIG    1       28.670 -13.663   3.180  0.00  0.00    +0.158 HD
ATOM      6  C   LIG    1       27.517 -12.991   4.781  0.00  0.00    +0.220 C 
ATOM      7  O   LIG    1       28.376 -12.578   5.540  0.00  0.00    -0.275 OA
ATOM      8  C   LIG    1       26.041 -12.995   5.053  0.00  0.00    +0.112 C 
ATOM      9  C   LIG    1       24.620 -14.832   4.058  0.00  0.00    +0.021 C 
ENDROOT
BRANCH   1  11
ATOM     10  C   LIG    1       23.835 -11.497   3.914  0.00  0.00    +0.005 C 
ATOM     11  C   LIG    1       24.514 -12.537   3.028  0.00  0.00    +0.013 C 
ENDBRANCH   1  11
TORSDOF 1
ENDMDL
MODEL 4
REMARK VINA RESULT:      -4.8      6.866      8.093
REMARK  Name = *****
REMARK                            x       y       z     vdW  Elec       q    Type
REMARK                         _______ _______ _______ _____ _____    ______ ____
ROOT
ATOM      1  C   LIG    1       25.708 -14.073   3.851  0.00  0.00    +0.052 C 
ATOM      2  C   LIG    1       24.199 -14.146   3.995  0.00  0.00    +0.226 C 
ATOM      3  O   LIG    1       23.579 -14.938   4.685  0.00  0.00    -0.275 OA
ATOM      4  N   LIG    1       23.635 -13.171   3.239  0.00  0.00    -0.256 N 
ATOM      5  H   LIG    1       22.641 -13.015   3.194  0.00  0.00    +0.158 HD
ATOM      6  C   LIG    1       24.534 -12.429   2.548  0.00  0.00    +0.220 C 
ATOM      7  O   LIG    1       24.260 -11.498   1.812  0.00  0.00    -0.275 OA
ATOM      8  C   LIG    1       25.915 -12.954   2.815  0.00  0.00    +0.112 C 
ATOM      9  C   LIG    1       26.215 -15.414   3.305  0.00  0.00    +0.021 C 
ENDROOT
BRANCH   1  11
ATOM     10  C   LIG    1       27.750 -13.134   5.150  0.00  0.00    +0.005 C 
ATOM     11  C   LIG    1       26.370 -13.780   5.214  0.00  0.00    +0.013 C 
ENDBRANCH   1  11
TORSDOF 1
ENDMDL
MODEL 5
REMARK VINA RESULT:      -4.7      6.355      7.176
REMARK  Name = *****
REMARK                            x       y       z     vdW  Elec       q    Type
REMARK                         _______ _______ _______ _____ _____    ______ ____
ROOT
ATOM      1  C   LIG    1       25.895 -13.699   3.593  0.00  0.00    +0.052 C 
ATOM      2  C   LIG    1       27.367 -14.007   3.793  0.00  0.00    +0.226 C 
ATOM      3  O   LIG    1       28.248 -13.194   4.022  0.00  0.00    -0.275 OA
ATOM      4  N   LIG    1       27.557 -15.346   3.693  0.00  0.00    -0.256 N 
ATOM      5  H   LIG    1       28.456 -15.785   3.811  0.00  0.00    +0.158 HD
ATOM      6  C   LIG    1       26.425 -16.037   3.417  0.00  0.00    +0.220 C 
ATOM      7  O   LIG    1       26.353 -17.247   3.289  0.00  0.00    -0.275 OA
ATOM      8  C   LIG    1       25.283 -15.074   3.269  0.00  0.00    +0.112 C 
ATOM      9  C   LIG    1       25.749 -12.750   2.397  0.00  0.00    +0.021 C 
ENDROOT
BRANCH   1  11
ATOM     10  C   LIG    1       24.040 -12.213   4.637  0.00  0.00    +0.005 C 
ATOM     11  C   LIG    1       25.300 -13.044   4.857  0.00  0.00    +0.013 C 
ENDBRANCH   1  11
TORSDOF 1
ENDMDL
MODEL 6
REMARK VINA RESULT:      -4.7      1.353      1.574
REMARK  Name = *****
REMARK                            x       y       z     vdW  Elec       q    Type
REMARK                         _______ _______ _______ _____ _____    ______ ____
ROOT
ATOM      1  C   LIG    1       24.320 -20.679   5.023  0.00  0.00    +0.052 C 
ATOM      2  C   LIG    1       25.465 -19.807   4.544  0.00  0.00    +0.226 C 
ATOM      3  O   LIG    1       25.412 -18.974   3.653  0.00  0.00    -0.275 OA
ATOM      4  N   LIG    1       26.571 -20.085   5.279  0.00  0.00    -0.256 N 
ATOM      5  H   LIG    1       27.450 -19.611   5.150  0.00  0.00    +0.158 HD
ATOM      6  C   LIG    1       26.382 -21.061   6.198  0.00  0.00    +0.220 C 
ATOM      7  O   LIG    1       27.228 -21.472   6.972  0.00  0.00    -0.275 OA
ATOM      8  C   LIG    1       24.974 -21.572   6.093  0.00  0.00    +0.112 C 
ATOM      9  C   LIG    1       23.822 -21.527   3.845  0.00  0.00    +0.021 C 
ENDROOT
BRANCH   1  11
ATOM     10  C   LIG    1       22.297 -19.134   4.513  0.00  0.00    +0.005 C 
ATOM     11  C   LIG    1       23.166 -19.811   5.568  0.00  0.00    +0.013 C 
ENDBRANCH   1  11
TORSDOF 1
ENDMDL
MODEL 7
REMARK VINA RESULT:      -4.5      6.661      7.794
REMARK  Name = *****
REMARK                            x       y       z     vdW  Elec       q    Type
REMARK                         _______ _______ _______ _____ _____    ______ ____
ROOT
ATOM      1  C   LIG    1       25.664 -14.335   3.882  0.00  0.00    +0.052 C 
ATOM      2  C   LIG    1       26.057 -13.705   2.559  0.00  0.00    +0.226 C 
ATOM      3  O   LIG    1       26.943 -14.090   1.814  0.00  0.00    -0.275 OA
ATOM      4  N   LIG    1       25.249 -12.642   2.318  0.00  0.00    -0.256 N 
ATOM      5  H   LIG    1       25.313 -12.081   1.484  0.00  0.00    +0.158 HD
ATOM      6  C   LIG    1       24.352 -12.405   3.304  0.00  0.00    +0.220 C 
ATOM      7  O   LIG    1       23.524 -11.511   3.303  0.00  0.00    -0.275 OA
ATOM      8  C   LIG    1       24.557 -13.402   4.408  0.00  0.00    +0.112 C 
ATOM      9  C   LIG    1       26.879 -14.310   4.818  0.00  0.00    +0.021 C 
ENDROOT
BRANCH   1  11
ATOM     10  C   LIG    1       26.302 -16.815   3.454  0.00  0.00    +0.005 C 
ATOM     11  C   LIG    1       25.194 -15.790   3.673  0.00  0.00    +0.013 C 
ENDBRANCH   1  11
TORSDOF 1
ENDMDL
MODEL 8
REMARK VINA RESULT:      -4.4      7.102      8.169
REMARK  Name = *****
REMARK                            x       y       z     vdW  Elec       q    Type
REMARK                         _______ _______ _______ _____ _____    ______ ____
ROOT
ATOM      1  C   LIG    1       26.743 -14.136   4.214  0.00  0.00    +0.052 C 
ATOM      2  C   LIG    1       27.585 -13.201   3.366  0.00  0.00    +0.226 C 
ATOM      3  O   LIG    1       28.786 -13.018   3.473  0.00  0.00    -0.275 OA
ATOM      4  N   LIG    1       26.790 -12.603   2.444  0.00  0.00    -0.256 N 
ATOM      5  H   LIG    1       27.138 -11.954   1.756  0.00  0.00    +0.158 HD
ATOM      6  C   LIG    1       25.487 -12.958   2.537  0.00  0.00    +0.220 C 
ATOM      7  O   LIG    1       24.594 -12.555   1.812  0.00  0.00    -0.275 OA
ATOM      8  C   LIG    1       25.314 -13.907   3.687  0.00  0.00    +0.112 C 
ATOM      9  C   LIG    1       26.852 -13.701   5.681  0.00  0.00    +0.021 C 
ENDROOT
BRANCH   1  11
ATOM     10  C   LIG    1       26.282 -16.527   3.312  0.00  0.00    +0.005 C 
ATOM     11  C   LIG    1       27.228 -15.593   4.062  0.00  0.00    +0.013 C 
ENDBRANCH   1  11
TORSDOF 1
ENDMDL
MODEL 9
REMARK VINA RESULT:      -4.4      7.360      8.417
REMARK  Name = *****
REMARK                            x       y       z     vdW  Elec       q    Type
REMARK                         _______ _______ _______ _____ _____    ______ ____
ROOT
ATOM      1  C   LIG    1       26.924 -14.090   3.542  0.00  0.00    +0.052 C 
ATOM      2  C   LIG    1       26.299 -13.609   4.838  0.00  0.00    +0.226 C 
ATOM      3  O   LIG    1       26.733 -13.805   5.962  0.00  0.00    -0.275 OA
ATOM      4  N   LIG    1       25.176 -12.905   4.553  0.00  0.00    -0.256 N 
ATOM      5  H   LIG    1       24.605 -12.471   5.261  0.00  0.00    +0.158 HD
ATOM      6  C   LIG    1       24.894 -12.842   3.231  0.00  0.00    +0.220 C 
ATOM      7  O   LIG    1       23.942 -12.259   2.741  0.00  0.00    -0.275 OA
ATOM      8  C   LIG    1       25.924 -13.624   2.468  0.00  0.00    +0.112 C 
ATOM      9  C   LIG    1       27.006 -15.621   3.573  0.00  0.00    +0.021 C 
ENDROOT
BRANCH   1  11
ATOM     10  C   LIG    1       28.715 -12.393   4.351  0.00  0.00    +0.005 C 
ATOM     11  C   LIG    1       28.337 -13.494   3.366  0.00  0.00    +0.013 C 
ENDBRANCH   1  11
TORSDOF 1
ENDMDL
