MODEL 1
REMARK VINA RESULT:      -7.6      0.000      0.000
REMARK  Name = *****
REMARK                            x       y       z     vdW  Elec       q    Type
REMARK                         _______ _______ _______ _____ _____    ______ ____
ROOT
ATOM      1  C   LIG    1       25.294 -23.010   5.872  0.00  0.00    +0.042 C 
ATOM      2  C   LIG    1       25.058 -21.653   6.547  0.00  0.00    +0.069 C 
ATOM      3  C   LIG    1       26.279 -21.084   7.369  0.00  0.00    -0.000 C 
ATOM      4  C   LIG    1       25.764 -20.207   8.550  0.00  0.00    +0.014 C 
ATOM      5  C   LIG    1       26.969 -20.114   6.350  0.00  0.00    +0.001 C 
ATOM      6  C   LIG    1       28.470 -20.258   6.092  0.00  0.00    -0.004 C 
ATOM      7  C   LIG    1       29.242 -20.817   7.323  0.00  0.00    -0.001 C 
ATOM      8  C   LIG    1       28.599 -22.217   7.491  0.00  0.00    +0.005 C 
ATOM      9  C   LIG    1       29.802 -19.819   8.525  0.00  0.00    -0.022 C 
ATOM     10  C   LIG    1       30.823 -20.978   9.026  0.00  0.00    +0.012 C 
ATOM     11  C   LIG    1       30.032 -18.467   7.689  0.00  0.00    +0.001 C 
ATOM     12  C   LIG    1       31.492 -18.377   7.367  0.00  0.00    +0.059 C 
ATOM     13  C   LIG    1       32.005 -17.863   8.648  0.00  0.00    +0.040 A 
ATOM     14  C   LIG    1       31.432 -18.184   9.879  0.00  0.00    -0.006 A 
ATOM     15  C   LIG    1       32.122 -17.295  10.729  0.00  0.00    +0.138 A 
ATOM     16  N   LIG    1       32.892 -16.420  10.088  0.00  0.00    -0.182 NA
ATOM     17  N   LIG    1       32.715 -16.713   8.783  0.00  0.00    -0.281 N 
ATOM     18  H   LIG    1       32.948 -16.047   8.065  0.00  0.00    +0.189 HD
ATOM     19  C   LIG    1       29.125 -17.974   6.575  0.00  0.00    +0.005 C 
ATOM     20  C   LIG    1       30.075 -19.091  10.009  0.00  0.00    +0.045 C 
ATOM     21  C   LIG    1       29.048 -18.989   5.494  0.00  0.00    +0.004 C 
ATOM     22  C   LIG    1       26.193 -20.211   5.028  0.00  0.00    +0.007 C 
ATOM     23  C   LIG    1       27.195 -22.143   8.040  0.00  0.00    +0.010 C 
ATOM     24  C   LIG    1       24.802 -20.580   5.476  0.00  0.00    +0.035 C 
ENDROOT
BRANCH   2  25
ATOM     25  O   LIG    1       23.895 -21.784   7.363  0.00  0.00    -0.388 OA
ATOM     26  H   LIG    1       24.133 -22.323   8.138  0.00  0.00    +0.210 HD
ENDBRANCH   2  25
TORSDOF 1
ENDMDL
MODEL 2
REMARK VINA RESULT:      -6.5     10.684     13.216
REMARK  Name = *****
REMARK                            x       y       z     vdW  Elec       q    Type
REMARK                         _______ _______ _______ _____ _____    ______ ____
ROOT
ATOM      1  C   LIG    1       27.820 -29.708  12.912  0.00  0.00    +0.042 C 
ATOM      2  C   LIG    1       26.790 -29.331  11.841  0.00  0.00    +0.069 C 
ATOM      3  C   LIG    1       25.285 -29.335  12.315  0.00  0.00    -0.000 C 
ATOM      4  C   LIG    1       24.351 -29.692  11.121  0.00  0.00    +0.014 C 
ATOM      5  C   LIG    1       25.021 -27.830  12.665  0.00  0.00    +0.001 C 
ATOM      6  C   LIG    1       24.429 -27.481  14.032  0.00  0.00    -0.004 C 
ATOM      7  C   LIG    1       23.525 -28.613  14.603  0.00  0.00    -0.001 C 
ATOM      8  C   LIG    1       24.534 -29.782  14.748  0.00  0.00    +0.005 C 
ATOM      9  C   LIG    1       21.916 -28.719  14.216  0.00  0.00    -0.022 C 
ATOM     10  C   LIG    1       21.659 -29.681  15.499  0.00  0.00    +0.012 C 
ATOM     11  C   LIG    1       21.584 -27.171  13.946  0.00  0.00    +0.001 C 
ATOM     12  C   LIG    1       20.929 -26.627  15.177  0.00  0.00    +0.059 C 
ATOM     13  C   LIG    1       19.556 -27.123  14.977  0.00  0.00    +0.040 A 
ATOM     14  C   LIG    1       19.270 -28.326  14.332  0.00  0.00    -0.006 A 
ATOM     15  C   LIG    1       17.869 -28.228  14.204  0.00  0.00    +0.138 A 
ATOM     16  N   LIG    1       17.373 -27.047  14.562  0.00  0.00    -0.182 NA
ATOM     17  N   LIG    1       18.454 -26.329  14.930  0.00  0.00    -0.281 N 
ATOM     18  H   LIG    1       18.418 -25.324  14.979  0.00  0.00    +0.189 HD
ATOM     19  C   LIG    1       22.524 -26.192  13.265  0.00  0.00    +0.005 C 
ATOM     20  C   LIG    1       20.432 -29.260  13.654  0.00  0.00    +0.045 C 
ATOM     21  C   LIG    1       23.799 -26.101  14.021  0.00  0.00    +0.004 C 
ATOM     22  C   LIG    1       26.339 -27.073  12.450  0.00  0.00    +0.007 C 
ATOM     23  C   LIG    1       24.926 -30.371  13.415  0.00  0.00    +0.010 C 
ATOM     24  C   LIG    1       27.028 -27.882  11.382  0.00  0.00    +0.035 C 
ENDROOT
BRANCH   2  25
ATOM     25  O   LIG    1       26.991 -30.209  10.734  0.00  0.00    -0.388 OA
ATOM     26  H   LIG    1       26.312 -30.007  10.066  0.00  0.00    +0.210 HD
ENDBRANCH   2  25
TORSDOF 1
ENDMDL
MODEL 3
REMARK VINA RESULT:      -6.1     11.807     14.286
REMARK  Name = *****
REMARK                            x       y       z     vdW  Elec       q    Type
REMARK                         _______ _______ _______ _____ _____    ______ ____
ROOT
ATOM      1  C   LIG    1       25.499 -31.450  12.529  0.00  0.00    +0.042 C 
ATOM      2  C   LIG    1       24.487 -30.936  11.497  0.00  0.00    +0.069 C 
ATOM      3  C   LIG    1       23.061 -30.573  12.068  0.00  0.00    -0.000 C 
ATOM      4  C   LIG    1       21.976 -30.803  10.975  0.00  0.00    +0.014 C 
ATOM      5  C   LIG    1       23.156 -29.025  12.296  0.00  0.00    +0.001 C 
ATOM      6  C   LIG    1       22.769 -28.454  13.661  0.00  0.00    -0.004 C 
ATOM      7  C   LIG    1       21.695 -29.313  14.391  0.00  0.00    -0.001 C 
ATOM      8  C   LIG    1       22.438 -30.661  14.574  0.00  0.00    +0.005 C 
ATOM      9  C   LIG    1       20.073 -29.090  14.120  0.00  0.00    -0.022 C 
ATOM     10  C   LIG    1       19.725 -29.874  15.500  0.00  0.00    +0.012 C 
ATOM     11  C   LIG    1       20.059 -27.532  13.733  0.00  0.00    +0.001 C 
ATOM     12  C   LIG    1       19.641 -26.766  14.950  0.00  0.00    +0.059 C 
ATOM     13  C   LIG    1       18.182 -26.961  14.885  0.00  0.00    +0.040 A 
ATOM     14  C   LIG    1       17.592 -28.117  14.373  0.00  0.00    -0.006 A 
ATOM     15  C   LIG    1       16.239 -27.722  14.328  0.00  0.00    +0.138 A 
ATOM     16  N   LIG    1       16.038 -26.437  14.609  0.00  0.00    -0.182 NA
ATOM     17  N   LIG    1       17.276 -25.950  14.839  0.00  0.00    -0.281 N 
ATOM     18  H   LIG    1       17.460 -24.961  14.799  0.00  0.00    +0.189 HD
ATOM     19  C   LIG    1       21.127 -26.837  12.906  0.00  0.00    +0.005 C 
ATOM     20  C   LIG    1       18.467 -29.331  13.708  0.00  0.00    +0.045 C 
ATOM     21  C   LIG    1       22.450 -26.974  13.566  0.00  0.00    +0.004 C 
ATOM     22  C   LIG    1       24.584 -28.595  11.927  0.00  0.00    +0.007 C 
ATOM     23  C   LIG    1       22.583 -31.420  13.278  0.00  0.00    +0.010 C 
ATOM     24  C   LIG    1       24.991 -29.613  10.894  0.00  0.00    +0.035 C 
ENDROOT
BRANCH   2  25
ATOM     25  O   LIG    1       24.403 -31.916  10.464  0.00  0.00    -0.388 OA
ATOM     26  H   LIG    1       23.871 -31.542   9.740  0.00  0.00    +0.210 HD
ENDBRANCH   2  25
TORSDOF 1
ENDMDL
MODEL 4
REMARK VINA RESULT:      -5.8     11.210     13.948
REMARK  Name = *****
REMARK                            x       y       z     vdW  Elec       q    Type
REMARK                         _______ _______ _______ _____ _____    ______ ____
ROOT
ATOM      1  C   LIG    1       27.556 -27.272  14.654  0.00  0.00    +0.042 C 
ATOM      2  C   LIG    1       26.856 -27.372  13.293  0.00  0.00    +0.069 C 
ATOM      3  C   LIG    1       25.532 -28.230  13.273  0.00  0.00    -0.000 C 
ATOM      4  C   LIG    1       25.341 -28.882  11.871  0.00  0.00    +0.014 C 
ATOM      5  C   LIG    1       24.408 -27.149  13.429  0.00  0.00    +0.001 C 
ATOM      6  C   LIG    1       23.350 -27.335  14.518  0.00  0.00    -0.004 C 
ATOM      7  C   LIG    1       23.080 -28.833  14.846  0.00  0.00    -0.001 C 
ATOM      8  C   LIG    1       24.464 -29.296  15.371  0.00  0.00    +0.005 C 
ATOM      9  C   LIG    1       21.983 -29.729  13.982  0.00  0.00    -0.022 C 
ATOM     10  C   LIG    1       21.922 -30.826  15.178  0.00  0.00    +0.012 C 
ATOM     11  C   LIG    1       20.965 -28.573  13.527  0.00  0.00    +0.001 C 
ATOM     12  C   LIG    1       19.792 -28.611  14.456  0.00  0.00    +0.059 C 
ATOM     13  C   LIG    1       19.036 -29.731  13.868  0.00  0.00    +0.040 A 
ATOM     14  C   LIG    1       19.652 -30.815  13.241  0.00  0.00    -0.006 A 
ATOM     15  C   LIG    1       18.532 -31.460  12.676  0.00  0.00    +0.138 A 
ATOM     16  N   LIG    1       17.397 -30.775  12.787  0.00  0.00    -0.182 NA
ATOM     17  N   LIG    1       17.753 -29.643  13.430  0.00  0.00    -0.281 N 
ATOM     18  H   LIG    1       17.168 -28.824  13.403  0.00  0.00    +0.189 HD
ATOM     19  C   LIG    1       21.379 -27.170  13.115  0.00  0.00    +0.005 C 
ATOM     20  C   LIG    1       21.272 -30.901  13.020  0.00  0.00    +0.045 C 
ATOM     21  C   LIG    1       22.111 -26.509  14.225  0.00  0.00    +0.004 C 
ATOM     22  C   LIG    1       25.102 -25.789  13.590  0.00  0.00    +0.007 C 
ATOM     23  C   LIG    1       25.484 -29.422  14.267  0.00  0.00    +0.010 C 
ATOM     24  C   LIG    1       26.397 -25.975  12.843  0.00  0.00    +0.035 C 
ENDROOT
BRANCH   2  25
ATOM     25  O   LIG    1       27.815 -27.870  12.361  0.00  0.00    -0.388 OA
ATOM     26  H   LIG    1       28.377 -27.125  12.084  0.00  0.00    +0.210 HD
ENDBRANCH   2  25
TORSDOF 1
ENDMDL
MODEL 5
REMARK VINA RESULT:      -5.8     11.206     14.239
REMARK  Name = *****
REMARK                            x       y       z     vdW  Elec       q    Type
REMARK                         _______ _______ _______ _____ _____    ______ ____
ROOT
ATOM      1  C   LIG    1       27.924 -29.994  11.365  0.00  0.00    +0.042 C 
ATOM      2  C   LIG    1       26.895 -29.238  10.515  0.00  0.00    +0.069 C 
ATOM      3  C   LIG    1       25.437 -29.844  10.516  0.00  0.00    -0.000 C 
ATOM      4  C   LIG    1       24.733 -29.539   9.161  0.00  0.00    +0.014 C 
ATOM      5  C   LIG    1       24.704 -28.998  11.612  0.00  0.00    +0.001 C 
ATOM      6  C   LIG    1       23.951 -29.725  12.727  0.00  0.00    -0.004 C 
ATOM      7  C   LIG    1       23.405 -31.113  12.280  0.00  0.00    -0.001 C 
ATOM      8  C   LIG    1       24.714 -31.874  11.943  0.00  0.00    +0.005 C 
ATOM      9  C   LIG    1       21.933 -31.269  11.532  0.00  0.00    -0.022 C 
ATOM     10  C   LIG    1       21.907 -32.853  11.889  0.00  0.00    +0.012 C 
ATOM     11  C   LIG    1       21.159 -30.009  12.159  0.00  0.00    +0.001 C 
ATOM     12  C   LIG    1       20.294 -30.517  13.271  0.00  0.00    +0.059 C 
ATOM     13  C   LIG    1       19.155 -31.035  12.494  0.00  0.00    +0.040 A 
ATOM     14  C   LIG    1       19.293 -31.580  11.217  0.00  0.00    -0.006 A 
ATOM     15  C   LIG    1       17.940 -31.706  10.839  0.00  0.00    +0.138 A 
ATOM     16  N   LIG    1       17.084 -31.153  11.693  0.00  0.00    -0.182 NA
ATOM     17  N   LIG    1       17.868 -30.634  12.662  0.00  0.00    -0.281 N 
ATOM     18  H   LIG    1       17.522 -29.923  13.285  0.00  0.00    +0.189 HD
ATOM     19  C   LIG    1       21.792 -28.657  12.441  0.00  0.00    +0.005 C 
ATOM     20  C   LIG    1       20.725 -31.612  10.422  0.00  0.00    +0.045 C 
ATOM     21  C   LIG    1       22.929 -28.815  13.383  0.00  0.00    +0.004 C 
ATOM     22  C   LIG    1       25.736 -28.032  12.211  0.00  0.00    +0.007 C 
ATOM     23  C   LIG    1       25.348 -31.387  10.664  0.00  0.00    +0.010 C 
ATOM     24  C   LIG    1       26.704 -27.818  11.076  0.00  0.00    +0.035 C 
ENDROOT
BRANCH   2  25
ATOM     25  O   LIG    1       27.423 -29.149   9.193  0.00  0.00    -0.388 OA
ATOM     26  H   LIG    1       26.677 -29.015   8.582  0.00  0.00    +0.210 HD
ENDBRANCH   2  25
TORSDOF 1
ENDMDL
MODEL 6
REMARK VINA RESULT:      -5.7      9.525     11.192
REMARK  Name = *****
REMARK                            x       y       z     vdW  Elec       q    Type
REMARK                         _______ _______ _______ _____ _____    ______ ____
ROOT
ATOM      1  C   LIG    1       24.614 -33.825   9.862  0.00  0.00    +0.042 C 
ATOM      2  C   LIG    1       24.300 -32.465   9.225  0.00  0.00    +0.069 C 
ATOM      3  C   LIG    1       24.267 -31.241  10.221  0.00  0.00    -0.000 C 
ATOM      4  C   LIG    1       23.268 -30.163   9.706  0.00  0.00    +0.014 C 
ATOM      5  C   LIG    1       25.705 -30.633  10.081  0.00  0.00    +0.001 C 
ATOM      6  C   LIG    1       26.528 -30.383  11.345  0.00  0.00    -0.004 C 
ATOM      7  C   LIG    1       25.643 -30.083  12.591  0.00  0.00    -0.001 C 
ATOM      8  C   LIG    1       24.842 -31.403  12.735  0.00  0.00    +0.005 C 
ATOM      9  C   LIG    1       25.117 -28.547  12.934  0.00  0.00    -0.022 C 
ATOM     10  C   LIG    1       24.805 -28.986  14.467  0.00  0.00    +0.012 C 
ATOM     11  C   LIG    1       26.304 -27.685  12.281  0.00  0.00    +0.001 C 
ATOM     12  C   LIG    1       27.229 -27.277  13.385  0.00  0.00    +0.059 C 
ATOM     13  C   LIG    1       26.482 -26.132  13.934  0.00  0.00    +0.040 A 
ATOM     14  C   LIG    1       25.089 -26.064  13.933  0.00  0.00    -0.006 A 
ATOM     15  C   LIG    1       24.892 -24.728  14.340  0.00  0.00    +0.138 A 
ATOM     16  N   LIG    1       26.011 -24.013  14.415  0.00  0.00    -0.182 NA
ATOM     17  N   LIG    1       26.982 -24.874  14.043  0.00  0.00    -0.281 N 
ATOM     18  H   LIG    1       27.882 -24.541  13.738  0.00  0.00    +0.189 HD
ATOM     19  C   LIG    1       27.012 -28.034  10.982  0.00  0.00    +0.005 C 
ATOM     20  C   LIG    1       24.151 -27.212  13.237  0.00  0.00    +0.045 C 
ATOM     21  C   LIG    1       27.635 -29.378  11.089  0.00  0.00    +0.004 C 
ATOM     22  C   LIG    1       26.486 -31.528   9.108  0.00  0.00    +0.007 C 
ATOM     23  C   LIG    1       23.791 -31.557  11.665  0.00  0.00    +0.010 C 
ATOM     24  C   LIG    1       25.407 -32.096   8.223  0.00  0.00    +0.035 C 
ENDROOT
BRANCH   2  25
ATOM     25  O   LIG    1       23.065 -32.603   8.525  0.00  0.00    -0.388 OA
ATOM     26  H   LIG    1       23.158 -32.156   7.666  0.00  0.00    +0.210 HD
ENDBRANCH   2  25
TORSDOF 1
ENDMDL
MODEL 7
REMARK VINA RESULT:      -5.6      9.734     11.542
REMARK  Name = *****
REMARK                            x       y       z     vdW  Elec       q    Type
REMARK                         _______ _______ _______ _____ _____    ______ ____
ROOT
ATOM      1  C   LIG    1       20.288 -31.208  12.157  0.00  0.00    +0.042 C 
ATOM      2  C   LIG    1       20.671 -30.855  13.600  0.00  0.00    +0.069 C 
ATOM      3  C   LIG    1       22.101 -30.213  13.785  0.00  0.00    -0.000 C 
ATOM      4  C   LIG    1       22.674 -30.585  15.184  0.00  0.00    +0.014 C 
ATOM      5  C   LIG    1       21.796 -28.676  13.812  0.00  0.00    +0.001 C 
ATOM      6  C   LIG    1       22.578 -27.751  12.878  0.00  0.00    -0.004 C 
ATOM      7  C   LIG    1       24.004 -28.285  12.556  0.00  0.00    -0.001 C 
ATOM      8  C   LIG    1       23.686 -29.620  11.833  0.00  0.00    +0.005 C 
ATOM      9  C   LIG    1       25.298 -27.963  13.544  0.00  0.00    -0.022 C 
ATOM     10  C   LIG    1       26.323 -28.344  12.343  0.00  0.00    +0.012 C 
ATOM     11  C   LIG    1       24.840 -26.554  14.163  0.00  0.00    +0.001 C 
ATOM     12  C   LIG    1       25.550 -25.474  13.407  0.00  0.00    +0.059 C 
ATOM     13  C   LIG    1       26.865 -25.521  14.069  0.00  0.00    +0.040 A 
ATOM     14  C   LIG    1       27.417 -26.697  14.578  0.00  0.00    -0.006 A 
ATOM     15  C   LIG    1       28.527 -26.183  15.279  0.00  0.00    +0.138 A 
ATOM     16  N   LIG    1       28.561 -24.854  15.344  0.00  0.00    -0.182 NA
ATOM     17  N   LIG    1       27.452 -24.461  14.683  0.00  0.00    -0.281 N 
ATOM     18  H   LIG    1       27.072 -23.538  14.811  0.00  0.00    +0.189 HD
ATOM     19  C   LIG    1       23.413 -26.201  14.545  0.00  0.00    +0.005 C 
ATOM     20  C   LIG    1       26.613 -28.124  14.569  0.00  0.00    +0.045 C 
ATOM     21  C   LIG    1       22.526 -26.313  13.360  0.00  0.00    +0.004 C 
ATOM     22  C   LIG    1       20.287 -28.504  13.586  0.00  0.00    +0.007 C 
ATOM     23  C   LIG    1       23.187 -30.683  12.780  0.00  0.00    +0.010 C 
ATOM     24  C   LIG    1       19.711 -29.781  14.141  0.00  0.00    +0.035 C 
ENDROOT
BRANCH   2  25
ATOM     25  O   LIG    1       20.527 -32.043  14.376  0.00  0.00    -0.388 OA
ATOM     26  H   LIG    1       20.631 -31.801  15.313  0.00  0.00    +0.210 HD
ENDBRANCH   2  25
TORSDOF 1
ENDMDL
MODEL 8
REMARK VINA RESULT:      -5.3     10.899     13.534
REMARK  Name = *****
REMARK                            x       y       z     vdW  Elec       q    Type
REMARK                         _______ _______ _______ _____ _____    ______ ____
ROOT
ATOM      1  C   LIG    1       27.411 -30.989   9.892  0.00  0.00    +0.042 C 
ATOM      2  C   LIG    1       26.273 -30.108   9.361  0.00  0.00    +0.069 C 
ATOM      3  C   LIG    1       24.903 -30.230  10.134  0.00  0.00    -0.000 C 
ATOM      4  C   LIG    1       23.717 -29.955   9.162  0.00  0.00    +0.014 C 
ATOM      5  C   LIG    1       24.956 -29.029  11.139  0.00  0.00    +0.001 C 
ATOM      6  C   LIG    1       24.693 -29.295  12.622  0.00  0.00    -0.004 C 
ATOM      7  C   LIG    1       23.741 -30.504  12.859  0.00  0.00    -0.001 C 
ATOM      8  C   LIG    1       24.557 -31.673  12.250  0.00  0.00    +0.005 C 
ATOM      9  C   LIG    1       22.092 -30.325  12.860  0.00  0.00    -0.022 C 
ATOM     10  C   LIG    1       21.928 -31.742  13.636  0.00  0.00    +0.012 C 
ATOM     11  C   LIG    1       21.970 -28.802  13.358  0.00  0.00    +0.001 C 
ATOM     12  C   LIG    1       21.653 -28.829  14.821  0.00  0.00    +0.059 C 
ATOM     13  C   LIG    1       20.205 -29.095  14.764  0.00  0.00    +0.040 A 
ATOM     14  C   LIG    1       19.613 -29.862  13.759  0.00  0.00    -0.006 A 
ATOM     15  C   LIG    1       18.248 -29.630  14.024  0.00  0.00    +0.138 A 
ATOM     16  N   LIG    1       18.024 -28.707  14.955  0.00  0.00    -0.182 NA
ATOM     17  N   LIG    1       19.257 -28.299  15.322  0.00  0.00    -0.281 N 
ATOM     18  H   LIG    1       19.394 -27.422  15.798  0.00  0.00    +0.189 HD
ATOM     19  C   LIG    1       22.912 -27.682  12.952  0.00  0.00    +0.005 C 
ATOM     20  C   LIG    1       20.462 -30.463  12.494  0.00  0.00    +0.045 C 
ATOM     21  C   LIG    1       24.303 -28.020  13.347  0.00  0.00    +0.004 C 
ATOM     22  C   LIG    1       26.315 -28.340  10.957  0.00  0.00    +0.007 C 
ATOM     23  C   LIG    1       24.593 -31.625  10.742  0.00  0.00    +0.010 C 
ATOM     24  C   LIG    1       26.653 -28.625   9.516  0.00  0.00    +0.035 C 
ENDROOT
BRANCH   2  25
ATOM     25  O   LIG    1       26.120 -30.407   7.975  0.00  0.00    -0.388 OA
ATOM     26  H   LIG    1       26.706 -29.812   7.474  0.00  0.00    +0.210 HD
ENDBRANCH   2  25
TORSDOF 1
ENDMDL
MODEL 9
REMARK VINA RESULT:      -5.3      9.831     11.265
REMARK  Name = *****
REMARK                            x       y       z     vdW  Elec       q    Type
REMARK                         _______ _______ _______ _____ _____    ______ ____
ROOT
ATOM      1  C   LIG    1       23.433 -32.651   6.844  0.00  0.00    +0.042 C 
ATOM      2  C   LIG    1       24.104 -31.280   6.692  0.00  0.00    +0.069 C 
ATOM      3  C   LIG    1       24.319 -30.477   8.033  0.00  0.00    -0.000 C 
ATOM      4  C   LIG    1       24.268 -28.946   7.752  0.00  0.00    +0.014 C 
ATOM      5  C   LIG    1       25.799 -30.820   8.417  0.00  0.00    +0.001 C 
ATOM      6  C   LIG    1       26.097 -31.337   9.826  0.00  0.00    -0.004 C 
ATOM      7  C   LIG    1       25.090 -30.805  10.888  0.00  0.00    -0.001 C 
ATOM      8  C   LIG    1       23.751 -31.399  10.380  0.00  0.00    +0.005 C 
ATOM      9  C   LIG    1       25.318 -29.349  11.649  0.00  0.00    -0.022 C 
ATOM     10  C   LIG    1       24.283 -29.788  12.821  0.00  0.00    +0.012 C 
ATOM     11  C   LIG    1       26.921 -29.251  11.606  0.00  0.00    +0.001 C 
ATOM     12  C   LIG    1       27.436 -29.675  12.947  0.00  0.00    +0.059 C 
ATOM     13  C   LIG    1       27.219 -28.433  13.708  0.00  0.00    +0.040 A 
ATOM     14  C   LIG    1       26.164 -27.557  13.449  0.00  0.00    -0.006 A 
ATOM     15  C   LIG    1       26.526 -26.464  14.263  0.00  0.00    +0.138 A 
ATOM     16  N   LIG    1       27.730 -26.574  14.816  0.00  0.00    -0.182 NA
ATOM     17  N   LIG    1       28.198 -27.756  14.364  0.00  0.00    -0.281 N 
ATOM     18  H   LIG    1       29.182 -27.970  14.389  0.00  0.00    +0.189 HD
ATOM     19  C   LIG    1       27.784 -29.708  10.443  0.00  0.00    +0.005 C 
ATOM     20  C   LIG    1       25.117 -27.783  12.211  0.00  0.00    +0.045 C 
ATOM     21  C   LIG    1       27.561 -31.152  10.180  0.00  0.00    +0.004 C 
ATOM     22  C   LIG    1       26.326 -31.809   7.367  0.00  0.00    +0.007 C 
ATOM     23  C   LIG    1       23.250 -30.707   9.136  0.00  0.00    +0.010 C 
ATOM     24  C   LIG    1       25.528 -31.460   6.138  0.00  0.00    +0.035 C 
ENDROOT
BRANCH   2  25
ATOM     25  O   LIG    1       23.331 -30.533   5.754  0.00  0.00    -0.388 OA
ATOM     26  H   LIG    1       23.947 -30.081   5.151  0.00  0.00    +0.210 HD
ENDBRANCH   2  25
TORSDOF 1
ENDMDL
