MODEL 1
REMARK VINA RESULT:      -8.7      0.000      0.000
REMARK  Name = *****
REMARK                            x       y       z     vdW  Elec       q    Type
REMARK                         _______ _______ _______ _____ _____    ______ ____
ROOT
ATOM      1  C   LIG    1       24.436 -20.528   4.654  0.00  0.00    +0.030 A 
ATOM      2  C   LIG    1       25.446 -20.416   5.597  0.00  0.00    +0.003 A 
ATOM      3  C   LIG    1       26.888 -20.078   5.423  0.00  0.00    +0.146 C 
ATOM      4  N   LIG    1       27.386 -20.046   6.790  0.00  0.00    -0.281 N 
ATOM      5  C   LIG    1       26.429 -20.465   7.699  0.00  0.00    +0.248 C 
ATOM      6  O   LIG    1       26.559 -20.671   8.890  0.00  0.00    -0.270 OA
ATOM      7  C   LIG    1       25.181 -20.643   6.949  0.00  0.00    +0.043 A 
ATOM      8  C   LIG    1       23.926 -20.952   7.431  0.00  0.00    +0.013 A 
ATOM      9  C   LIG    1       22.888 -21.003   6.505  0.00  0.00    +0.003 A 
ATOM     10  C   LIG    1       23.140 -20.768   5.138  0.00  0.00    +0.023 A 
ENDROOT
BRANCH   4  11
ATOM     11  C   LIG    1       28.807 -19.910   7.084  0.00  0.00    +0.163 C 
ATOM     12  C   LIG    1       29.394 -21.238   7.587  0.00  0.00    +0.240 C 
ATOM     13  O   LIG    1       29.022 -22.338   7.180  0.00  0.00    -0.273 OA
ATOM     14  N   LIG    1       30.478 -21.139   8.428  0.00  0.00    -0.255 N 
ATOM     15  H   LIG    1       30.884 -22.015   8.730  0.00  0.00    +0.158 HD
ATOM     16  C   LIG    1       31.175 -20.007   8.772  0.00  0.00    +0.219 C 
ATOM     17  O   LIG    1       32.241 -20.080   9.376  0.00  0.00    -0.275 OA
ATOM     18  C   LIG    1       30.624 -18.693   8.268  0.00  0.00    +0.098 C 
ATOM     19  C   LIG    1       29.122 -18.772   8.055  0.00  0.00    +0.041 C 
ENDBRANCH   4  11
BRANCH   1  20
ATOM     20  N   LIG    1       24.633 -20.185   3.315  0.00  0.00    -0.358 N 
ATOM     21  H   LIG    1       24.499 -19.200   3.109  0.00  0.00    +0.142 HD
ATOM     22  H   LIG    1       25.512 -20.526   2.933  0.00  0.00    +0.142 HD
ENDBRANCH   1  20
TORSDOF 2
ENDMDL
MODEL 2
REMARK VINA RESULT:      -8.3      2.533      6.433
REMARK  Name = *****
REMARK                            x       y       z     vdW  Elec       q    Type
REMARK                         _______ _______ _______ _____ _____    ______ ____
ROOT
ATOM      1  C   LIG    1       30.350 -20.983   8.349  0.00  0.00    +0.030 A 
ATOM      2  C   LIG    1       29.161 -20.983   7.637  0.00  0.00    +0.003 A 
ATOM      3  C   LIG    1       28.027 -21.952   7.663  0.00  0.00    +0.146 C 
ATOM      4  N   LIG    1       27.060 -21.351   6.757  0.00  0.00    -0.281 N 
ATOM      5  C   LIG    1       27.574 -20.236   6.117  0.00  0.00    +0.248 C 
ATOM      6  O   LIG    1       27.077 -19.585   5.219  0.00  0.00    -0.270 OA
ATOM      7  C   LIG    1       28.884 -19.968   6.719  0.00  0.00    +0.043 A 
ATOM      8  C   LIG    1       29.736 -18.907   6.488  0.00  0.00    +0.013 A 
ATOM      9  C   LIG    1       30.904 -18.858   7.243  0.00  0.00    +0.003 A 
ATOM     10  C   LIG    1       31.191 -19.872   8.179  0.00  0.00    +0.023 A 
ENDROOT
BRANCH   4  11
ATOM     11  C   LIG    1       25.849 -22.054   6.354  0.00  0.00    +0.163 C 
ATOM     12  C   LIG    1       24.620 -21.501   7.094  0.00  0.00    +0.240 C 
ATOM     13  O   LIG    1       24.491 -20.314   7.395  0.00  0.00    -0.273 OA
ATOM     14  N   LIG    1       23.582 -22.382   7.283  0.00  0.00    -0.255 N 
ATOM     15  H   LIG    1       22.762 -22.006   7.740  0.00  0.00    +0.158 HD
ATOM     16  C   LIG    1       23.458 -23.656   6.786  0.00  0.00    +0.219 C 
ATOM     17  O   LIG    1       22.396 -24.266   6.867  0.00  0.00    -0.275 OA
ATOM     18  C   LIG    1       24.648 -24.209   6.036  0.00  0.00    +0.098 C 
ATOM     19  C   LIG    1       25.943 -23.571   6.512  0.00  0.00    +0.041 C 
ENDBRANCH   4  11
BRANCH   1  20
ATOM     20  N   LIG    1       30.605 -21.908   9.364  0.00  0.00    -0.358 N 
ATOM     21  H   LIG    1       30.583 -21.519  10.302  0.00  0.00    +0.142 HD
ATOM     22  H   LIG    1       30.038 -22.749   9.299  0.00  0.00    +0.142 HD
ENDBRANCH   1  20
TORSDOF 2
ENDMDL
MODEL 3
REMARK VINA RESULT:      -8.3      2.473      5.840
REMARK  Name = *****
REMARK                            x       y       z     vdW  Elec       q    Type
REMARK                         _______ _______ _______ _____ _____    ______ ____
ROOT
ATOM      1  C   LIG    1       29.116 -18.788   5.695  0.00  0.00    +0.030 A 
ATOM      2  C   LIG    1       28.395 -19.747   6.387  0.00  0.00    +0.003 A 
ATOM      3  C   LIG    1       26.982 -20.193   6.218  0.00  0.00    +0.146 C 
ATOM      4  N   LIG    1       26.858 -21.272   7.187  0.00  0.00    -0.281 N 
ATOM      5  C   LIG    1       27.989 -21.387   7.979  0.00  0.00    +0.248 C 
ATOM      6  O   LIG    1       28.159 -22.096   8.952  0.00  0.00    -0.270 OA
ATOM      7  C   LIG    1       28.986 -20.461   7.432  0.00  0.00    +0.043 A 
ATOM      8  C   LIG    1       30.301 -20.289   7.815  0.00  0.00    +0.013 A 
ATOM      9  C   LIG    1       31.057 -19.376   7.085  0.00  0.00    +0.003 A 
ATOM     10  C   LIG    1       30.475 -18.655   6.023  0.00  0.00    +0.023 A 
ENDROOT
BRANCH   4  11
ATOM     11  C   LIG    1       25.575 -21.897   7.478  0.00  0.00    +0.163 C 
ATOM     12  C   LIG    1       25.498 -23.305   6.868  0.00  0.00    +0.240 C 
ATOM     13  O   LIG    1       26.468 -24.059   6.784  0.00  0.00    -0.273 OA
ATOM     14  N   LIG    1       24.240 -23.754   6.541  0.00  0.00    -0.255 N 
ATOM     15  H   LIG    1       24.190 -24.694   6.172  0.00  0.00    +0.158 HD
ATOM     16  C   LIG    1       23.036 -23.150   6.806  0.00  0.00    +0.219 C 
ATOM     17  O   LIG    1       21.978 -23.748   6.635  0.00  0.00    -0.275 OA
ATOM     18  C   LIG    1       23.091 -21.774   7.427  0.00  0.00    +0.098 C 
ATOM     19  C   LIG    1       24.374 -21.052   7.051  0.00  0.00    +0.041 C 
ENDBRANCH   4  11
BRANCH   1  20
ATOM     20  N   LIG    1       28.601 -18.147   4.566  0.00  0.00    -0.358 N 
ATOM     21  H   LIG    1       27.806 -17.544   4.750  0.00  0.00    +0.142 HD
ATOM     22  H   LIG    1       29.307 -17.668   4.013  0.00  0.00    +0.142 HD
ENDBRANCH   1  20
TORSDOF 2
ENDMDL
MODEL 4
REMARK VINA RESULT:      -8.2      2.621      2.930
REMARK  Name = *****
REMARK                            x       y       z     vdW  Elec       q    Type
REMARK                         _______ _______ _______ _____ _____    ______ ____
ROOT
ATOM      1  C   LIG    1       25.043 -24.646   6.447  0.00  0.00    +0.030 A 
ATOM      2  C   LIG    1       25.563 -23.414   6.810  0.00  0.00    +0.003 A 
ATOM      3  C   LIG    1       26.978 -22.946   6.856  0.00  0.00    +0.146 C 
ATOM      4  N   LIG    1       26.850 -21.548   7.238  0.00  0.00    -0.281 N 
ATOM      5  C   LIG    1       25.543 -21.214   7.550  0.00  0.00    +0.248 C 
ATOM      6  O   LIG    1       25.120 -20.175   8.019  0.00  0.00    -0.270 OA
ATOM      7  C   LIG    1       24.718 -22.381   7.221  0.00  0.00    +0.043 A 
ATOM      8  C   LIG    1       23.343 -22.501   7.262  0.00  0.00    +0.013 A 
ATOM      9  C   LIG    1       22.802 -23.712   6.837  0.00  0.00    +0.003 A 
ATOM     10  C   LIG    1       23.644 -24.759   6.412  0.00  0.00    +0.023 A 
ENDROOT
BRANCH   4  11
ATOM     11  C   LIG    1       28.014 -20.733   7.562  0.00  0.00    +0.163 C 
ATOM     12  C   LIG    1       28.479 -19.927   6.338  0.00  0.00    +0.240 C 
ATOM     13  O   LIG    1       27.705 -19.469   5.497  0.00  0.00    -0.273 OA
ATOM     14  N   LIG    1       29.816 -19.611   6.296  0.00  0.00    -0.255 N 
ATOM     15  H   LIG    1       30.113 -19.053   5.507  0.00  0.00    +0.158 HD
ATOM     16  C   LIG    1       30.761 -19.819   7.270  0.00  0.00    +0.219 C 
ATOM     17  O   LIG    1       31.877 -19.315   7.186  0.00  0.00    -0.275 OA
ATOM     18  C   LIG    1       30.316 -20.590   8.491  0.00  0.00    +0.098 C 
ATOM     19  C   LIG    1       29.171 -21.532   8.160  0.00  0.00    +0.041 C 
ENDBRANCH   4  11
BRANCH   1  20
ATOM     20  N   LIG    1       25.842 -25.658   5.910  0.00  0.00    -0.358 N 
ATOM     21  H   LIG    1       25.790 -25.744   4.900  0.00  0.00    +0.142 HD
ATOM     22  H   LIG    1       26.807 -25.625   6.228  0.00  0.00    +0.142 HD
ENDBRANCH   1  20
TORSDOF 2
ENDMDL
MODEL 5
REMARK VINA RESULT:      -8.2      1.333      1.671
REMARK  Name = *****
REMARK                            x       y       z     vdW  Elec       q    Type
REMARK                         _______ _______ _______ _____ _____    ______ ____
ROOT
ATOM      1  C   LIG    1       25.152 -20.347   4.685  0.00  0.00    +0.030 A 
ATOM      2  C   LIG    1       25.804 -20.393   5.906  0.00  0.00    +0.003 A 
ATOM      3  C   LIG    1       27.258 -20.288   6.221  0.00  0.00    +0.146 C 
ATOM      4  N   LIG    1       27.284 -20.330   7.675  0.00  0.00    -0.281 N 
ATOM      5  C   LIG    1       26.033 -20.592   8.207  0.00  0.00    +0.248 C 
ATOM      6  O   LIG    1       25.736 -20.812   9.366  0.00  0.00    -0.270 OA
ATOM      7  C   LIG    1       25.084 -20.572   7.089  0.00  0.00    +0.043 A 
ATOM      8  C   LIG    1       23.709 -20.679   7.126  0.00  0.00    +0.013 A 
ATOM      9  C   LIG    1       23.033 -20.568   5.914  0.00  0.00    +0.003 A 
ATOM     10  C   LIG    1       23.748 -20.380   4.714  0.00  0.00    +0.023 A 
ENDROOT
BRANCH   4  11
ATOM     11  C   LIG    1       28.536 -20.419   8.417  0.00  0.00    +0.163 C 
ATOM     12  C   LIG    1       29.570 -19.421   7.871  0.00  0.00    +0.240 C 
ATOM     13  O   LIG    1       29.271 -18.311   7.430  0.00  0.00    -0.273 OA
ATOM     14  N   LIG    1       30.890 -19.773   8.030  0.00  0.00    -0.255 N 
ATOM     15  H   LIG    1       31.568 -19.099   7.700  0.00  0.00    +0.158 HD
ATOM     16  C   LIG    1       31.398 -20.842   8.725  0.00  0.00    +0.219 C 
ATOM     17  O   LIG    1       32.601 -20.933   8.954  0.00  0.00    -0.275 OA
ATOM     18  C   LIG    1       30.395 -21.822   9.288  0.00  0.00    +0.098 C 
ATOM     19  C   LIG    1       29.116 -21.831   8.469  0.00  0.00    +0.041 C 
ENDBRANCH   4  11
BRANCH   1  20
ATOM     20  N   LIG    1       25.822 -20.043   3.498  0.00  0.00    -0.358 N 
ATOM     21  H   LIG    1       26.408 -19.216   3.546  0.00  0.00    +0.142 HD
ATOM     22  H   LIG    1       26.328 -20.832   3.104  0.00  0.00    +0.142 HD
ENDBRANCH   1  20
TORSDOF 2
ENDMDL
MODEL 6
REMARK VINA RESULT:      -8.2      2.175      2.861
REMARK  Name = *****
REMARK                            x       y       z     vdW  Elec       q    Type
REMARK                         _______ _______ _______ _____ _____    ______ ____
ROOT
ATOM      1  C   LIG    1       25.529 -21.177   7.521  0.00  0.00    +0.030 A 
ATOM      2  C   LIG    1       26.722 -20.521   7.266  0.00  0.00    +0.003 A 
ATOM      3  C   LIG    1       27.845 -20.178   8.187  0.00  0.00    +0.146 C 
ATOM      4  N   LIG    1       28.825 -19.570   7.299  0.00  0.00    -0.281 N 
ATOM      5  C   LIG    1       28.328 -19.401   6.018  0.00  0.00    +0.248 C 
ATOM      6  O   LIG    1       28.839 -18.819   5.081  0.00  0.00    -0.270 OA
ATOM      7  C   LIG    1       27.017 -20.058   5.982  0.00  0.00    +0.043 A 
ATOM      8  C   LIG    1       26.180 -20.246   4.901  0.00  0.00    +0.013 A 
ATOM      9  C   LIG    1       25.007 -20.962   5.128  0.00  0.00    +0.003 A 
ATOM     10  C   LIG    1       24.702 -21.441   6.418  0.00  0.00    +0.023 A 
ENDROOT
BRANCH   4  11
ATOM     11  C   LIG    1       30.031 -18.932   7.812  0.00  0.00    +0.163 C 
ATOM     12  C   LIG    1       30.862 -19.919   8.648  0.00  0.00    +0.240 C 
ATOM     13  O   LIG    1       30.944 -21.120   8.391  0.00  0.00    -0.273 OA
ATOM     14  N   LIG    1       31.642 -19.365   9.636  0.00  0.00    -0.255 N 
ATOM     15  H   LIG    1       32.214 -20.014  10.162  0.00  0.00    +0.158 HD
ATOM     16  C   LIG    1       31.865 -18.034   9.885  0.00  0.00    +0.219 C 
ATOM     17  O   LIG    1       32.736 -17.675  10.672  0.00  0.00    -0.275 OA
ATOM     18  C   LIG    1       31.073 -17.048   9.057  0.00  0.00    +0.098 C 
ATOM     19  C   LIG    1       29.756 -17.650   8.597  0.00  0.00    +0.041 C 
ENDBRANCH   4  11
BRANCH   1  20
ATOM     20  N   LIG    1       25.257 -21.764   8.759  0.00  0.00    -0.358 N 
ATOM     21  H   LIG    1       25.412 -22.766   8.792  0.00  0.00    +0.142 HD
ATOM     22  H   LIG    1       25.708 -21.294   9.539  0.00  0.00    +0.142 HD
ENDBRANCH   1  20
TORSDOF 2
ENDMDL
MODEL 7
REMARK VINA RESULT:      -7.4      4.204      5.328
REMARK  Name = *****
REMARK                            x       y       z     vdW  Elec       q    Type
REMARK                         _______ _______ _______ _____ _____    ______ ____
ROOT
ATOM      1  C   LIG    1       24.606 -19.060   3.834  0.00  0.00    +0.030 A 
ATOM      2  C   LIG    1       24.242 -20.230   4.481  0.00  0.00    +0.003 A 
ATOM      3  C   LIG    1       25.035 -21.464   4.751  0.00  0.00    +0.146 C 
ATOM      4  N   LIG    1       24.118 -22.282   5.529  0.00  0.00    -0.281 N 
ATOM      5  C   LIG    1       22.857 -21.715   5.605  0.00  0.00    +0.248 C 
ATOM      6  O   LIG    1       21.840 -22.195   6.069  0.00  0.00    -0.270 OA
ATOM      7  C   LIG    1       22.952 -20.386   4.992  0.00  0.00    +0.043 A 
ATOM      8  C   LIG    1       21.987 -19.402   4.919  0.00  0.00    +0.013 A 
ATOM      9  C   LIG    1       22.357 -18.196   4.330  0.00  0.00    +0.003 A 
ATOM     10  C   LIG    1       23.659 -18.023   3.818  0.00  0.00    +0.023 A 
ENDROOT
BRANCH   4  11
ATOM     11  C   LIG    1       24.429 -23.663   5.875  0.00  0.00    +0.163 C 
ATOM     12  C   LIG    1       25.519 -23.727   6.957  0.00  0.00    +0.240 C 
ATOM     13  O   LIG    1       25.623 -22.898   7.861  0.00  0.00    -0.273 OA
ATOM     14  N   LIG    1       26.306 -24.854   6.954  0.00  0.00    -0.255 N 
ATOM     15  H   LIG    1       27.001 -24.908   7.688  0.00  0.00    +0.158 HD
ATOM     16  C   LIG    1       26.159 -25.982   6.186  0.00  0.00    +0.219 C 
ATOM     17  O   LIG    1       26.811 -26.995   6.418  0.00  0.00    -0.275 OA
ATOM     18  C   LIG    1       25.076 -25.946   5.132  0.00  0.00    +0.098 C 
ATOM     19  C   LIG    1       24.805 -24.524   4.671  0.00  0.00    +0.041 C 
ENDBRANCH   4  11
BRANCH   1  20
ATOM     20  N   LIG    1       25.919 -18.818   3.425  0.00  0.00    -0.358 N 
ATOM     21  H   LIG    1       26.369 -19.604   2.967  0.00  0.00    +0.142 HD
ATOM     22  H   LIG    1       26.024 -17.965   2.882  0.00  0.00    +0.142 HD
ENDBRANCH   1  20
TORSDOF 2
ENDMDL
MODEL 8
REMARK VINA RESULT:      -7.4      2.419      6.259
REMARK  Name = *****
REMARK                            x       y       z     vdW  Elec       q    Type
REMARK                         _______ _______ _______ _____ _____    ______ ____
ROOT
ATOM      1  C   LIG    1       29.536 -18.964   6.214  0.00  0.00    +0.030 A 
ATOM      2  C   LIG    1       28.454 -19.827   6.281  0.00  0.00    +0.003 A 
ATOM      3  C   LIG    1       27.184 -19.837   5.499  0.00  0.00    +0.146 C 
ATOM      4  N   LIG    1       26.508 -21.030   5.984  0.00  0.00    -0.281 N 
ATOM      5  C   LIG    1       27.181 -21.611   7.046  0.00  0.00    +0.248 C 
ATOM      6  O   LIG    1       26.824 -22.535   7.750  0.00  0.00    -0.270 OA
ATOM      7  C   LIG    1       28.445 -20.883   7.195  0.00  0.00    +0.043 A 
ATOM      8  C   LIG    1       29.496 -21.153   8.047  0.00  0.00    +0.013 A 
ATOM      9  C   LIG    1       30.618 -20.334   7.946  0.00  0.00    +0.003 A 
ATOM     10  C   LIG    1       30.643 -19.270   7.022  0.00  0.00    +0.023 A 
ENDROOT
BRANCH   4  11
ATOM     11  C   LIG    1       25.137 -21.343   5.599  0.00  0.00    +0.163 C 
ATOM     12  C   LIG    1       24.718 -20.540   4.358  0.00  0.00    +0.240 C 
ATOM     13  O   LIG    1       25.492 -20.256   3.444  0.00  0.00    -0.273 OA
ATOM     14  N   LIG    1       23.375 -20.269   4.240  0.00  0.00    -0.255 N 
ATOM     15  H   LIG    1       23.097 -19.770   3.405  0.00  0.00    +0.158 HD
ATOM     16  C   LIG    1       22.350 -20.732   5.028  0.00  0.00    +0.219 C 
ATOM     17  O   LIG    1       21.178 -20.573   4.699  0.00  0.00    -0.275 OA
ATOM     18  C   LIG    1       22.743 -21.542   6.241  0.00  0.00    +0.098 C 
ATOM     19  C   LIG    1       24.129 -21.160   6.733  0.00  0.00    +0.041 C 
ENDBRANCH   4  11
BRANCH   1  20
ATOM     20  N   LIG    1       29.637 -17.978   5.230  0.00  0.00    -0.358 N 
ATOM     21  H   LIG    1       28.758 -17.526   4.996  0.00  0.00    +0.142 HD
ATOM     22  H   LIG    1       30.366 -17.295   5.413  0.00  0.00    +0.142 HD
ENDBRANCH   1  20
TORSDOF 2
ENDMDL
MODEL 9
REMARK VINA RESULT:      -7.3      1.890      2.228
REMARK  Name = *****
REMARK                            x       y       z     vdW  Elec       q    Type
REMARK                         _______ _______ _______ _____ _____    ______ ____
ROOT
ATOM      1  C   LIG    1       22.963 -21.037   5.696  0.00  0.00    +0.030 A 
ATOM      2  C   LIG    1       24.296 -21.241   6.010  0.00  0.00    +0.003 A 
ATOM      3  C   LIG    1       25.460 -20.315   5.900  0.00  0.00    +0.146 C 
ATOM      4  N   LIG    1       26.556 -21.095   6.458  0.00  0.00    -0.281 N 
ATOM      5  C   LIG    1       26.175 -22.397   6.735  0.00  0.00    +0.248 C 
ATOM      6  O   LIG    1       26.872 -23.328   7.087  0.00  0.00    -0.270 OA
ATOM      7  C   LIG    1       24.728 -22.473   6.507  0.00  0.00    +0.043 A 
ATOM      8  C   LIG    1       23.875 -23.532   6.744  0.00  0.00    +0.013 A 
ATOM      9  C   LIG    1       22.522 -23.321   6.495  0.00  0.00    +0.003 A 
ATOM     10  C   LIG    1       22.072 -22.079   6.002  0.00  0.00    +0.023 A 
ENDROOT
BRANCH   4  11
ATOM     11  C   LIG    1       27.935 -20.628   6.400  0.00  0.00    +0.163 C 
ATOM     12  C   LIG    1       28.546 -20.540   7.807  0.00  0.00    +0.240 C 
ATOM     13  O   LIG    1       28.272 -21.327   8.713  0.00  0.00    -0.273 OA
ATOM     14  N   LIG    1       29.544 -19.609   7.975  0.00  0.00    -0.255 N 
ATOM     15  H   LIG    1       29.967 -19.577   8.893  0.00  0.00    +0.158 HD
ATOM     16  C   LIG    1       30.144 -18.837   7.012  0.00  0.00    +0.219 C 
ATOM     17  O   LIG    1       31.155 -18.187   7.263  0.00  0.00    -0.275 OA
ATOM     18  C   LIG    1       29.571 -18.926   5.617  0.00  0.00    +0.098 C 
ATOM     19  C   LIG    1       28.101 -19.306   5.650  0.00  0.00    +0.041 C 
ENDBRANCH   4  11
BRANCH   1  20
ATOM     20  N   LIG    1       22.474 -19.784   5.319  0.00  0.00    -0.358 N 
ATOM     21  H   LIG    1       21.571 -19.807   4.855  0.00  0.00    +0.142 HD
ATOM     22  H   LIG    1       22.485 -19.102   6.072  0.00  0.00    +0.142 HD
ENDBRANCH   1  20
TORSDOF 2
ENDMDL
