MODEL 1
REMARK VINA RESULT:      -8.5      0.000      0.000
REMARK  Name = *****
REMARK                            x       y       z     vdW  Elec       q    Type
REMARK                         _______ _______ _______ _____ _____    ______ ____
ROOT
ATOM      1  C   LIG    1       25.653 -20.708   5.515  0.00  0.00    +0.005 C 
ATOM      2  C   LIG    1       26.726 -19.950   5.236  0.00  0.00    +0.006 C 
ENDROOT
BRANCH   2   3
ATOM      3  C   LIG    1       27.968 -19.932   6.027  0.00  0.00    -0.022 A 
ATOM      4  C   LIG    1       28.211 -20.859   7.053  0.00  0.00    +0.057 A 
ATOM      5  C   LIG    1       29.431 -20.818   7.697  0.00  0.00    +0.167 A 
ATOM      6  O   LIG    1       29.826 -21.648   8.701  0.00  0.00    -0.453 OA
ATOM      7  C   LIG    1       31.159 -21.156   8.950  0.00  0.00    +0.466 C 
ATOM      8  O   LIG    1       31.531 -20.049   8.102  0.00  0.00    -0.453 OA
ATOM      9  C   LIG    1       30.402 -19.909   7.357  0.00  0.00    +0.166 A 
ATOM     10  C   LIG    1       30.208 -18.987   6.353  0.00  0.00    +0.050 A 
ATOM     11  C   LIG    1       28.978 -19.005   5.682  0.00  0.00    +0.012 A 
ENDBRANCH   2   3
BRANCH   1  12
ATOM     12  C   LIG    1       24.410 -20.753   4.661  0.00  0.00    +0.143 C 
BRANCH  12  14
ATOM     13  C   LIG    1       22.523 -19.042   5.023  0.00  0.00    +0.013 C 
ATOM     14  C   LIG    1       23.081 -20.425   5.416  0.00  0.00    -0.008 C 
ATOM     15  C   LIG    1       22.014 -21.482   5.059  0.00  0.00    +0.013 C 
ATOM     16  C   LIG    1       23.296 -20.460   6.942  0.00  0.00    +0.013 C 
ENDBRANCH  12  14
BRANCH  12  17
ATOM     17  O   LIG    1       24.600 -19.844   3.577  0.00  0.00    -0.387 OA
ATOM     18  H   LIG    1       25.418 -20.091   3.117  0.00  0.00    +0.210 HD
ENDBRANCH  12  17
ENDBRANCH   1  12
TORSDOF 4
ENDMDL
MODEL 2
REMARK VINA RESULT:      -8.3      1.423      2.433
REMARK  Name = *****
REMARK                            x       y       z     vdW  Elec       q    Type
REMARK                         _______ _______ _______ _____ _____    ______ ____
ROOT
ATOM      1  C   LIG    1       26.427 -21.276   6.508  0.00  0.00    +0.005 C 
ATOM      2  C   LIG    1       27.444 -20.500   6.101  0.00  0.00    +0.006 C 
ENDROOT
BRANCH   2   3
ATOM      3  C   LIG    1       28.679 -20.265   6.867  0.00  0.00    -0.022 A 
ATOM      4  C   LIG    1       29.310 -19.012   6.897  0.00  0.00    +0.057 A 
ATOM      5  C   LIG    1       30.424 -18.858   7.697  0.00  0.00    +0.167 A 
ATOM      6  O   LIG    1       31.142 -17.711   7.845  0.00  0.00    -0.453 OA
ATOM      7  C   LIG    1       32.143 -18.139   8.792  0.00  0.00    +0.466 C 
ATOM      8  O   LIG    1       32.008 -19.521   9.185  0.00  0.00    -0.453 OA
ATOM      9  C   LIG    1       30.918 -19.887   8.461  0.00  0.00    +0.166 A 
ATOM     10  C   LIG    1       30.326 -21.130   8.466  0.00  0.00    +0.050 A 
ATOM     11  C   LIG    1       29.194 -21.315   7.662  0.00  0.00    +0.012 A 
ENDBRANCH   2   3
BRANCH   1  12
ATOM     12  C   LIG    1       25.193 -21.548   5.684  0.00  0.00    +0.143 C 
BRANCH  12  14
ATOM     13  C   LIG    1       23.039 -22.603   6.617  0.00  0.00    +0.013 C 
ATOM     14  C   LIG    1       23.839 -21.298   6.425  0.00  0.00    -0.008 C 
ATOM     15  C   LIG    1       24.122 -20.710   7.823  0.00  0.00    +0.013 C 
ATOM     16  C   LIG    1       22.969 -20.290   5.650  0.00  0.00    +0.013 C 
ENDBRANCH  12  14
BRANCH  12  17
ATOM     17  O   LIG    1       25.272 -20.738   4.512  0.00  0.00    -0.387 OA
ATOM     18  H   LIG    1       26.206 -20.525   4.356  0.00  0.00    +0.210 HD
ENDBRANCH  12  17
ENDBRANCH   1  12
TORSDOF 4
ENDMDL
MODEL 3
REMARK VINA RESULT:      -8.2      1.393      1.520
REMARK  Name = *****
REMARK                            x       y       z     vdW  Elec       q    Type
REMARK                         _______ _______ _______ _____ _____    ______ ____
ROOT
ATOM      1  C   LIG    1       25.980 -21.551   6.356  0.00  0.00    +0.005 C 
ATOM      2  C   LIG    1       26.673 -20.577   5.744  0.00  0.00    +0.006 C 
ENDROOT
BRANCH   2   3
ATOM      3  C   LIG    1       27.891 -19.948   6.283  0.00  0.00    -0.022 A 
ATOM      4  C   LIG    1       28.425 -20.308   7.530  0.00  0.00    +0.057 A 
ATOM      5  C   LIG    1       29.609 -19.722   7.929  0.00  0.00    +0.167 A 
ATOM      6  O   LIG    1       30.261 -19.967   9.098  0.00  0.00    -0.453 OA
ATOM      7  C   LIG    1       31.411 -19.109   8.952  0.00  0.00    +0.466 C 
ATOM      8  O   LIG    1       31.422 -18.370   7.712  0.00  0.00    -0.453 OA
ATOM      9  C   LIG    1       30.272 -18.813   7.141  0.00  0.00    +0.166 A 
ATOM     10  C   LIG    1       29.786 -18.437   5.909  0.00  0.00    +0.050 A 
ATOM     11  C   LIG    1       28.585 -19.016   5.478  0.00  0.00    +0.012 A 
ENDBRANCH   2   3
BRANCH   1  12
ATOM     12  C   LIG    1       24.766 -22.221   5.763  0.00  0.00    +0.143 C 
BRANCH  12  14
ATOM     13  C   LIG    1       22.511 -21.027   5.430  0.00  0.00    +0.013 C 
ATOM     14  C   LIG    1       23.405 -21.811   6.413  0.00  0.00    -0.008 C 
ATOM     15  C   LIG    1       22.636 -23.080   6.837  0.00  0.00    +0.013 C 
ATOM     16  C   LIG    1       23.636 -20.950   7.670  0.00  0.00    +0.013 C 
ENDBRANCH  12  14
BRANCH  12  17
ATOM     17  O   LIG    1       24.754 -21.929   4.366  0.00  0.00    -0.387 OA
ATOM     18  H   LIG    1       25.093 -22.706   3.893  0.00  0.00    +0.210 HD
ENDBRANCH  12  17
ENDBRANCH   1  12
TORSDOF 4
ENDMDL
MODEL 4
REMARK VINA RESULT:      -8.2      2.174      3.020
REMARK  Name = *****
REMARK                            x       y       z     vdW  Elec       q    Type
REMARK                         _______ _______ _______ _____ _____    ______ ____
ROOT
ATOM      1  C   LIG    1       26.054 -20.766   7.564  0.00  0.00    +0.005 C 
ATOM      2  C   LIG    1       27.153 -20.528   6.832  0.00  0.00    +0.006 C 
ENDROOT
BRANCH   2   3
ATOM      3  C   LIG    1       28.495 -20.285   7.388  0.00  0.00    -0.022 A 
ATOM      4  C   LIG    1       29.047 -18.996   7.464  0.00  0.00    +0.057 A 
ATOM      5  C   LIG    1       30.280 -18.847   8.065  0.00  0.00    +0.167 A 
ATOM      6  O   LIG    1       30.946 -17.671   8.227  0.00  0.00    -0.453 OA
ATOM      7  C   LIG    1       32.129 -18.122   8.917  0.00  0.00    +0.466 C 
ATOM      8  O   LIG    1       32.151 -19.547   9.148  0.00  0.00    -0.453 OA
ATOM      9  C   LIG    1       30.967 -19.913   8.590  0.00  0.00    +0.166 A 
ATOM     10  C   LIG    1       30.460 -21.192   8.542  0.00  0.00    +0.050 A 
ATOM     11  C   LIG    1       29.210 -21.374   7.938  0.00  0.00    +0.012 A 
ENDBRANCH   2   3
BRANCH   1  12
ATOM     12  C   LIG    1       24.698 -21.068   6.974  0.00  0.00    +0.143 C 
BRANCH  12  14
ATOM     13  C   LIG    1       25.471 -23.508   7.240  0.00  0.00    +0.013 C 
ATOM     14  C   LIG    1       24.491 -22.552   6.529  0.00  0.00    -0.008 C 
ATOM     15  C   LIG    1       23.057 -22.998   6.885  0.00  0.00    +0.013 C 
ATOM     16  C   LIG    1       24.672 -22.697   5.005  0.00  0.00    +0.013 C 
ENDBRANCH  12  14
BRANCH  12  17
ATOM     17  O   LIG    1       23.717 -20.700   7.942  0.00  0.00    -0.387 OA
ATOM     18  H   LIG    1       23.301 -21.512   8.273  0.00  0.00    +0.210 HD
ENDBRANCH  12  17
ENDBRANCH   1  12
TORSDOF 4
ENDMDL
MODEL 5
REMARK VINA RESULT:      -7.7      3.219      4.233
REMARK  Name = *****
REMARK                            x       y       z     vdW  Elec       q    Type
REMARK                         _______ _______ _______ _____ _____    ______ ____
ROOT
ATOM      1  C   LIG    1       28.667 -20.242   7.606  0.00  0.00    +0.005 C 
ATOM      2  C   LIG    1       29.312 -19.099   7.326  0.00  0.00    +0.006 C 
ENDROOT
BRANCH   2   3
ATOM      3  C   LIG    1       30.196 -18.383   8.262  0.00  0.00    -0.022 A 
ATOM      4  C   LIG    1       29.707 -17.766   9.423  0.00  0.00    +0.057 A 
ATOM      5  C   LIG    1       30.612 -17.178  10.284  0.00  0.00    +0.167 A 
ATOM      6  O   LIG    1       30.304 -16.549  11.451  0.00  0.00    -0.453 OA
ATOM      7  C   LIG    1       31.618 -16.171  11.910  0.00  0.00    +0.466 C 
ATOM      8  O   LIG    1       32.677 -16.573  11.015  0.00  0.00    -0.453 OA
ATOM      9  C   LIG    1       31.963 -17.191  10.037  0.00  0.00    +0.166 A 
ATOM     10  C   LIG    1       32.485 -17.791   8.914  0.00  0.00    +0.050 A 
ATOM     11  C   LIG    1       31.589 -18.395   8.022  0.00  0.00    +0.012 A 
ENDBRANCH   2   3
BRANCH   1  12
ATOM     12  C   LIG    1       27.808 -20.989   6.615  0.00  0.00    +0.143 C 
BRANCH  12  14
ATOM     13  C   LIG    1       26.042 -20.588   8.443  0.00  0.00    +0.013 C 
ATOM     14  C   LIG    1       26.344 -21.263   7.089  0.00  0.00    -0.008 C 
ATOM     15  C   LIG    1       25.354 -20.696   6.050  0.00  0.00    +0.013 C 
ATOM     16  C   LIG    1       26.086 -22.777   7.219  0.00  0.00    +0.013 C 
ENDBRANCH  12  14
BRANCH  12  17
ATOM     17  O   LIG    1       27.803 -20.239   5.401  0.00  0.00    -0.387 OA
ATOM     18  H   LIG    1       27.074 -20.564   4.850  0.00  0.00    +0.210 HD
ENDBRANCH  12  17
ENDBRANCH   1  12
TORSDOF 4
ENDMDL
MODEL 6
REMARK VINA RESULT:      -7.6      2.513      6.992
REMARK  Name = *****
REMARK                            x       y       z     vdW  Elec       q    Type
REMARK                         _______ _______ _______ _____ _____    ______ ____
ROOT
ATOM      1  C   LIG    1       30.129 -18.835   7.912  0.00  0.00    +0.005 C 
ATOM      2  C   LIG    1       29.289 -19.829   8.240  0.00  0.00    +0.006 C 
ENDROOT
BRANCH   2   3
ATOM      3  C   LIG    1       28.028 -20.127   7.538  0.00  0.00    -0.022 A 
ATOM      4  C   LIG    1       26.850 -20.448   8.230  0.00  0.00    +0.057 A 
ATOM      5  C   LIG    1       25.695 -20.644   7.500  0.00  0.00    +0.167 A 
ATOM      6  O   LIG    1       24.473 -20.950   8.015  0.00  0.00    -0.453 OA
ATOM      7  C   LIG    1       23.678 -21.007   6.813  0.00  0.00    +0.466 C 
ATOM      8  O   LIG    1       24.434 -20.741   5.612  0.00  0.00    -0.453 OA
ATOM      9  C   LIG    1       25.671 -20.524   6.132  0.00  0.00    +0.166 A 
ATOM     10  C   LIG    1       26.802 -20.205   5.416  0.00  0.00    +0.050 A 
ATOM     11  C   LIG    1       27.989 -20.002   6.131  0.00  0.00    +0.012 A 
ENDBRANCH   2   3
BRANCH   1  12
ATOM     12  C   LIG    1       31.444 -18.580   8.609  0.00  0.00    +0.143 C 
BRANCH  12  14
ATOM     13  C   LIG    1       32.732 -16.701   9.804  0.00  0.00    +0.013 C 
ATOM     14  C   LIG    1       31.399 -17.471   9.710  0.00  0.00    -0.008 C 
ATOM     15  C   LIG    1       30.291 -16.453   9.368  0.00  0.00    +0.013 C 
ATOM     16  C   LIG    1       31.078 -18.082  11.088  0.00  0.00    +0.013 C 
ENDBRANCH  12  14
BRANCH  12  17
ATOM     17  O   LIG    1       31.880 -19.817   9.169  0.00  0.00    -0.387 OA
ATOM     18  H   LIG    1       31.916 -19.715  10.134  0.00  0.00    +0.210 HD
ENDBRANCH  12  17
ENDBRANCH   1  12
TORSDOF 4
ENDMDL
MODEL 7
REMARK VINA RESULT:      -7.5      2.608      6.790
REMARK  Name = *****
REMARK                            x       y       z     vdW  Elec       q    Type
REMARK                         _______ _______ _______ _____ _____    ______ ____
ROOT
ATOM      1  C   LIG    1       28.853 -21.097   7.362  0.00  0.00    +0.005 C 
ATOM      2  C   LIG    1       27.724 -20.978   8.078  0.00  0.00    +0.006 C 
ENDROOT
BRANCH   2   3
ATOM      3  C   LIG    1       26.416 -21.526   7.680  0.00  0.00    -0.022 A 
ATOM      4  C   LIG    1       26.250 -22.875   7.328  0.00  0.00    +0.057 A 
ATOM      5  C   LIG    1       24.978 -23.324   7.036  0.00  0.00    +0.167 A 
ATOM      6  O   LIG    1       24.646 -24.597   6.688  0.00  0.00    -0.453 OA
ATOM      7  C   LIG    1       23.218 -24.472   6.532  0.00  0.00    +0.466 C 
ATOM      8  O   LIG    1       22.728 -23.138   6.782  0.00  0.00    -0.453 OA
ATOM      9  C   LIG    1       23.885 -22.495   7.089  0.00  0.00    +0.166 A 
ATOM     10  C   LIG    1       24.002 -21.168   7.435  0.00  0.00    +0.050 A 
ATOM     11  C   LIG    1       25.282 -20.684   7.736  0.00  0.00    +0.012 A 
ENDBRANCH   2   3
BRANCH   1  12
ATOM     12  C   LIG    1       30.195 -20.576   7.814  0.00  0.00    +0.143 C 
BRANCH  12  14
ATOM     13  C   LIG    1       29.709 -18.311   8.933  0.00  0.00    +0.013 C 
ATOM     14  C   LIG    1       30.360 -19.024   7.730  0.00  0.00    -0.008 C 
ATOM     15  C   LIG    1       31.861 -18.667   7.729  0.00  0.00    +0.013 C 
ATOM     16  C   LIG    1       29.737 -18.477   6.431  0.00  0.00    +0.013 C 
ENDBRANCH  12  14
BRANCH  12  17
ATOM     17  O   LIG    1       30.400 -21.024   9.153  0.00  0.00    -0.387 OA
ATOM     18  H   LIG    1       30.755 -21.926   9.118  0.00  0.00    +0.210 HD
ENDBRANCH  12  17
ENDBRANCH   1  12
TORSDOF 4
ENDMDL
MODEL 8
REMARK VINA RESULT:      -7.4      6.867      8.378
REMARK  Name = *****
REMARK                            x       y       z     vdW  Elec       q    Type
REMARK                         _______ _______ _______ _____ _____    ______ ____
ROOT
ATOM      1  C   LIG    1       24.675 -28.108   6.599  0.00  0.00    +0.005 C 
ATOM      2  C   LIG    1       24.265 -27.050   5.881  0.00  0.00    +0.006 C 
ENDROOT
BRANCH   2   3
ATOM      3  C   LIG    1       24.496 -25.644   6.255  0.00  0.00    -0.022 A 
ATOM      4  C   LIG    1       23.446 -24.717   6.349  0.00  0.00    +0.057 A 
ATOM      5  C   LIG    1       23.739 -23.437   6.775  0.00  0.00    +0.167 A 
ATOM      6  O   LIG    1       22.840 -22.427   6.929  0.00  0.00    -0.453 OA
ATOM      7  C   LIG    1       23.698 -21.370   7.404  0.00  0.00    +0.466 C 
ATOM      8  O   LIG    1       25.083 -21.762   7.519  0.00  0.00    -0.453 OA
ATOM      9  C   LIG    1       25.015 -23.057   7.112  0.00  0.00    +0.166 A 
ATOM     10  C   LIG    1       26.072 -23.936   7.039  0.00  0.00    +0.050 A 
ATOM     11  C   LIG    1       25.804 -25.242   6.610  0.00  0.00    +0.012 A 
ENDBRANCH   2   3
BRANCH   1  12
ATOM     12  C   LIG    1       24.476 -29.542   6.171  0.00  0.00    +0.143 C 
BRANCH  12  14
ATOM     13  C   LIG    1       25.994 -30.994   7.658  0.00  0.00    +0.013 C 
ATOM     14  C   LIG    1       24.542 -30.588   7.331  0.00  0.00    -0.008 C 
ATOM     15  C   LIG    1       23.925 -29.978   8.607  0.00  0.00    +0.013 C 
ATOM     16  C   LIG    1       23.740 -31.854   6.971  0.00  0.00    +0.013 C 
ENDBRANCH  12  14
BRANCH  12  17
ATOM     17  O   LIG    1       23.218 -29.621   5.504  0.00  0.00    -0.387 OA
ATOM     18  H   LIG    1       22.859 -30.512   5.642  0.00  0.00    +0.210 HD
ENDBRANCH  12  17
ENDBRANCH   1  12
TORSDOF 4
ENDMDL
MODEL 9
REMARK VINA RESULT:      -7.3      6.389      7.761
REMARK  Name = *****
REMARK                            x       y       z     vdW  Elec       q    Type
REMARK                         _______ _______ _______ _____ _____    ______ ____
ROOT
ATOM      1  C   LIG    1       24.244 -27.449   6.509  0.00  0.00    +0.005 C 
ATOM      2  C   LIG    1       24.927 -26.382   6.064  0.00  0.00    +0.006 C 
ENDROOT
BRANCH   2   3
ATOM      3  C   LIG    1       24.736 -25.004   6.546  0.00  0.00    -0.022 A 
ATOM      4  C   LIG    1       25.813 -24.204   6.959  0.00  0.00    +0.057 A 
ATOM      5  C   LIG    1       25.556 -22.899   7.328  0.00  0.00    +0.167 A 
ATOM      6  O   LIG    1       26.484 -21.994   7.742  0.00  0.00    -0.453 OA
ATOM      7  C   LIG    1       25.654 -20.835   7.960  0.00  0.00    +0.466 C 
ATOM      8  O   LIG    1       24.257 -21.068   7.680  0.00  0.00    -0.453 OA
ATOM      9  C   LIG    1       24.289 -22.370   7.293  0.00  0.00    +0.166 A 
ATOM     10  C   LIG    1       23.206 -23.118   6.888  0.00  0.00    +0.050 A 
ATOM     11  C   LIG    1       23.437 -24.446   6.508  0.00  0.00    +0.012 A 
ENDBRANCH   2   3
BRANCH   1  12
ATOM     12  C   LIG    1       24.493 -28.862   6.042  0.00  0.00    +0.143 C 
BRANCH  12  14
ATOM     13  C   LIG    1       23.714 -30.476   7.889  0.00  0.00    +0.013 C 
ATOM     14  C   LIG    1       24.929 -29.858   7.166  0.00  0.00    -0.008 C 
ATOM     15  C   LIG    1       25.741 -31.013   6.540  0.00  0.00    +0.013 C 
ATOM     16  C   LIG    1       25.822 -29.154   8.205  0.00  0.00    +0.013 C 
ENDBRANCH  12  14
BRANCH  12  17
ATOM     17  O   LIG    1       23.299 -29.322   5.409  0.00  0.00    -0.387 OA
ATOM     18  H   LIG    1       22.598 -29.359   6.080  0.00  0.00    +0.210 HD
ENDBRANCH  12  17
ENDBRANCH   1  12
TORSDOF 4
ENDMDL
