MODEL 1
REMARK VINA RESULT:       8.6      0.000      0.000
REMARK  Name = *****
REMARK                            x       y       z     vdW  Elec       q    Type
REMARK                         _______ _______ _______ _____ _____    ______ ____
ROOT
ATOM      1  C   LIG    1       24.601 -13.970   3.280  0.00  0.00    +0.061 C 
ATOM      2  C   LIG    1       24.351 -14.945   4.465  0.00  0.00    -0.017 C 
ATOM      3  C   LIG    1       24.817 -14.347   5.819  0.00  0.00    +0.012 C 
ATOM      4  C   LIG    1       25.276 -16.139   4.089  0.00  0.00    -0.001 C 
ATOM      5  C   LIG    1       24.679 -17.113   3.031  0.00  0.00    -0.000 C 
ATOM      6  C   LIG    1       23.224 -17.572   3.322  0.00  0.00    +0.031 C 
ATOM      7  C   LIG    1       22.360 -16.303   3.539  0.00  0.00    +0.119 C 
ATOM      8  C   LIG    1       23.049 -18.804   4.318  0.00  0.00    -0.005 C 
ATOM      9  C   LIG    1       21.682 -19.489   3.999  0.00  0.00    +0.016 C 
ATOM     10  C   LIG    1       24.184 -19.849   4.171  0.00  0.00    -0.057 C 
ATOM     11  C   LIG    1       24.066 -21.039   4.802  0.00  0.00    +0.046 C 
ATOM     12  C   LIG    1       23.997 -20.783   6.289  0.00  0.00    +0.156 C 
ATOM     13  O   LIG    1       24.534 -21.572   7.062  0.00  0.00    -0.293 OA
ATOM     14  C   LIG    1       23.119 -19.635   6.770  0.00  0.00    +0.080 C 
ATOM     15  C   LIG    1       25.591 -19.322   3.917  0.00  0.00    +0.013 C 
ATOM     16  C   LIG    1       26.621 -20.425   3.612  0.00  0.00    +0.012 C 
ATOM     17  C   LIG    1       23.076 -18.427   5.819  0.00  0.00    +0.019 C 
ATOM     18  C   LIG    1       25.570 -18.335   2.753  0.00  0.00    +0.012 C 
ATOM     19  C   LIG    1       26.547 -15.437   3.567  0.00  0.00    +0.005 C 
ATOM     20  C   LIG    1       22.881 -15.358   4.616  0.00  0.00    +0.039 C 
ATOM     21  C   LIG    1       26.110 -14.070   3.036  0.00  0.00    +0.012 C 
ENDROOT
BRANCH   1  23
ATOM     22  C   LIG    1       24.162 -11.636   2.231  0.00  0.00    +0.086 C 
ATOM     23  C   LIG    1       24.114 -12.528   3.447  0.00  0.00    +0.134 C 
ATOM     24  O   LIG    1       23.581 -12.128   4.482  0.00  0.00    -0.297 OA
ENDBRANCH   1  23
BRANCH   7  25
ATOM     25  O   LIG    1       21.005 -16.618   3.820  0.00  0.00    -0.392 OA
ATOM     26  H   LIG    1       20.443 -16.034   3.279  0.00  0.00    +0.210 HD
ENDBRANCH   7  25
TORSDOF 2
ENDMDL
