MODEL 1
REMARK VINA RESULT:      -7.5      0.000      0.000
REMARK  Name = *****
REMARK                            x       y       z     vdW  Elec       q    Type
REMARK                         _______ _______ _______ _____ _____    ______ ____
ROOT
ATOM      1  N   LIG    1       26.173 -21.609   7.776  0.00  0.00    -0.312 N 
ATOM      2  C   LIG    1       25.638 -22.763   7.276  0.00  0.00    +0.165 A 
ATOM      3  N   LIG    1       26.270 -23.910   6.995  0.00  0.00    -0.216 NA
ATOM      4  C   LIG    1       25.397 -24.840   6.553  0.00  0.00    +0.225 A 
ATOM      5  N   LIG    1       24.056 -24.734   6.406  0.00  0.00    -0.219 NA
ATOM      6  C   LIG    1       23.467 -23.559   6.725  0.00  0.00    +0.147 A 
ATOM      7  C   LIG    1       24.279 -22.496   7.155  0.00  0.00    +0.147 A 
ATOM      8  N   LIG    1       24.002 -21.191   7.503  0.00  0.00    -0.231 NA
ATOM      9  C   LIG    1       25.163 -20.689   7.877  0.00  0.00    +0.201 A 
ENDROOT
BRANCH   6  10
ATOM     10  N   LIG    1       22.087 -23.467   6.612  0.00  0.00    -0.341 N 
ATOM     11  H   LIG    1       21.770 -22.578   6.246  0.00  0.00    +0.144 HD
ATOM     12  H   LIG    1       21.674 -24.311   6.242  0.00  0.00    +0.144 HD
ENDBRANCH   6  10
BRANCH   1  13
ATOM     13  C   LIG    1       27.556 -21.408   8.170  0.00  0.00    +0.156 C 
BRANCH  13  15
ATOM     14  C   LIG    1       28.007 -20.004   6.137  0.00  0.00    +0.039 C 
ATOM     15  C   LIG    1       28.484 -21.199   6.960  0.00  0.00    +0.136 C 
BRANCH  15  16
ATOM     16  O   LIG    1       29.795 -20.934   7.472  0.00  0.00    -0.363 OA
BRANCH  16  17
ATOM     17  C   LIG    1       30.339 -19.662   7.099  0.00  0.00    +0.286 C 
BRANCH  17  18
ATOM     18  P   LIG    1       31.053 -18.887   8.554  0.00  0.00    +0.353 P 
ATOM     19  O   LIG    1       30.126 -18.367   9.589  0.00  0.00    -0.256 OA
BRANCH  18  20
ATOM     20  O   LIG    1       32.089 -17.769   8.051  0.00  0.00    -0.323 OA
ATOM     21  H   LIG    1       32.648 -17.411   8.756  0.00  0.00    +0.220 HD
ENDBRANCH  18  20
BRANCH  18  22
ATOM     22  O   LIG    1       32.066 -19.973   9.173  0.00  0.00    -0.323 OA
ATOM     23  H   LIG    1       31.682 -20.452   9.927  0.00  0.00    +0.220 HD
ENDBRANCH  18  22
ENDBRANCH  17  18
ENDBRANCH  16  17
ENDBRANCH  15  16
ENDBRANCH  13  15
ENDBRANCH   1  13
TORSDOF 8
ENDMDL
MODEL 2
REMARK VINA RESULT:      -7.5      4.712      7.029
REMARK  Name = *****
REMARK                            x       y       z     vdW  Elec       q    Type
REMARK                         _______ _______ _______ _____ _____    ______ ____
ROOT
ATOM      1  N   LIG    1       27.260 -20.753   6.867  0.00  0.00    -0.312 N 
ATOM      2  C   LIG    1       28.383 -20.033   6.571  0.00  0.00    +0.165 A 
ATOM      3  N   LIG    1       28.545 -19.119   5.605  0.00  0.00    -0.216 NA
ATOM      4  C   LIG    1       29.788 -18.593   5.649  0.00  0.00    +0.225 A 
ATOM      5  N   LIG    1       30.787 -18.866   6.520  0.00  0.00    -0.219 NA
ATOM      6  C   LIG    1       30.561 -19.782   7.489  0.00  0.00    +0.147 A 
ATOM      7  C   LIG    1       29.317 -20.434   7.520  0.00  0.00    +0.147 A 
ATOM      8  N   LIG    1       28.802 -21.424   8.328  0.00  0.00    -0.231 NA
ATOM      9  C   LIG    1       27.560 -21.587   7.912  0.00  0.00    +0.201 A 
ENDROOT
BRANCH   6  10
ATOM     10  N   LIG    1       31.574 -20.027   8.406  0.00  0.00    -0.341 N 
ATOM     11  H   LIG    1       31.237 -20.371   9.297  0.00  0.00    +0.144 HD
ATOM     12  H   LIG    1       32.371 -20.486   7.987  0.00  0.00    +0.144 HD
ENDBRANCH   6  10
BRANCH   1  13
ATOM     13  C   LIG    1       25.967 -20.625   6.219  0.00  0.00    +0.156 C 
BRANCH  13  15
ATOM     14  C   LIG    1       23.558 -20.740   6.921  0.00  0.00    +0.039 C 
ATOM     15  C   LIG    1       24.888 -21.491   6.895  0.00  0.00    +0.136 C 
BRANCH  15  16
ATOM     16  O   LIG    1       24.748 -22.683   6.113  0.00  0.00    -0.363 OA
BRANCH  16  17
ATOM     17  C   LIG    1       24.818 -23.903   6.859  0.00  0.00    +0.286 C 
BRANCH  17  18
ATOM     18  P   LIG    1       25.138 -25.260   5.727  0.00  0.00    +0.353 P 
ATOM     19  O   LIG    1       26.472 -25.907   5.776  0.00  0.00    -0.256 OA
BRANCH  18  20
ATOM     20  O   LIG    1       24.762 -24.759   4.249  0.00  0.00    -0.323 OA
ATOM     21  H   LIG    1       25.335 -24.052   3.919  0.00  0.00    +0.220 HD
ENDBRANCH  18  20
BRANCH  18  22
ATOM     22  O   LIG    1       23.964 -26.329   5.986  0.00  0.00    -0.323 OA
ATOM     23  H   LIG    1       23.094 -25.908   6.090  0.00  0.00    +0.220 HD
ENDBRANCH  18  22
ENDBRANCH  17  18
ENDBRANCH  16  17
ENDBRANCH  15  16
ENDBRANCH  13  15
ENDBRANCH   1  13
TORSDOF 8
ENDMDL
MODEL 3
REMARK VINA RESULT:      -7.3      4.614      7.062
REMARK  Name = *****
REMARK                            x       y       z     vdW  Elec       q    Type
REMARK                         _______ _______ _______ _____ _____    ______ ____
ROOT
ATOM      1  N   LIG    1       28.483 -20.761   7.110  0.00  0.00    -0.312 N 
ATOM      2  C   LIG    1       29.592 -20.782   7.908  0.00  0.00    +0.165 A 
ATOM      3  N   LIG    1       29.977 -21.741   8.759  0.00  0.00    -0.216 NA
ATOM      4  C   LIG    1       31.151 -21.419   9.342  0.00  0.00    +0.225 A 
ATOM      5  N   LIG    1       31.917 -20.322   9.142  0.00  0.00    -0.219 NA
ATOM      6  C   LIG    1       31.490 -19.395   8.255  0.00  0.00    +0.147 A 
ATOM      7  C   LIG    1       30.256 -19.596   7.615  0.00  0.00    +0.147 A 
ATOM      8  N   LIG    1       29.535 -18.838   6.717  0.00  0.00    -0.231 NA
ATOM      9  C   LIG    1       28.478 -19.572   6.429  0.00  0.00    +0.201 A 
ENDROOT
BRANCH   6  10
ATOM     10  N   LIG    1       32.300 -18.291   8.022  0.00  0.00    -0.341 N 
ATOM     11  H   LIG    1       32.377 -18.048   7.042  0.00  0.00    +0.144 HD
ATOM     12  H   LIG    1       32.140 -17.548   8.688  0.00  0.00    +0.144 HD
ENDBRANCH   6  10
BRANCH   1  13
ATOM     13  C   LIG    1       27.507 -21.828   6.975  0.00  0.00    +0.156 C 
BRANCH  13  15
ATOM     14  C   LIG    1       25.530 -20.656   7.988  0.00  0.00    +0.039 C 
ATOM     15  C   LIG    1       26.488 -21.837   8.129  0.00  0.00    +0.136 C 
BRANCH  15  16
ATOM     16  O   LIG    1       25.752 -23.062   8.035  0.00  0.00    -0.363 OA
BRANCH  16  17
ATOM     17  C   LIG    1       26.016 -23.833   6.858  0.00  0.00    +0.286 C 
BRANCH  17  18
ATOM     18  P   LIG    1       24.480 -24.065   5.958  0.00  0.00    +0.353 P 
ATOM     19  O   LIG    1       23.325 -24.641   6.689  0.00  0.00    -0.256 OA
BRANCH  18  20
ATOM     20  O   LIG    1       24.817 -24.883   4.619  0.00  0.00    -0.323 OA
ATOM     21  H   LIG    1       24.141 -24.801   3.930  0.00  0.00    +0.220 HD
ENDBRANCH  18  20
BRANCH  18  22
ATOM     22  O   LIG    1       24.115 -22.624   5.340  0.00  0.00    -0.323 OA
ATOM     23  H   LIG    1       24.898 -22.152   5.010  0.00  0.00    +0.220 HD
ENDBRANCH  18  22
ENDBRANCH  17  18
ENDBRANCH  16  17
ENDBRANCH  15  16
ENDBRANCH  13  15
ENDBRANCH   1  13
TORSDOF 8
ENDMDL
MODEL 4
REMARK VINA RESULT:      -7.3      4.622      7.115
REMARK  Name = *****
REMARK                            x       y       z     vdW  Elec       q    Type
REMARK                         _______ _______ _______ _____ _____    ______ ____
ROOT
ATOM      1  N   LIG    1       28.570 -20.632   7.076  0.00  0.00    -0.312 N 
ATOM      2  C   LIG    1       29.666 -20.665   7.890  0.00  0.00    +0.165 A 
ATOM      3  N   LIG    1       30.038 -21.638   8.732  0.00  0.00    -0.216 NA
ATOM      4  C   LIG    1       31.203 -21.325   9.339  0.00  0.00    +0.225 A 
ATOM      5  N   LIG    1       31.972 -20.225   9.168  0.00  0.00    -0.219 NA
ATOM      6  C   LIG    1       31.559 -19.283   8.289  0.00  0.00    +0.147 A 
ATOM      7  C   LIG    1       30.335 -19.474   7.627  0.00  0.00    +0.147 A 
ATOM      8  N   LIG    1       29.628 -18.703   6.729  0.00  0.00    -0.231 NA
ATOM      9  C   LIG    1       28.575 -19.432   6.414  0.00  0.00    +0.201 A 
ENDROOT
BRANCH   6  10
ATOM     10  N   LIG    1       32.372 -18.176   8.086  0.00  0.00    -0.341 N 
ATOM     11  H   LIG    1       31.877 -17.377   7.710  0.00  0.00    +0.144 HD
ATOM     12  H   LIG    1       33.015 -18.025   8.850  0.00  0.00    +0.144 HD
ENDBRANCH   6  10
BRANCH   1  13
ATOM     13  C   LIG    1       27.597 -21.696   6.908  0.00  0.00    +0.156 C 
BRANCH  13  15
ATOM     14  C   LIG    1       26.062 -20.640   8.593  0.00  0.00    +0.039 C 
ATOM     15  C   LIG    1       26.764 -21.932   8.181  0.00  0.00    +0.136 C 
BRANCH  15  16
ATOM     16  O   LIG    1       25.785 -22.930   7.870  0.00  0.00    -0.363 OA
BRANCH  16  17
ATOM     17  C   LIG    1       25.229 -22.835   6.553  0.00  0.00    +0.286 C 
BRANCH  17  18
ATOM     18  P   LIG    1       23.455 -22.592   6.687  0.00  0.00    +0.353 P 
ATOM     19  O   LIG    1       22.949 -21.779   7.820  0.00  0.00    -0.256 OA
BRANCH  18  20
ATOM     20  O   LIG    1       22.759 -24.037   6.620  0.00  0.00    -0.323 OA
ATOM     21  H   LIG    1       21.944 -24.053   6.096  0.00  0.00    +0.220 HD
ENDBRANCH  18  20
BRANCH  18  22
ATOM     22  O   LIG    1       22.992 -21.973   5.275  0.00  0.00    -0.323 OA
ATOM     23  H   LIG    1       23.633 -21.333   4.922  0.00  0.00    +0.220 HD
ENDBRANCH  18  22
ENDBRANCH  17  18
ENDBRANCH  16  17
ENDBRANCH  15  16
ENDBRANCH  13  15
ENDBRANCH   1  13
TORSDOF 8
ENDMDL
MODEL 5
REMARK VINA RESULT:      -7.3      2.161      2.788
REMARK  Name = *****
REMARK                            x       y       z     vdW  Elec       q    Type
REMARK                         _______ _______ _______ _____ _____    ______ ____
ROOT
ATOM      1  N   LIG    1       27.039 -20.354   6.589  0.00  0.00    -0.312 N 
ATOM      2  C   LIG    1       26.044 -20.357   5.653  0.00  0.00    +0.165 A 
ATOM      3  N   LIG    1       26.084 -19.868   4.407  0.00  0.00    -0.216 NA
ATOM      4  C   LIG    1       24.916 -20.093   3.768  0.00  0.00    +0.225 A 
ATOM      5  N   LIG    1       23.815 -20.733   4.227  0.00  0.00    -0.219 NA
ATOM      6  C   LIG    1       23.838 -21.226   5.486  0.00  0.00    +0.147 A 
ATOM      7  C   LIG    1       24.985 -21.015   6.269  0.00  0.00    +0.147 A 
ATOM      8  N   LIG    1       25.300 -21.340   7.571  0.00  0.00    -0.231 NA
ATOM      9  C   LIG    1       26.545 -20.933   7.728  0.00  0.00    +0.201 A 
ENDROOT
BRANCH   6  10
ATOM     10  N   LIG    1       22.723 -21.918   5.938  0.00  0.00    -0.341 N 
ATOM     11  H   LIG    1       22.183 -21.408   6.626  0.00  0.00    +0.144 HD
ATOM     12  H   LIG    1       22.227 -22.381   5.189  0.00  0.00    +0.144 HD
ENDBRANCH   6  10
BRANCH   1  13
ATOM     13  C   LIG    1       28.392 -19.863   6.398  0.00  0.00    +0.156 C 
BRANCH  13  15
ATOM     14  C   LIG    1       30.069 -20.809   8.011  0.00  0.00    +0.039 C 
ATOM     15  C   LIG    1       29.127 -19.640   7.733  0.00  0.00    +0.136 C 
BRANCH  15  16
ATOM     16  O   LIG    1       29.888 -18.434   7.602  0.00  0.00    -0.363 OA
BRANCH  16  17
ATOM     17  C   LIG    1       31.232 -18.516   8.087  0.00  0.00    +0.286 C 
BRANCH  17  18
ATOM     18  P   LIG    1       31.479 -17.247   9.334  0.00  0.00    +0.353 P 
ATOM     19  O   LIG    1       30.279 -16.569   9.882  0.00  0.00    -0.256 OA
BRANCH  18  20
ATOM     20  O   LIG    1       32.556 -16.204   8.761  0.00  0.00    -0.323 OA
ATOM     21  H   LIG    1       33.474 -16.500   8.854  0.00  0.00    +0.220 HD
ENDBRANCH  18  20
BRANCH  18  22
ATOM     22  O   LIG    1       32.336 -17.946  10.504  0.00  0.00    -0.323 OA
ATOM     23  H   LIG    1       31.793 -18.520  11.069  0.00  0.00    +0.220 HD
ENDBRANCH  18  22
ENDBRANCH  17  18
ENDBRANCH  16  17
ENDBRANCH  15  16
ENDBRANCH  13  15
ENDBRANCH   1  13
TORSDOF 8
ENDMDL
MODEL 6
REMARK VINA RESULT:      -7.2      4.646      7.101
REMARK  Name = *****
REMARK                            x       y       z     vdW  Elec       q    Type
REMARK                         _______ _______ _______ _____ _____    ______ ____
ROOT
ATOM      1  N   LIG    1       28.670 -20.181   6.682  0.00  0.00    -0.312 N 
ATOM      2  C   LIG    1       29.663 -20.323   7.609  0.00  0.00    +0.165 A 
ATOM      3  N   LIG    1       29.868 -21.348   8.447  0.00  0.00    -0.216 NA
ATOM      4  C   LIG    1       30.977 -21.144   9.189  0.00  0.00    +0.225 A 
ATOM      5  N   LIG    1       31.837 -20.100   9.148  0.00  0.00    -0.219 NA
ATOM      6  C   LIG    1       31.594 -19.103   8.267  0.00  0.00    +0.147 A 
ATOM      7  C   LIG    1       30.441 -19.179   7.468  0.00  0.00    +0.147 A 
ATOM      8  N   LIG    1       29.896 -18.328   6.531  0.00  0.00    -0.231 NA
ATOM      9  C   LIG    1       28.835 -18.964   6.074  0.00  0.00    +0.201 A 
ENDROOT
BRANCH   6  10
ATOM     10  N   LIG    1       32.502 -18.055   8.199  0.00  0.00    -0.341 N 
ATOM     11  H   LIG    1       32.084 -17.178   7.911  0.00  0.00    +0.144 HD
ATOM     12  H   LIG    1       33.140 -18.047   8.981  0.00  0.00    +0.144 HD
ENDBRANCH   6  10
BRANCH   1  13
ATOM     13  C   LIG    1       27.647 -21.162   6.366  0.00  0.00    +0.156 C 
BRANCH  13  15
ATOM     14  C   LIG    1       25.606 -20.338   5.157  0.00  0.00    +0.039 C 
ATOM     15  C   LIG    1       26.225 -20.596   6.529  0.00  0.00    +0.136 C 
BRANCH  15  16
ATOM     16  O   LIG    1       25.452 -21.583   7.224  0.00  0.00    -0.363 OA
BRANCH  16  17
ATOM     17  C   LIG    1       24.377 -22.147   6.465  0.00  0.00    +0.286 C 
BRANCH  17  18
ATOM     18  P   LIG    1       24.687 -23.901   6.234  0.00  0.00    +0.353 P 
ATOM     19  O   LIG    1       25.733 -24.538   7.070  0.00  0.00    -0.256 OA
BRANCH  18  20
ATOM     20  O   LIG    1       24.928 -24.151   4.667  0.00  0.00    -0.323 OA
ATOM     21  H   LIG    1       25.861 -24.256   4.428  0.00  0.00    +0.220 HD
ENDBRANCH  18  20
BRANCH  18  22
ATOM     22  O   LIG    1       23.263 -24.625   6.434  0.00  0.00    -0.323 OA
ATOM     23  H   LIG    1       23.352 -25.578   6.602  0.00  0.00    +0.220 HD
ENDBRANCH  18  22
ENDBRANCH  17  18
ENDBRANCH  16  17
ENDBRANCH  15  16
ENDBRANCH  13  15
ENDBRANCH   1  13
TORSDOF 8
ENDMDL
MODEL 7
REMARK VINA RESULT:      -7.1      2.284      3.071
REMARK  Name = *****
REMARK                            x       y       z     vdW  Elec       q    Type
REMARK                         _______ _______ _______ _____ _____    ______ ____
ROOT
ATOM      1  N   LIG    1       25.530 -22.140   6.765  0.00  0.00    -0.312 N 
ATOM      2  C   LIG    1       25.002 -21.299   5.827  0.00  0.00    +0.165 A 
ATOM      3  N   LIG    1       25.642 -20.388   5.082  0.00  0.00    -0.216 NA
ATOM      4  C   LIG    1       24.787 -19.775   4.236  0.00  0.00    +0.225 A 
ATOM      5  N   LIG    1       23.462 -19.997   4.072  0.00  0.00    -0.219 NA
ATOM      6  C   LIG    1       22.870 -20.943   4.836  0.00  0.00    +0.147 A 
ATOM      7  C   LIG    1       23.649 -21.621   5.788  0.00  0.00    +0.147 A 
ATOM      8  N   LIG    1       23.347 -22.582   6.729  0.00  0.00    -0.231 NA
ATOM      9  C   LIG    1       24.502 -22.876   7.294  0.00  0.00    +0.201 A 
ENDROOT
BRANCH   6  10
ATOM     10  N   LIG    1       21.520 -21.197   4.634  0.00  0.00    -0.341 N 
ATOM     11  H   LIG    1       21.280 -22.178   4.704  0.00  0.00    +0.144 HD
ATOM     12  H   LIG    1       20.928 -20.525   5.102  0.00  0.00    +0.144 HD
ENDBRANCH   6  10
BRANCH   1  13
ATOM     13  C   LIG    1       26.935 -22.263   7.109  0.00  0.00    +0.156 C 
BRANCH  13  15
ATOM     14  C   LIG    1       26.422 -20.457   8.778  0.00  0.00    +0.039 C 
ATOM     15  C   LIG    1       27.475 -21.008   7.819  0.00  0.00    +0.136 C 
BRANCH  15  16
ATOM     16  O   LIG    1       28.635 -21.404   8.559  0.00  0.00    -0.363 OA
BRANCH  16  17
ATOM     17  C   LIG    1       29.871 -21.288   7.846  0.00  0.00    +0.286 C 
BRANCH  17  18
ATOM     18  P   LIG    1       31.230 -21.428   9.011  0.00  0.00    +0.353 P 
ATOM     19  O   LIG    1       31.977 -20.194   9.360  0.00  0.00    -0.256 OA
BRANCH  18  20
ATOM     20  O   LIG    1       32.200 -22.596   8.491  0.00  0.00    -0.323 OA
ATOM     21  H   LIG    1       31.755 -23.447   8.368  0.00  0.00    +0.220 HD
ENDBRANCH  18  20
BRANCH  18  22
ATOM     22  O   LIG    1       30.609 -22.121  10.324  0.00  0.00    -0.323 OA
ATOM     23  H   LIG    1       31.238 -22.719  10.762  0.00  0.00    +0.220 HD
ENDBRANCH  18  22
ENDBRANCH  17  18
ENDBRANCH  16  17
ENDBRANCH  15  16
ENDBRANCH  13  15
ENDBRANCH   1  13
TORSDOF 8
ENDMDL
MODEL 8
REMARK VINA RESULT:      -7.1      1.028      1.989
REMARK  Name = *****
REMARK                            x       y       z     vdW  Elec       q    Type
REMARK                         _______ _______ _______ _____ _____    ______ ____
ROOT
ATOM      1  N   LIG    1       26.574 -21.326   7.229  0.00  0.00    -0.312 N 
ATOM      2  C   LIG    1       25.250 -21.374   6.899  0.00  0.00    +0.165 A 
ATOM      3  N   LIG    1       24.439 -20.352   6.594  0.00  0.00    -0.216 NA
ATOM      4  C   LIG    1       23.203 -20.799   6.285  0.00  0.00    +0.225 A 
ATOM      5  N   LIG    1       22.757 -22.076   6.238  0.00  0.00    -0.219 NA
ATOM      6  C   LIG    1       23.624 -23.070   6.535  0.00  0.00    +0.147 A 
ATOM      7  C   LIG    1       24.932 -22.728   6.917  0.00  0.00    +0.147 A 
ATOM      8  N   LIG    1       26.016 -23.480   7.316  0.00  0.00    -0.231 NA
ATOM      9  C   LIG    1       26.988 -22.606   7.490  0.00  0.00    +0.201 A 
ENDROOT
BRANCH   6  10
ATOM     10  N   LIG    1       23.174 -24.380   6.444  0.00  0.00    -0.341 N 
ATOM     11  H   LIG    1       23.087 -24.839   7.342  0.00  0.00    +0.144 HD
ATOM     12  H   LIG    1       22.421 -24.483   5.778  0.00  0.00    +0.144 HD
ENDBRANCH   6  10
BRANCH   1  13
ATOM     13  C   LIG    1       27.407 -20.137   7.255  0.00  0.00    +0.156 C 
BRANCH  13  15
ATOM     14  C   LIG    1       28.746 -18.950   5.493  0.00  0.00    +0.039 C 
ATOM     15  C   LIG    1       28.606 -20.242   6.295  0.00  0.00    +0.136 C 
BRANCH  15  16
ATOM     16  O   LIG    1       29.777 -20.436   7.098  0.00  0.00    -0.363 OA
BRANCH  16  17
ATOM     17  C   LIG    1       30.788 -19.434   6.936  0.00  0.00    +0.286 C 
BRANCH  17  18
ATOM     18  P   LIG    1       31.157 -18.718   8.540  0.00  0.00    +0.353 P 
ATOM     19  O   LIG    1       30.018 -18.362   9.422  0.00  0.00    -0.256 OA
BRANCH  18  20
ATOM     20  O   LIG    1       32.150 -17.479   8.304  0.00  0.00    -0.323 OA
ATOM     21  H   LIG    1       33.088 -17.718   8.337  0.00  0.00    +0.220 HD
ENDBRANCH  18  20
BRANCH  18  22
ATOM     22  O   LIG    1       32.149 -19.758   9.265  0.00  0.00    -0.323 OA
ATOM     23  H   LIG    1       32.101 -19.704  10.234  0.00  0.00    +0.220 HD
ENDBRANCH  18  22
ENDBRANCH  17  18
ENDBRANCH  16  17
ENDBRANCH  15  16
ENDBRANCH  13  15
ENDBRANCH   1  13
TORSDOF 8
ENDMDL
MODEL 9
REMARK VINA RESULT:      -6.8      4.533      6.716
REMARK  Name = *****
REMARK                            x       y       z     vdW  Elec       q    Type
REMARK                         _______ _______ _______ _____ _____    ______ ____
ROOT
ATOM      1  N   LIG    1       27.478 -21.034   7.407  0.00  0.00    -0.312 N 
ATOM      2  C   LIG    1       28.271 -20.155   6.726  0.00  0.00    +0.165 A 
ATOM      3  N   LIG    1       27.933 -19.366   5.697  0.00  0.00    -0.216 NA
ATOM      4  C   LIG    1       28.980 -18.606   5.313  0.00  0.00    +0.225 A 
ATOM      5  N   LIG    1       30.224 -18.557   5.844  0.00  0.00    -0.219 NA
ATOM      6  C   LIG    1       30.505 -19.360   6.895  0.00  0.00    +0.147 A 
ATOM      7  C   LIG    1       29.507 -20.233   7.359  0.00  0.00    +0.147 A 
ATOM      8  N   LIG    1       29.489 -21.187   8.354  0.00  0.00    -0.231 NA
ATOM      9  C   LIG    1       28.251 -21.644   8.360  0.00  0.00    +0.201 A 
ENDROOT
BRANCH   6  10
ATOM     10  N   LIG    1       31.769 -19.277   7.463  0.00  0.00    -0.341 N 
ATOM     11  H   LIG    1       32.504 -19.108   6.787  0.00  0.00    +0.144 HD
ATOM     12  H   LIG    1       31.772 -18.739   8.318  0.00  0.00    +0.144 HD
ENDBRANCH   6  10
BRANCH   1  13
ATOM     13  C   LIG    1       26.059 -21.251   7.191  0.00  0.00    +0.156 C 
BRANCH  13  15
ATOM     14  C   LIG    1       25.587 -23.717   7.248  0.00  0.00    +0.039 C 
ATOM     15  C   LIG    1       25.783 -22.505   6.340  0.00  0.00    +0.136 C 
BRANCH  15  16
ATOM     16  O   LIG    1       24.580 -22.261   5.602  0.00  0.00    -0.363 OA
BRANCH  16  17
ATOM     17  C   LIG    1       24.152 -20.894   5.587  0.00  0.00    +0.286 C 
BRANCH  17  18
ATOM     18  P   LIG    1       24.291 -20.261   3.912  0.00  0.00    +0.353 P 
ATOM     19  O   LIG    1       23.581 -19.001   3.584  0.00  0.00    -0.256 OA
BRANCH  18  20
ATOM     20  O   LIG    1       23.907 -21.452   2.907  0.00  0.00    -0.323 OA
ATOM     21  H   LIG    1       24.051 -22.336   3.277  0.00  0.00    +0.220 HD
ENDBRANCH  18  20
BRANCH  18  22
ATOM     22  O   LIG    1       25.870 -20.128   3.626  0.00  0.00    -0.323 OA
ATOM     23  H   LIG    1       26.242 -20.928   3.218  0.00  0.00    +0.220 HD
ENDBRANCH  18  22
ENDBRANCH  17  18
ENDBRANCH  16  17
ENDBRANCH  15  16
ENDBRANCH  13  15
ENDBRANCH   1  13
TORSDOF 8
ENDMDL
