MODEL 1
REMARK VINA RESULT:      -8.3      0.000      0.000
REMARK  Name = *****
REMARK                            x       y       z     vdW  Elec       q    Type
REMARK                         _______ _______ _______ _____ _____    ______ ____
ROOT
ATOM      1  C   LIG    1       28.698 -21.808   7.847  0.00  0.00    +0.048 C 
ATOM      2  C   LIG    1       27.819 -21.053   6.914  0.00  0.00    +0.008 A 
ATOM      3  C   LIG    1       26.599 -21.442   6.341  0.00  0.00    +0.078 A 
ATOM      4  N   LIG    1       26.130 -20.292   5.680  0.00  0.00    -0.230 N 
ATOM      5  N   LIG    1       27.096 -19.347   5.563  0.00  0.00    -0.161 NA
ATOM      6  C   LIG    1       28.126 -19.797   6.311  0.00  0.00    +0.152 A 
ENDROOT
BRANCH   4   7
ATOM      7  C   LIG    1       24.817 -20.008   5.180  0.00  0.00    +0.084 A 
ATOM      8  C   LIG    1       23.648 -20.209   5.945  0.00  0.00    +0.068 A 
ATOM      9 CL   LIG    1       23.610 -20.785   7.580  0.00  0.00    -0.081 Cl
ATOM     10  C   LIG    1       22.398 -19.845   5.422  0.00  0.00    +0.042 A 
ATOM     11  C   LIG    1       22.299 -19.291   4.150  0.00  0.00    +0.043 A 
ATOM     12 CL   LIG    1       20.767 -18.787   3.551  0.00  0.00    -0.084 Cl
ATOM     13  C   LIG    1       23.435 -19.131   3.366  0.00  0.00    +0.022 A 
ATOM     14  C   LIG    1       24.684 -19.505   3.871  0.00  0.00    +0.031 A 
ENDBRANCH   4   7
BRANCH   3  15
ATOM     15  C   LIG    1       25.969 -22.787   6.296  0.00  0.00    +0.001 A 
ATOM     16  C   LIG    1       26.152 -23.721   7.327  0.00  0.00    +0.011 A 
ATOM     17  C   LIG    1       25.607 -25.011   7.251  0.00  0.00    +0.020 A 
ATOM     18  C   LIG    1       24.832 -25.375   6.156  0.00  0.00    +0.041 A 
ATOM     19 CL   LIG    1       24.142 -26.947   6.075  0.00  0.00    -0.084 Cl
ATOM     20  C   LIG    1       24.619 -24.467   5.126  0.00  0.00    +0.020 A 
ATOM     21  C   LIG    1       25.209 -23.198   5.183  0.00  0.00    +0.011 A 
ENDBRANCH   3  15
BRANCH   6  22
ATOM     22  C   LIG    1       29.386 -19.020   6.374  0.00  0.00    +0.278 C 
ATOM     23  N   LIG    1       29.677 -18.599   7.662  0.00  0.00    -0.243 N 
ATOM     24  H   LIG    1       28.999 -18.852   8.376  0.00  0.00    +0.170 HD
ATOM     25  O   LIG    1       30.056 -18.744   5.380  0.00  0.00    -0.267 OA
BRANCH  23  26
ATOM     26  N   LIG    1       30.797 -17.785   7.953  0.00  0.00    -0.227 NA
ATOM     27  C   LIG    1       30.457 -16.699   8.886  0.00  0.00    +0.105 C 
ATOM     28  C   LIG    1       30.132 -17.197  10.296  0.00  0.00    +0.017 C 
ATOM     29  C   LIG    1       31.239 -18.089  10.852  0.00  0.00    +0.003 C 
ATOM     30  C   LIG    1       31.663 -19.163   9.855  0.00  0.00    +0.017 C 
ATOM     31  C   LIG    1       31.924 -18.576   8.466  0.00  0.00    +0.105 C 
ENDBRANCH  23  26
ENDBRANCH   6  22
TORSDOF 4
ENDMDL
MODEL 2
REMARK VINA RESULT:      -8.2      5.828      9.659
REMARK  Name = *****
REMARK                            x       y       z     vdW  Elec       q    Type
REMARK                         _______ _______ _______ _____ _____    ______ ____
ROOT
ATOM      1  C   LIG    1       24.218 -28.835   5.396  0.00  0.00    +0.048 C 
ATOM      2  C   LIG    1       24.943 -28.461   6.639  0.00  0.00    +0.008 A 
ATOM      3  C   LIG    1       24.973 -29.120   7.877  0.00  0.00    +0.078 A 
ATOM      4  N   LIG    1       25.935 -28.426   8.631  0.00  0.00    -0.230 N 
ATOM      5  N   LIG    1       26.267 -27.241   8.060  0.00  0.00    -0.161 NA
ATOM      6  C   LIG    1       25.672 -27.252   6.848  0.00  0.00    +0.152 A 
ENDROOT
BRANCH   4   7
ATOM      7  C   LIG    1       26.594 -28.820   9.842  0.00  0.00    +0.084 A 
ATOM      8  C   LIG    1       27.192 -30.087  10.008  0.00  0.00    +0.068 A 
ATOM      9 CL   LIG    1       27.257 -31.329   8.800  0.00  0.00    -0.081 Cl
ATOM     10  C   LIG    1       27.882 -30.386  11.193  0.00  0.00    +0.042 A 
ATOM     11  C   LIG    1       27.977 -29.443  12.211  0.00  0.00    +0.043 A 
ATOM     12 CL   LIG    1       28.884 -29.800  13.628  0.00  0.00    -0.084 Cl
ATOM     13  C   LIG    1       27.353 -28.208  12.083  0.00  0.00    +0.022 A 
ATOM     14  C   LIG    1       26.650 -27.906  10.913  0.00  0.00    +0.031 A 
ENDBRANCH   4   7
BRANCH   3  15
ATOM     15  C   LIG    1       24.106 -30.220   8.377  0.00  0.00    +0.001 A 
ATOM     16  C   LIG    1       23.366 -30.093   9.562  0.00  0.00    +0.011 A 
ATOM     17  C   LIG    1       22.599 -31.154  10.063  0.00  0.00    +0.020 A 
ATOM     18  C   LIG    1       22.527 -32.352   9.360  0.00  0.00    +0.041 A 
ATOM     19 CL   LIG    1       21.567 -33.645   9.960  0.00  0.00    -0.084 Cl
ATOM     20  C   LIG    1       23.237 -32.503   8.176  0.00  0.00    +0.020 A 
ATOM     21  C   LIG    1       24.043 -31.458   7.707  0.00  0.00    +0.011 A 
ENDBRANCH   3  15
BRANCH   6  22
ATOM     22  C   LIG    1       25.790 -26.074   5.958  0.00  0.00    +0.278 C 
ATOM     23  N   LIG    1       25.613 -24.881   6.641  0.00  0.00    -0.243 N 
ATOM     24  H   LIG    1       25.412 -24.964   7.634  0.00  0.00    +0.170 HD
ATOM     25  O   LIG    1       25.970 -26.163   4.744  0.00  0.00    -0.267 OA
BRANCH  23  26
ATOM     26  N   LIG    1       25.616 -23.628   5.983  0.00  0.00    -0.227 NA
ATOM     27  C   LIG    1       24.263 -23.227   5.564  0.00  0.00    +0.105 C 
ATOM     28  C   LIG    1       23.343 -22.895   6.741  0.00  0.00    +0.017 C 
ATOM     29  C   LIG    1       23.969 -21.865   7.678  0.00  0.00    +0.003 C 
ATOM     30  C   LIG    1       25.405 -22.225   8.046  0.00  0.00    +0.017 C 
ATOM     31  C   LIG    1       26.234 -22.583   6.810  0.00  0.00    +0.105 C 
ENDBRANCH  23  26
ENDBRANCH   6  22
TORSDOF 4
ENDMDL
MODEL 3
REMARK VINA RESULT:      -7.9      3.748      7.873
REMARK  Name = *****
REMARK                            x       y       z     vdW  Elec       q    Type
REMARK                         _______ _______ _______ _____ _____    ______ ____
ROOT
ATOM      1  C   LIG    1       23.464 -25.062   6.018  0.00  0.00    +0.048 C 
ATOM      2  C   LIG    1       24.784 -24.414   6.242  0.00  0.00    +0.008 A 
ATOM      3  C   LIG    1       25.113 -23.051   6.222  0.00  0.00    +0.078 A 
ATOM      4  N   LIG    1       26.450 -22.996   6.656  0.00  0.00    -0.230 N 
ATOM      5  N   LIG    1       27.032 -24.222   6.653  0.00  0.00    -0.161 NA
ATOM      6  C   LIG    1       26.029 -25.091   6.405  0.00  0.00    +0.152 A 
ENDROOT
BRANCH   4   7
ATOM      7  C   LIG    1       27.210 -21.869   7.111  0.00  0.00    +0.084 A 
ATOM      8  C   LIG    1       26.820 -21.081   8.214  0.00  0.00    +0.068 A 
ATOM      9 CL   LIG    1       25.417 -21.357   9.195  0.00  0.00    -0.081 Cl
ATOM     10  C   LIG    1       27.644 -20.032   8.652  0.00  0.00    +0.042 A 
ATOM     11  C   LIG    1       28.843 -19.759   8.001  0.00  0.00    +0.043 A 
ATOM     12 CL   LIG    1       29.874 -18.515   8.592  0.00  0.00    -0.084 Cl
ATOM     13  C   LIG    1       29.217 -20.495   6.884  0.00  0.00    +0.022 A 
ATOM     14  C   LIG    1       28.396 -21.531   6.430  0.00  0.00    +0.031 A 
ENDBRANCH   4   7
BRANCH   3  15
ATOM     15  C   LIG    1       24.313 -21.898   5.729  0.00  0.00    +0.001 A 
ATOM     16  C   LIG    1       24.487 -21.381   4.436  0.00  0.00    +0.011 A 
ATOM     17  C   LIG    1       23.775 -20.255   3.997  0.00  0.00    +0.020 A 
ATOM     18  C   LIG    1       22.845 -19.651   4.835  0.00  0.00    +0.041 A 
ATOM     19 CL   LIG    1       21.954 -18.286   4.288  0.00  0.00    -0.084 Cl
ATOM     20  C   LIG    1       22.640 -20.149   6.115  0.00  0.00    +0.020 A 
ATOM     21  C   LIG    1       23.391 -21.242   6.567  0.00  0.00    +0.011 A 
ENDBRANCH   3  15
BRANCH   6  22
ATOM     22  C   LIG    1       26.321 -26.539   6.286  0.00  0.00    +0.278 C 
ATOM     23  N   LIG    1       26.125 -27.212   7.481  0.00  0.00    -0.243 N 
ATOM     24  H   LIG    1       25.835 -26.641   8.271  0.00  0.00    +0.170 HD
ATOM     25  O   LIG    1       26.738 -27.058   5.252  0.00  0.00    -0.267 OA
BRANCH  23  26
ATOM     26  N   LIG    1       26.406 -28.592   7.623  0.00  0.00    -0.227 NA
ATOM     27  C   LIG    1       26.688 -28.953   9.022  0.00  0.00    +0.105 C 
ATOM     28  C   LIG    1       25.460 -28.849   9.929  0.00  0.00    +0.017 C 
ATOM     29  C   LIG    1       24.275 -29.636   9.374  0.00  0.00    +0.003 C 
ATOM     30  C   LIG    1       24.032 -29.337   7.898  0.00  0.00    +0.017 C 
ATOM     31  C   LIG    1       25.323 -29.424   7.081  0.00  0.00    +0.105 C 
ENDBRANCH  23  26
ENDBRANCH   6  22
TORSDOF 4
ENDMDL
MODEL 4
REMARK VINA RESULT:      -7.3      8.683     11.554
REMARK  Name = *****
REMARK                            x       y       z     vdW  Elec       q    Type
REMARK                         _______ _______ _______ _____ _____    ______ ____
ROOT
ATOM      1  C   LIG    1       23.647 -33.760   9.089  0.00  0.00    +0.048 C 
ATOM      2  C   LIG    1       23.950 -32.310   8.950  0.00  0.00    +0.008 A 
ATOM      3  C   LIG    1       24.634 -31.646   7.922  0.00  0.00    +0.078 A 
ATOM      4  N   LIG    1       24.488 -30.279   8.217  0.00  0.00    -0.230 N 
ATOM      5  N   LIG    1       24.032 -30.080   9.479  0.00  0.00    -0.161 NA
ATOM      6  C   LIG    1       23.699 -31.307   9.933  0.00  0.00    +0.152 A 
ENDROOT
BRANCH   4   7
ATOM      7  C   LIG    1       24.716 -29.141   7.375  0.00  0.00    +0.084 A 
ATOM      8  C   LIG    1       25.638 -28.123   7.701  0.00  0.00    +0.068 A 
ATOM      9 CL   LIG    1       26.642 -28.098   9.114  0.00  0.00    -0.081 Cl
ATOM     10  C   LIG    1       25.866 -27.070   6.801  0.00  0.00    +0.042 A 
ATOM     11  C   LIG    1       25.185 -27.018   5.589  0.00  0.00    +0.043 A 
ATOM     12 CL   LIG    1       25.525 -25.759   4.468  0.00  0.00    -0.084 Cl
ATOM     13  C   LIG    1       24.239 -27.986   5.275  0.00  0.00    +0.022 A 
ATOM     14  C   LIG    1       23.992 -29.031   6.171  0.00  0.00    +0.031 A 
ENDBRANCH   4   7
BRANCH   3  15
ATOM     15  C   LIG    1       25.459 -32.213   6.823  0.00  0.00    +0.001 A 
ATOM     16  C   LIG    1       26.804 -32.562   7.017  0.00  0.00    +0.011 A 
ATOM     17  C   LIG    1       27.597 -33.038   5.962  0.00  0.00    +0.020 A 
ATOM     18  C   LIG    1       27.041 -33.212   4.700  0.00  0.00    +0.041 A 
ATOM     19 CL   LIG    1       28.005 -33.819   3.413  0.00  0.00    -0.084 Cl
ATOM     20  C   LIG    1       25.708 -32.889   4.479  0.00  0.00    +0.020 A 
ATOM     21  C   LIG    1       24.936 -32.365   5.524  0.00  0.00    +0.011 A 
ENDBRANCH   3  15
BRANCH   6  22
ATOM     22  C   LIG    1       23.198 -31.470  11.318  0.00  0.00    +0.278 C 
ATOM     23  N   LIG    1       22.619 -30.309  11.805  0.00  0.00    -0.243 N 
ATOM     24  H   LIG    1       22.628 -29.510  11.177  0.00  0.00    +0.170 HD
ATOM     25  O   LIG    1       23.337 -32.506  11.966  0.00  0.00    -0.267 OA
BRANCH  23  26
ATOM     26  N   LIG    1       22.131 -30.209  13.130  0.00  0.00    -0.227 NA
ATOM     27  C   LIG    1       23.120 -29.600  14.033  0.00  0.00    +0.105 C 
ATOM     28  C   LIG    1       23.368 -28.118  13.741  0.00  0.00    +0.017 C 
ATOM     29  C   LIG    1       22.067 -27.319  13.712  0.00  0.00    +0.003 C 
ATOM     30  C   LIG    1       21.003 -27.992  12.849  0.00  0.00    +0.017 C 
ATOM     31  C   LIG    1       20.858 -29.478  13.185  0.00  0.00    +0.105 C 
ENDBRANCH  23  26
ENDBRANCH   6  22
TORSDOF 4
ENDMDL
MODEL 5
REMARK VINA RESULT:      -7.1      9.097     13.533
REMARK  Name = *****
REMARK                            x       y       z     vdW  Elec       q    Type
REMARK                         _______ _______ _______ _____ _____    ______ ____
ROOT
ATOM      1  C   LIG    1       23.958 -29.648  10.995  0.00  0.00    +0.048 C 
ATOM      2  C   LIG    1       24.185 -30.730   9.999  0.00  0.00    +0.008 A 
ATOM      3  C   LIG    1       24.679 -30.635   8.690  0.00  0.00    +0.078 A 
ATOM      4  N   LIG    1       24.839 -31.967   8.268  0.00  0.00    -0.230 N 
ATOM      5  N   LIG    1       24.212 -32.838   9.098  0.00  0.00    -0.161 NA
ATOM      6  C   LIG    1       23.813 -32.099  10.154  0.00  0.00    +0.152 A 
ENDROOT
BRANCH   4   7
ATOM      7  C   LIG    1       25.576 -32.482   7.151  0.00  0.00    +0.084 A 
ATOM      8  C   LIG    1       24.965 -32.816   5.924  0.00  0.00    +0.068 A 
ATOM      9 CL   LIG    1       23.280 -32.634   5.562  0.00  0.00    -0.081 Cl
ATOM     10  C   LIG    1       25.753 -33.250   4.845  0.00  0.00    +0.042 A 
ATOM     11  C   LIG    1       27.133 -33.358   4.978  0.00  0.00    +0.043 A 
ATOM     12 CL   LIG    1       28.090 -33.825   3.628  0.00  0.00    -0.084 Cl
ATOM     13  C   LIG    1       27.743 -33.079   6.195  0.00  0.00    +0.022 A 
ATOM     14  C   LIG    1       26.967 -32.661   7.280  0.00  0.00    +0.031 A 
ENDBRANCH   4   7
BRANCH   3  15
ATOM     15  C   LIG    1       24.875 -29.428   7.844  0.00  0.00    +0.001 A 
ATOM     16  C   LIG    1       24.125 -29.217   6.677  0.00  0.00    +0.011 A 
ATOM     17  C   LIG    1       24.357 -28.109   5.849  0.00  0.00    +0.020 A 
ATOM     18  C   LIG    1       25.318 -27.168   6.200  0.00  0.00    +0.041 A 
ATOM     19 CL   LIG    1       25.584 -25.796   5.199  0.00  0.00    -0.084 Cl
ATOM     20  C   LIG    1       26.066 -27.341   7.358  0.00  0.00    +0.020 A 
ATOM     21  C   LIG    1       25.867 -28.476   8.153  0.00  0.00    +0.011 A 
ENDBRANCH   3  15
BRANCH   6  22
ATOM     22  C   LIG    1       23.044 -32.732  11.250  0.00  0.00    +0.278 C 
ATOM     23  N   LIG    1       21.678 -32.557  11.101  0.00  0.00    -0.243 N 
ATOM     24  H   LIG    1       21.385 -32.014  10.293  0.00  0.00    +0.170 HD
ATOM     25  O   LIG    1       23.575 -33.300  12.204  0.00  0.00    -0.267 OA
BRANCH  23  26
ATOM     26  N   LIG    1       20.749 -33.018  12.064  0.00  0.00    -0.227 NA
ATOM     27  C   LIG    1       20.242 -31.923  12.906  0.00  0.00    +0.105 C 
ATOM     28  C   LIG    1       19.350 -30.941  12.143  0.00  0.00    +0.017 C 
ATOM     29  C   LIG    1       18.217 -31.654  11.409  0.00  0.00    +0.003 C 
ATOM     30  C   LIG    1       18.721 -32.849  10.605  0.00  0.00    +0.017 C 
ATOM     31  C   LIG    1       19.638 -33.748  11.438  0.00  0.00    +0.105 C 
ENDBRANCH  23  26
ENDBRANCH   6  22
TORSDOF 4
ENDMDL
MODEL 6
REMARK VINA RESULT:      -6.6      8.266     11.637
REMARK  Name = *****
REMARK                            x       y       z     vdW  Elec       q    Type
REMARK                         _______ _______ _______ _____ _____    ______ ____
ROOT
ATOM      1  C   LIG    1       26.524 -28.205  10.806  0.00  0.00    +0.048 C 
ATOM      2  C   LIG    1       25.978 -29.393  10.097  0.00  0.00    +0.008 A 
ATOM      3  C   LIG    1       25.643 -29.536   8.743  0.00  0.00    +0.078 A 
ATOM      4  N   LIG    1       25.336 -30.900   8.590  0.00  0.00    -0.230 N 
ATOM      5  N   LIG    1       25.176 -31.519   9.786  0.00  0.00    -0.161 NA
ATOM      6  C   LIG    1       25.566 -30.614  10.709  0.00  0.00    +0.152 A 
ENDROOT
BRANCH   4   7
ATOM      7  C   LIG    1       25.217 -31.673   7.388  0.00  0.00    +0.084 A 
ATOM      8  C   LIG    1       24.114 -32.512   7.127  0.00  0.00    +0.068 A 
ATOM      9 CL   LIG    1       22.744 -32.718   8.170  0.00  0.00    -0.081 Cl
ATOM     10  C   LIG    1       24.023 -33.189   5.901  0.00  0.00    +0.042 A 
ATOM     11  C   LIG    1       25.018 -33.043   4.939  0.00  0.00    +0.043 A 
ATOM     12 CL   LIG    1       24.858 -33.825   3.416  0.00  0.00    -0.084 Cl
ATOM     13  C   LIG    1       26.134 -32.258   5.200  0.00  0.00    +0.022 A 
ATOM     14  C   LIG    1       26.242 -31.592   6.425  0.00  0.00    +0.031 A 
ENDBRANCH   4   7
BRANCH   3  15
ATOM     15  C   LIG    1       25.496 -28.490   7.696  0.00  0.00    +0.001 A 
ATOM     16  C   LIG    1       26.367 -27.393   7.623  0.00  0.00    +0.011 A 
ATOM     17  C   LIG    1       26.186 -26.377   6.674  0.00  0.00    +0.020 A 
ATOM     18  C   LIG    1       25.150 -26.464   5.751  0.00  0.00    +0.041 A 
ATOM     19 CL   LIG    1       24.944 -25.232   4.570  0.00  0.00    -0.084 Cl
ATOM     20  C   LIG    1       24.280 -27.546   5.788  0.00  0.00    +0.020 A 
ATOM     21  C   LIG    1       24.434 -28.532   6.771  0.00  0.00    +0.011 A 
ENDBRANCH   3  15
BRANCH   6  22
ATOM     22  C   LIG    1       25.479 -30.946  12.151  0.00  0.00    +0.278 C 
ATOM     23  N   LIG    1       24.396 -30.335  12.763  0.00  0.00    -0.243 N 
ATOM     24  H   LIG    1       23.827 -29.739  12.169  0.00  0.00    +0.170 HD
ATOM     25  O   LIG    1       26.310 -31.642  12.732  0.00  0.00    -0.267 OA
BRANCH  23  26
ATOM     26  N   LIG    1       24.151 -30.454  14.152  0.00  0.00    -0.227 NA
ATOM     27  C   LIG    1       24.810 -29.384  14.918  0.00  0.00    +0.105 C 
ATOM     28  C   LIG    1       24.198 -28.003  14.669  0.00  0.00    +0.017 C 
ATOM     29  C   LIG    1       22.688 -28.002  14.889  0.00  0.00    +0.003 C 
ATOM     30  C   LIG    1       22.006 -29.164  14.172  0.00  0.00    +0.017 C 
ATOM     31  C   LIG    1       22.712 -30.493  14.447  0.00  0.00    +0.105 C 
ENDBRANCH  23  26
ENDBRANCH   6  22
TORSDOF 4
ENDMDL
MODEL 7
REMARK VINA RESULT:      -6.5      9.878     11.379
REMARK  Name = *****
REMARK                            x       y       z     vdW  Elec       q    Type
REMARK                         _______ _______ _______ _____ _____    ______ ____
ROOT
ATOM      1  C   LIG    1       26.676 -27.578  15.337  0.00  0.00    +0.048 C 
ATOM      2  C   LIG    1       26.639 -28.480  14.155  0.00  0.00    +0.008 A 
ATOM      3  C   LIG    1       25.642 -28.614  13.177  0.00  0.00    +0.078 A 
ATOM      4  N   LIG    1       26.193 -29.480  12.217  0.00  0.00    -0.230 N 
ATOM      5  N   LIG    1       27.308 -30.102  12.678  0.00  0.00    -0.161 NA
ATOM      6  C   LIG    1       27.589 -29.500  13.853  0.00  0.00    +0.152 A 
ENDROOT
BRANCH   4   7
ATOM      7  C   LIG    1       25.761 -29.738  10.874  0.00  0.00    +0.084 A 
ATOM      8  C   LIG    1       24.969 -30.854  10.529  0.00  0.00    +0.068 A 
ATOM      9 CL   LIG    1       24.377 -32.044  11.643  0.00  0.00    -0.081 Cl
ATOM     10  C   LIG    1       24.520 -31.012   9.209  0.00  0.00    +0.042 A 
ATOM     11  C   LIG    1       24.855 -30.079   8.233  0.00  0.00    +0.043 A 
ATOM     12 CL   LIG    1       24.241 -30.251   6.636  0.00  0.00    -0.084 Cl
ATOM     13  C   LIG    1       25.674 -29.002   8.547  0.00  0.00    +0.022 A 
ATOM     14  C   LIG    1       26.139 -28.843   9.855  0.00  0.00    +0.031 A 
ENDBRANCH   4   7
BRANCH   3  15
ATOM     15  C   LIG    1       24.250 -28.091  13.177  0.00  0.00    +0.001 A 
ATOM     16  C   LIG    1       23.147 -28.933  12.967  0.00  0.00    +0.011 A 
ATOM     17  C   LIG    1       21.841 -28.426  12.905  0.00  0.00    +0.020 A 
ATOM     18  C   LIG    1       21.613 -27.068  13.094  0.00  0.00    +0.041 A 
ATOM     19 CL   LIG    1       20.010 -26.450  13.044  0.00  0.00    -0.084 Cl
ATOM     20  C   LIG    1       22.683 -26.211  13.319  0.00  0.00    +0.020 A 
ATOM     21  C   LIG    1       23.990 -26.715  13.328  0.00  0.00    +0.011 A 
ENDBRANCH   3  15
BRANCH   6  22
ATOM     22  C   LIG    1       28.738 -29.968  14.664  0.00  0.00    +0.278 C 
ATOM     23  N   LIG    1       29.707 -28.989  14.813  0.00  0.00    -0.243 N 
ATOM     24  H   LIG    1       29.522 -28.106  14.343  0.00  0.00    +0.170 HD
ATOM     25  O   LIG    1       28.829 -31.113  15.103  0.00  0.00    -0.267 OA
BRANCH  23  26
ATOM     26  N   LIG    1       30.924 -29.231  15.493  0.00  0.00    -0.227 NA
ATOM     27  C   LIG    1       31.621 -30.415  14.964  0.00  0.00    +0.105 C 
ATOM     28  C   LIG    1       32.157 -30.213  13.546  0.00  0.00    +0.017 C 
ATOM     29  C   LIG    1       33.022 -28.960  13.437  0.00  0.00    +0.003 C 
ATOM     30  C   LIG    1       32.346 -27.744  14.065  0.00  0.00    +0.017 C 
ATOM     31  C   LIG    1       31.805 -28.055  15.462  0.00  0.00    +0.105 C 
ENDBRANCH  23  26
ENDBRANCH   6  22
TORSDOF 4
ENDMDL
MODEL 8
REMARK VINA RESULT:      -6.4      8.655     11.460
REMARK  Name = *****
REMARK                            x       y       z     vdW  Elec       q    Type
REMARK                         _______ _______ _______ _____ _____    ______ ____
ROOT
ATOM      1  C   LIG    1       24.301 -33.825   9.485  0.00  0.00    +0.048 C 
ATOM      2  C   LIG    1       24.529 -32.368   9.289  0.00  0.00    +0.008 A 
ATOM      3  C   LIG    1       25.044 -31.698   8.171  0.00  0.00    +0.078 A 
ATOM      4  N   LIG    1       24.888 -30.331   8.466  0.00  0.00    -0.230 N 
ATOM      5  N   LIG    1       24.597 -30.128   9.776  0.00  0.00    -0.161 NA
ATOM      6  C   LIG    1       24.375 -31.358  10.285  0.00  0.00    +0.152 A 
ENDROOT
BRANCH   4   7
ATOM      7  C   LIG    1       24.959 -29.200   7.588  0.00  0.00    +0.084 A 
ATOM      8  C   LIG    1       25.773 -28.079   7.853  0.00  0.00    +0.068 A 
ATOM      9 CL   LIG    1       26.816 -27.901   9.227  0.00  0.00    -0.081 Cl
ATOM     10  C   LIG    1       25.851 -27.034   6.919  0.00  0.00    +0.042 A 
ATOM     11  C   LIG    1       25.127 -27.092   5.733  0.00  0.00    +0.043 A 
ATOM     12 CL   LIG    1       25.287 -25.837   4.568  0.00  0.00    -0.084 Cl
ATOM     13  C   LIG    1       24.285 -28.167   5.479  0.00  0.00    +0.022 A 
ATOM     14  C   LIG    1       24.187 -29.206   6.410  0.00  0.00    +0.031 A 
ENDBRANCH   4   7
BRANCH   3  15
ATOM     15  C   LIG    1       25.736 -32.254   6.978  0.00  0.00    +0.001 A 
ATOM     16  C   LIG    1       27.064 -32.700   7.039  0.00  0.00    +0.011 A 
ATOM     17  C   LIG    1       27.733 -33.166   5.897  0.00  0.00    +0.020 A 
ATOM     18  C   LIG    1       27.066 -33.230   4.679  0.00  0.00    +0.041 A 
ATOM     19 CL   LIG    1       27.877 -33.825   3.285  0.00  0.00    -0.084 Cl
ATOM     20  C   LIG    1       25.745 -32.810   4.590  0.00  0.00    +0.020 A 
ATOM     21  C   LIG    1       25.099 -32.297   5.722  0.00  0.00    +0.011 A 
ENDBRANCH   3  15
BRANCH   6  22
ATOM     22  C   LIG    1       24.070 -31.515  11.727  0.00  0.00    +0.278 C 
ATOM     23  N   LIG    1       25.143 -31.163  12.530  0.00  0.00    -0.243 N 
ATOM     24  H   LIG    1       25.985 -30.870  12.043  0.00  0.00    +0.170 HD
ATOM     25  O   LIG    1       23.001 -31.959  12.143  0.00  0.00    -0.267 OA
BRANCH  23  26
ATOM     26  N   LIG    1       25.104 -31.297  13.938  0.00  0.00    -0.227 NA
ATOM     27  C   LIG    1       26.410 -31.698  14.486  0.00  0.00    +0.105 C 
ATOM     28  C   LIG    1       27.475 -30.606  14.363  0.00  0.00    +0.017 C 
ATOM     29  C   LIG    1       27.002 -29.281  14.955  0.00  0.00    +0.003 C 
ATOM     30  C   LIG    1       25.608 -28.901  14.463  0.00  0.00    +0.017 C 
ATOM     31  C   LIG    1       24.626 -30.068  14.586  0.00  0.00    +0.105 C 
ENDBRANCH  23  26
ENDBRANCH   6  22
TORSDOF 4
ENDMDL
MODEL 9
REMARK VINA RESULT:      -6.3      1.505      4.481
REMARK  Name = *****
REMARK                            x       y       z     vdW  Elec       q    Type
REMARK                         _______ _______ _______ _____ _____    ______ ____
ROOT
ATOM      1  C   LIG    1       28.282 -19.114   6.097  0.00  0.00    +0.048 C 
ATOM      2  C   LIG    1       27.807 -20.441   6.572  0.00  0.00    +0.008 A 
ATOM      3  C   LIG    1       26.602 -21.101   6.290  0.00  0.00    +0.078 A 
ATOM      4  N   LIG    1       26.748 -22.378   6.861  0.00  0.00    -0.230 N 
ATOM      5  N   LIG    1       27.808 -22.434   7.706  0.00  0.00    -0.161 NA
ATOM      6  C   LIG    1       28.460 -21.265   7.537  0.00  0.00    +0.152 A 
ENDROOT
BRANCH   4   7
ATOM      7  C   LIG    1       25.975 -23.564   6.639  0.00  0.00    +0.084 A 
ATOM      8  C   LIG    1       24.613 -23.665   6.994  0.00  0.00    +0.068 A 
ATOM      9 CL   LIG    1       23.668 -22.398   7.706  0.00  0.00    -0.081 Cl
ATOM     10  C   LIG    1       23.893 -24.830   6.686  0.00  0.00    +0.042 A 
ATOM     11  C   LIG    1       24.515 -25.892   6.037  0.00  0.00    +0.043 A 
ATOM     12 CL   LIG    1       23.602 -27.285   5.606  0.00  0.00    -0.084 Cl
ATOM     13  C   LIG    1       25.867 -25.827   5.724  0.00  0.00    +0.022 A 
ATOM     14  C   LIG    1       26.597 -24.677   6.040  0.00  0.00    +0.031 A 
ENDBRANCH   4   7
BRANCH   3  15
ATOM     15  C   LIG    1       25.367 -20.571   5.655  0.00  0.00    +0.001 A 
ATOM     16  C   LIG    1       25.323 -20.239   4.292  0.00  0.00    +0.011 A 
ATOM     17  C   LIG    1       24.176 -19.680   3.711  0.00  0.00    +0.020 A 
ATOM     18  C   LIG    1       23.034 -19.482   4.480  0.00  0.00    +0.041 A 
ATOM     19 CL   LIG    1       21.619 -18.821   3.763  0.00  0.00    -0.084 Cl
ATOM     20  C   LIG    1       23.041 -19.814   5.829  0.00  0.00    +0.020 A 
ATOM     21  C   LIG    1       24.207 -20.324   6.415  0.00  0.00    +0.011 A 
ENDBRANCH   3  15
BRANCH   6  22
ATOM     22  C   LIG    1       29.663 -20.966   8.350  0.00  0.00    +0.278 C 
ATOM     23  N   LIG    1       30.074 -19.650   8.211  0.00  0.00    -0.243 N 
ATOM     24  H   LIG    1       29.528 -19.078   7.573  0.00  0.00    +0.170 HD
ATOM     25  O   LIG    1       30.247 -21.814   9.023  0.00  0.00    -0.267 OA
BRANCH  23  26
ATOM     26  N   LIG    1       31.241 -19.155   8.842  0.00  0.00    -0.227 NA
ATOM     27  C   LIG    1       31.621 -17.829   8.329  0.00  0.00    +0.105 C 
ATOM     28  C   LIG    1       30.633 -16.728   8.720  0.00  0.00    +0.017 C 
ATOM     29  C   LIG    1       30.385 -16.696  10.226  0.00  0.00    +0.003 C 
ATOM     30  C   LIG    1       30.079 -18.084  10.784  0.00  0.00    +0.017 C 
ATOM     31  C   LIG    1       31.094 -19.124  10.304  0.00  0.00    +0.105 C 
ENDBRANCH  23  26
ENDBRANCH   6  22
TORSDOF 4
ENDMDL
