MODEL 1
REMARK VINA RESULT:      -8.8      0.000      0.000
REMARK  Name = *****
REMARK                            x       y       z     vdW  Elec       q    Type
REMARK                         _______ _______ _______ _____ _____    ______ ____
ROOT
ATOM      1  C   LIG    1       24.815 -20.039   4.615  0.00  0.00    +0.044 C 
ATOM      2  C   LIG    1       25.958 -20.094   5.592  0.00  0.00    -0.047 A 
ATOM      3  C   LIG    1       25.805 -20.579   6.905  0.00  0.00    -0.039 A 
ATOM      4  C   LIG    1       26.936 -20.651   7.750  0.00  0.00    +0.010 A 
ATOM      5  C   LIG    1       28.219 -20.254   7.324  0.00  0.00    -0.016 A 
ATOM      6  C   LIG    1       28.337 -19.764   6.018  0.00  0.00    +0.006 A 
ATOM      7  C   LIG    1       27.229 -19.690   5.167  0.00  0.00    +0.004 A 
ENDROOT
BRANCH   5   8
ATOM      8  C   LIG    1       29.428 -20.542   8.211  0.00  0.00    +0.180 C 
ATOM      9  C   LIG    1       30.807 -20.816   7.555  0.00  0.00    +0.179 C 
ATOM     10  C   LIG    1       31.610 -19.531   7.328  0.00  0.00    +0.177 C 
ATOM     11  C   LIG    1       31.723 -18.746   8.637  0.00  0.00    +0.176 C 
ATOM     12  C   LIG    1       30.355 -18.525   9.306  0.00  0.00    +0.175 C 
ATOM     13  O   LIG    1       29.513 -19.691   9.368  0.00  0.00    -0.361 OA
BRANCH   9  14
ATOM     14  O   LIG    1       31.586 -21.674   8.426  0.00  0.00    -0.386 OA
ATOM     15  H   LIG    1       32.469 -21.765   8.020  0.00  0.00    +0.210 HD
ENDBRANCH   9  14
BRANCH  10  16
ATOM     16  O   LIG    1       31.029 -18.738   6.296  0.00  0.00    -0.387 OA
ATOM     17  H   LIG    1       30.576 -19.343   5.681  0.00  0.00    +0.210 HD
ENDBRANCH  10  16
BRANCH  11  18
ATOM     18  O   LIG    1       32.599 -19.435   9.543  0.00  0.00    -0.387 OA
ATOM     19  H   LIG    1       33.495 -19.423   9.141  0.00  0.00    +0.210 HD
ENDBRANCH  11  18
BRANCH  12  20
ATOM     20  C   LIG    1       29.591 -17.334   8.710  0.00  0.00    +0.190 C 
BRANCH  20  21
ATOM     21  O   LIG    1       29.976 -16.128   9.372  0.00  0.00    -0.392 OA
ATOM     22  H   LIG    1       30.946 -16.073   9.279  0.00  0.00    +0.209 HD
ENDBRANCH  20  21
ENDBRANCH  12  20
ENDBRANCH   5   8
BRANCH   3  23
ATOM     23  C   LIG    1       24.459 -21.030   7.445  0.00  0.00    +0.078 C 
BRANCH  23  24
ATOM     24  C   LIG    1       24.086 -22.441   7.076  0.00  0.00    -0.005 A 
ATOM     25  S   LIG    1       25.323 -23.586   6.778  0.00  0.00    -0.093 S 
ATOM     26  C   LIG    1       24.205 -24.849   6.447  0.00  0.00    +0.020 A 
ATOM     27  C   LIG    1       22.906 -24.398   6.586  0.00  0.00    +0.016 A 
ATOM     28  C   LIG    1       22.836 -23.020   6.952  0.00  0.00    +0.012 A 
BRANCH  26  29
ATOM     29  C   LIG    1       24.682 -26.189   6.042  0.00  0.00    -0.011 A 
ATOM     30  C   LIG    1       24.084 -27.337   6.591  0.00  0.00    +0.012 A 
ATOM     31  C   LIG    1       24.511 -28.623   6.218  0.00  0.00    +0.039 A 
ATOM     32  C   LIG    1       25.534 -28.755   5.299  0.00  0.00    +0.123 A 
ATOM     33  F   LIG    1       25.937 -29.986   4.937  0.00  0.00    -0.205 F 
ATOM     34  C   LIG    1       26.150 -27.641   4.745  0.00  0.00    +0.039 A 
ATOM     35  C   LIG    1       25.726 -26.359   5.120  0.00  0.00    +0.012 A 
ENDBRANCH  26  29
ENDBRANCH  23  24
ENDBRANCH   3  23
TORSDOF 9
ENDMDL
MODEL 2
REMARK VINA RESULT:      -8.7      6.200     10.105
REMARK  Name = *****
REMARK                            x       y       z     vdW  Elec       q    Type
REMARK                         _______ _______ _______ _____ _____    ______ ____
ROOT
ATOM      1  C   LIG    1       25.719 -26.734   4.112  0.00  0.00    +0.044 C 
ATOM      2  C   LIG    1       25.378 -27.620   5.279  0.00  0.00    -0.047 A 
ATOM      3  C   LIG    1       25.443 -27.171   6.612  0.00  0.00    -0.039 A 
ATOM      4  C   LIG    1       25.056 -28.044   7.654  0.00  0.00    +0.010 A 
ATOM      5  C   LIG    1       24.604 -29.355   7.408  0.00  0.00    -0.016 A 
ATOM      6  C   LIG    1       24.563 -29.777   6.073  0.00  0.00    +0.006 A 
ATOM      7  C   LIG    1       24.937 -28.925   5.030  0.00  0.00    +0.004 A 
ENDROOT
BRANCH   5   8
ATOM      8  C   LIG    1       24.014 -30.175   8.552  0.00  0.00    +0.180 C 
ATOM      9  C   LIG    1       23.611 -31.652   8.304  0.00  0.00    +0.179 C 
ATOM     10  C   LIG    1       24.770 -32.623   8.554  0.00  0.00    +0.177 C 
ATOM     11  C   LIG    1       25.350 -32.396   9.952  0.00  0.00    +0.176 C 
ATOM     12  C   LIG    1       25.698 -30.919  10.207  0.00  0.00    +0.175 C 
ATOM     13  O   LIG    1       24.684 -29.977   9.811  0.00  0.00    -0.361 OA
BRANCH   9  14
ATOM     14  O   LIG    1       22.534 -32.009   9.206  0.00  0.00    -0.386 OA
ATOM     15  H   LIG    1       21.705 -31.701   8.794  0.00  0.00    +0.210 HD
ENDBRANCH   9  14
BRANCH  10  16
ATOM     16  O   LIG    1       25.772 -32.497   7.549  0.00  0.00    -0.387 OA
ATOM     17  H   LIG    1       26.502 -31.972   7.927  0.00  0.00    +0.210 HD
ENDBRANCH  10  16
BRANCH  11  18
ATOM     18  O   LIG    1       24.419 -32.851  10.945  0.00  0.00    -0.387 OA
ATOM     19  H   LIG    1       23.607 -33.135  10.470  0.00  0.00    +0.210 HD
ENDBRANCH  11  18
BRANCH  12  20
ATOM     20  C   LIG    1       27.064 -30.524   9.625  0.00  0.00    +0.190 C 
BRANCH  20  21
ATOM     21  O   LIG    1       27.379 -29.180   9.990  0.00  0.00    -0.392 OA
ATOM     22  H   LIG    1       28.222 -29.230  10.481  0.00  0.00    +0.209 HD
ENDBRANCH  20  21
ENDBRANCH  12  20
ENDBRANCH   5   8
BRANCH   3  23
ATOM     23  C   LIG    1       25.917 -25.773   6.968  0.00  0.00    +0.078 C 
BRANCH  23  24
ATOM     24  C   LIG    1       24.942 -24.681   6.616  0.00  0.00    -0.005 A 
ATOM     25  S   LIG    1       25.512 -23.262   5.847  0.00  0.00    -0.093 S 
ATOM     26  C   LIG    1       23.947 -22.556   5.778  0.00  0.00    +0.020 A 
ATOM     27  C   LIG    1       23.004 -23.409   6.319  0.00  0.00    +0.016 A 
ATOM     28  C   LIG    1       23.572 -24.630   6.795  0.00  0.00    +0.012 A 
BRANCH  26  29
ATOM     29  C   LIG    1       23.759 -21.197   5.226  0.00  0.00    -0.011 A 
ATOM     30  C   LIG    1       22.597 -20.471   5.543  0.00  0.00    +0.012 A 
ATOM     31  C   LIG    1       22.395 -19.174   5.041  0.00  0.00    +0.039 A 
ATOM     32  C   LIG    1       23.355 -18.610   4.223  0.00  0.00    +0.123 A 
ATOM     33  F   LIG    1       23.165 -17.366   3.748  0.00  0.00    -0.205 F 
ATOM     34  C   LIG    1       24.509 -19.304   3.885  0.00  0.00    +0.039 A 
ATOM     35  C   LIG    1       24.707 -20.598   4.383  0.00  0.00    +0.012 A 
ENDBRANCH  26  29
ENDBRANCH  23  24
ENDBRANCH   3  23
TORSDOF 9
ENDMDL
MODEL 3
REMARK VINA RESULT:      -8.5      1.726      3.143
REMARK  Name = *****
REMARK                            x       y       z     vdW  Elec       q    Type
REMARK                         _______ _______ _______ _____ _____    ______ ____
ROOT
ATOM      1  C   LIG    1       23.235 -21.904   7.719  0.00  0.00    +0.044 C 
ATOM      2  C   LIG    1       24.677 -21.597   7.418  0.00  0.00    -0.047 A 
ATOM      3  C   LIG    1       25.403 -22.281   6.425  0.00  0.00    -0.039 A 
ATOM      4  C   LIG    1       26.739 -21.902   6.162  0.00  0.00    +0.010 A 
ATOM      5  C   LIG    1       27.375 -20.857   6.861  0.00  0.00    -0.016 A 
ATOM      6  C   LIG    1       26.632 -20.205   7.852  0.00  0.00    +0.006 A 
ATOM      7  C   LIG    1       25.308 -20.564   8.122  0.00  0.00    +0.004 A 
ENDROOT
BRANCH   5   8
ATOM      8  C   LIG    1       28.744 -20.366   6.396  0.00  0.00    +0.180 C 
ATOM      9  C   LIG    1       29.145 -18.886   6.633  0.00  0.00    +0.179 C 
ATOM     10  C   LIG    1       29.821 -18.676   7.992  0.00  0.00    +0.177 C 
ATOM     11  C   LIG    1       31.002 -19.639   8.142  0.00  0.00    +0.176 C 
ATOM     12  C   LIG    1       30.606 -21.098   7.853  0.00  0.00    +0.175 C 
ATOM     13  O   LIG    1       29.813 -21.289   6.667  0.00  0.00    -0.361 OA
BRANCH   9  14
ATOM     14  O   LIG    1       30.080 -18.476   5.606  0.00  0.00    -0.386 OA
ATOM     15  H   LIG    1       30.732 -19.196   5.511  0.00  0.00    +0.210 HD
ENDBRANCH   9  14
BRANCH  10  16
ATOM     16  O   LIG    1       28.890 -18.826   9.059  0.00  0.00    -0.387 OA
ATOM     17  H   LIG    1       29.212 -18.289   9.806  0.00  0.00    +0.210 HD
ENDBRANCH  10  16
BRANCH  11  18
ATOM     18  O   LIG    1       32.067 -19.244   7.264  0.00  0.00    -0.387 OA
ATOM     19  H   LIG    1       31.688 -19.189   6.359  0.00  0.00    +0.210 HD
ENDBRANCH  11  18
BRANCH  12  20
ATOM     20  C   LIG    1       29.951 -21.782   9.062  0.00  0.00    +0.190 C 
BRANCH  20  21
ATOM     21  O   LIG    1       30.930 -22.029  10.072  0.00  0.00    -0.392 OA
ATOM     22  H   LIG    1       30.706 -22.900  10.452  0.00  0.00    +0.209 HD
ENDBRANCH  20  21
ENDBRANCH  12  20
ENDBRANCH   5   8
BRANCH   3  23
ATOM     23  C   LIG    1       24.794 -23.418   5.622  0.00  0.00    +0.078 C 
BRANCH  23  24
ATOM     24  C   LIG    1       25.155 -24.791   6.124  0.00  0.00    -0.005 A 
ATOM     25  S   LIG    1       24.391 -26.162   5.441  0.00  0.00    -0.093 S 
ATOM     26  C   LIG    1       25.252 -27.260   6.444  0.00  0.00    +0.020 A 
ATOM     27  C   LIG    1       26.124 -26.580   7.272  0.00  0.00    +0.016 A 
ATOM     28  C   LIG    1       26.075 -25.166   7.086  0.00  0.00    +0.012 A 
BRANCH  26  29
ATOM     29  C   LIG    1       24.985 -28.713   6.370  0.00  0.00    -0.011 A 
ATOM     30  C   LIG    1       24.359 -29.362   7.449  0.00  0.00    +0.012 A 
ATOM     31  C   LIG    1       24.085 -30.740   7.403  0.00  0.00    +0.039 A 
ATOM     32  C   LIG    1       24.438 -31.461   6.279  0.00  0.00    +0.123 A 
ATOM     33  F   LIG    1       24.168 -32.778   6.233  0.00  0.00    -0.205 F 
ATOM     34  C   LIG    1       25.064 -30.851   5.201  0.00  0.00    +0.039 A 
ATOM     35  C   LIG    1       25.340 -29.478   5.249  0.00  0.00    +0.012 A 
ENDBRANCH  26  29
ENDBRANCH  23  24
ENDBRANCH   3  23
TORSDOF 9
ENDMDL
MODEL 4
REMARK VINA RESULT:      -8.4      5.767      9.444
REMARK  Name = *****
REMARK                            x       y       z     vdW  Elec       q    Type
REMARK                         _______ _______ _______ _____ _____    ______ ____
ROOT
ATOM      1  C   LIG    1       23.828 -28.572   5.575  0.00  0.00    +0.044 C 
ATOM      2  C   LIG    1       24.706 -28.628   6.796  0.00  0.00    -0.047 A 
ATOM      3  C   LIG    1       25.805 -27.767   6.974  0.00  0.00    -0.039 A 
ATOM      4  C   LIG    1       26.553 -27.841   8.171  0.00  0.00    +0.010 A 
ATOM      5  C   LIG    1       26.237 -28.750   9.200  0.00  0.00    -0.016 A 
ATOM      6  C   LIG    1       25.147 -29.603   8.988  0.00  0.00    +0.006 A 
ATOM      7  C   LIG    1       24.393 -29.539   7.812  0.00  0.00    +0.004 A 
ENDROOT
BRANCH   5   8
ATOM      8  C   LIG    1       26.955 -28.646  10.544  0.00  0.00    +0.180 C 
ATOM      9  C   LIG    1       26.400 -27.691  11.633  0.00  0.00    +0.179 C 
ATOM     10  C   LIG    1       25.367 -28.375  12.535  0.00  0.00    +0.177 C 
ATOM     11  C   LIG    1       25.954 -29.662  13.120  0.00  0.00    +0.176 C 
ATOM     12  C   LIG    1       26.549 -30.578  12.036  0.00  0.00    +0.175 C 
ATOM     13  O   LIG    1       27.385 -29.914  11.070  0.00  0.00    -0.361 OA
BRANCH   9  14
ATOM     14  O   LIG    1       27.491 -27.243  12.474  0.00  0.00    -0.386 OA
ATOM     15  H   LIG    1       27.378 -26.282  12.599  0.00  0.00    +0.210 HD
ENDBRANCH   9  14
BRANCH  10  16
ATOM     16  O   LIG    1       24.156 -28.631  11.828  0.00  0.00    -0.387 OA
ATOM     17  H   LIG    1       24.234 -28.210  10.952  0.00  0.00    +0.210 HD
ENDBRANCH  10  16
BRANCH  11  18
ATOM     18  O   LIG    1       26.963 -29.340  14.089  0.00  0.00    -0.387 OA
ATOM     19  H   LIG    1       27.546 -28.662  13.682  0.00  0.00    +0.210 HD
ENDBRANCH  11  18
BRANCH  12  20
ATOM     20  C   LIG    1       25.483 -31.434  11.336  0.00  0.00    +0.190 C 
BRANCH  20  21
ATOM     21  O   LIG    1       26.104 -32.530  10.663  0.00  0.00    -0.392 OA
ATOM     22  H   LIG    1       25.374 -33.085  10.329  0.00  0.00    +0.209 HD
ENDBRANCH  20  21
ENDBRANCH  12  20
ENDBRANCH   5   8
BRANCH   3  23
ATOM     23  C   LIG    1       26.215 -26.755   5.918  0.00  0.00    +0.078 C 
BRANCH  23  24
ATOM     24  C   LIG    1       25.778 -25.345   6.210  0.00  0.00    -0.005 A 
ATOM     25  S   LIG    1       24.959 -24.453   5.000  0.00  0.00    -0.093 S 
ATOM     26  C   LIG    1       24.802 -23.062   5.997  0.00  0.00    +0.020 A 
ATOM     27  C   LIG    1       25.352 -23.293   7.244  0.00  0.00    +0.016 A 
ATOM     28  C   LIG    1       25.906 -24.602   7.369  0.00  0.00    +0.012 A 
BRANCH  26  29
ATOM     29  C   LIG    1       24.178 -21.828   5.473  0.00  0.00    -0.011 A 
ATOM     30  C   LIG    1       23.223 -21.147   6.250  0.00  0.00    +0.012 A 
ATOM     31  C   LIG    1       22.619 -19.966   5.782  0.00  0.00    +0.039 A 
ATOM     32  C   LIG    1       22.973 -19.474   4.540  0.00  0.00    +0.123 A 
ATOM     33  F   LIG    1       22.401 -18.341   4.096  0.00  0.00    -0.205 F 
ATOM     34  C   LIG    1       23.906 -20.128   3.747  0.00  0.00    +0.039 A 
ATOM     35  C   LIG    1       24.504 -21.306   4.212  0.00  0.00    +0.012 A 
ENDBRANCH  26  29
ENDBRANCH  23  24
ENDBRANCH   3  23
TORSDOF 9
ENDMDL
MODEL 5
REMARK VINA RESULT:      -8.3      5.822     10.314
REMARK  Name = *****
REMARK                            x       y       z     vdW  Elec       q    Type
REMARK                         _______ _______ _______ _____ _____    ______ ____
ROOT
ATOM      1  C   LIG    1       25.839 -31.982   4.318  0.00  0.00    +0.044 C 
ATOM      2  C   LIG    1       25.526 -31.551   5.725  0.00  0.00    -0.047 A 
ATOM      3  C   LIG    1       25.111 -30.243   6.039  0.00  0.00    -0.039 A 
ATOM      4  C   LIG    1       24.783 -29.925   7.377  0.00  0.00    +0.010 A 
ATOM      5  C   LIG    1       24.855 -30.875   8.415  0.00  0.00    -0.016 A 
ATOM      6  C   LIG    1       25.284 -32.163   8.074  0.00  0.00    +0.006 A 
ATOM      7  C   LIG    1       25.608 -32.496   6.755  0.00  0.00    +0.004 A 
ENDROOT
BRANCH   5   8
ATOM      8  C   LIG    1       24.299 -30.526   9.793  0.00  0.00    +0.180 C 
ATOM      9  C   LIG    1       23.966 -31.665  10.792  0.00  0.00    +0.179 C 
ATOM     10  C   LIG    1       25.168 -32.048  11.662  0.00  0.00    +0.177 C 
ATOM     11  C   LIG    1       25.731 -30.803  12.353  0.00  0.00    +0.176 C 
ATOM     12  C   LIG    1       26.009 -29.660  11.359  0.00  0.00    +0.175 C 
ATOM     13  O   LIG    1       24.954 -29.405  10.415  0.00  0.00    -0.361 OA
BRANCH   9  14
ATOM     14  O   LIG    1       22.903 -31.228  11.675  0.00  0.00    -0.386 OA
ATOM     15  H   LIG    1       22.887 -30.253  11.639  0.00  0.00    +0.210 HD
ENDBRANCH   9  14
BRANCH  10  16
ATOM     16  O   LIG    1       26.167 -32.713  10.895  0.00  0.00    -0.387 OA
ATOM     17  H   LIG    1       26.891 -32.954  11.503  0.00  0.00    +0.210 HD
ENDBRANCH  10  16
BRANCH  11  18
ATOM     18  O   LIG    1       24.818 -30.352  13.364  0.00  0.00    -0.387 OA
ATOM     19  H   LIG    1       24.268 -31.125  13.620  0.00  0.00    +0.210 HD
ENDBRANCH  11  18
BRANCH  12  20
ATOM     20  C   LIG    1       27.357 -29.817  10.641  0.00  0.00    +0.190 C 
BRANCH  20  21
ATOM     21  O   LIG    1       27.410 -28.947   9.510  0.00  0.00    -0.392 OA
ATOM     22  H   LIG    1       27.689 -28.078   9.857  0.00  0.00    +0.209 HD
ENDBRANCH  20  21
ENDBRANCH  12  20
ENDBRANCH   5   8
BRANCH   3  23
ATOM     23  C   LIG    1       25.003 -29.157   4.983  0.00  0.00    +0.078 C 
BRANCH  23  24
ATOM     24  C   LIG    1       25.375 -27.782   5.469  0.00  0.00    -0.005 A 
ATOM     25  S   LIG    1       24.137 -26.649   5.809  0.00  0.00    -0.093 S 
ATOM     26  C   LIG    1       25.252 -25.427   6.274  0.00  0.00    +0.020 A 
ATOM     27  C   LIG    1       26.550 -25.894   6.187  0.00  0.00    +0.016 A 
ATOM     28  C   LIG    1       26.622 -27.245   5.732  0.00  0.00    +0.012 A 
BRANCH  26  29
ATOM     29  C   LIG    1       24.775 -24.081   6.660  0.00  0.00    -0.011 A 
ATOM     30  C   LIG    1       23.399 -23.792   6.619  0.00  0.00    +0.012 A 
ATOM     31  C   LIG    1       22.915 -22.526   6.989  0.00  0.00    +0.039 A 
ATOM     32  C   LIG    1       23.809 -21.555   7.398  0.00  0.00    +0.123 A 
ATOM     33  F   LIG    1       23.345 -20.345   7.759  0.00  0.00    -0.205 F 
ATOM     34  C   LIG    1       25.173 -21.807   7.441  0.00  0.00    +0.039 A 
ATOM     35  C   LIG    1       25.655 -23.068   7.069  0.00  0.00    +0.012 A 
ENDBRANCH  26  29
ENDBRANCH  23  24
ENDBRANCH   3  23
TORSDOF 9
ENDMDL
MODEL 6
REMARK VINA RESULT:      -8.3      6.184     10.823
REMARK  Name = *****
REMARK                            x       y       z     vdW  Elec       q    Type
REMARK                         _______ _______ _______ _____ _____    ______ ____
ROOT
ATOM      1  C   LIG    1       25.931 -32.044   4.231  0.00  0.00    +0.044 C 
ATOM      2  C   LIG    1       25.994 -31.655   5.683  0.00  0.00    -0.047 A 
ATOM      3  C   LIG    1       25.456 -30.446   6.165  0.00  0.00    -0.039 A 
ATOM      4  C   LIG    1       25.505 -30.173   7.551  0.00  0.00    +0.010 A 
ATOM      5  C   LIG    1       26.076 -31.070   8.474  0.00  0.00    -0.016 A 
ATOM      6  C   LIG    1       26.615 -32.257   7.964  0.00  0.00    +0.006 A 
ATOM      7  C   LIG    1       26.570 -32.546   6.597  0.00  0.00    +0.004 A 
ENDROOT
BRANCH   5   8
ATOM      8  C   LIG    1       25.920 -30.809   9.971  0.00  0.00    +0.180 C 
ATOM      9  C   LIG    1       24.940 -29.709  10.456  0.00  0.00    +0.179 C 
ATOM     10  C   LIG    1       23.520 -30.244  10.668  0.00  0.00    +0.177 C 
ATOM     11  C   LIG    1       23.553 -31.459  11.600  0.00  0.00    +0.176 C 
ATOM     12  C   LIG    1       24.566 -32.521  11.137  0.00  0.00    +0.175 C 
ATOM     13  O   LIG    1       25.858 -32.008  10.764  0.00  0.00    -0.361 OA
BRANCH   9  14
ATOM     14  O   LIG    1       25.407 -29.182  11.723  0.00  0.00    -0.386 OA
ATOM     15  H   LIG    1       24.635 -28.780  12.165  0.00  0.00    +0.210 HD
ENDBRANCH   9  14
BRANCH  10  16
ATOM     16  O   LIG    1       22.899 -30.560   9.426  0.00  0.00    -0.387 OA
ATOM     17  H   LIG    1       23.355 -30.048   8.732  0.00  0.00    +0.210 HD
ENDBRANCH  10  16
BRANCH  11  18
ATOM     18  O   LIG    1       23.869 -31.039  12.936  0.00  0.00    -0.387 OA
ATOM     19  H   LIG    1       23.601 -31.768  13.537  0.00  0.00    +0.210 HD
ENDBRANCH  11  18
BRANCH  12  20
ATOM     20  C   LIG    1       24.004 -33.435  10.039  0.00  0.00    +0.190 C 
BRANCH  20  21
ATOM     21  O   LIG    1       22.581 -33.502  10.141  0.00  0.00    -0.392 OA
ATOM     22  H   LIG    1       22.269 -33.843   9.281  0.00  0.00    +0.209 HD
ENDBRANCH  20  21
ENDBRANCH  12  20
ENDBRANCH   5   8
BRANCH   3  23
ATOM     23  C   LIG    1       24.820 -29.423   5.240  0.00  0.00    +0.078 C 
BRANCH  23  24
ATOM     24  C   LIG    1       25.241 -28.002   5.508  0.00  0.00    -0.005 A 
ATOM     25  S   LIG    1       24.093 -26.888   6.117  0.00  0.00    -0.093 S 
ATOM     26  C   LIG    1       25.226 -25.597   6.158  0.00  0.00    +0.020 A 
ATOM     27  C   LIG    1       26.468 -26.026   5.730  0.00  0.00    +0.016 A 
ATOM     28  C   LIG    1       26.479 -27.406   5.363  0.00  0.00    +0.012 A 
BRANCH  26  29
ATOM     29  C   LIG    1       24.808 -24.242   6.578  0.00  0.00    -0.011 A 
ATOM     30  C   LIG    1       23.440 -23.915   6.611  0.00  0.00    +0.012 A 
ATOM     31  C   LIG    1       23.012 -22.639   7.015  0.00  0.00    +0.039 A 
ATOM     32  C   LIG    1       23.952 -21.696   7.382  0.00  0.00    +0.123 A 
ATOM     33  F   LIG    1       23.542 -20.477   7.775  0.00  0.00    -0.205 F 
ATOM     34  C   LIG    1       25.310 -21.986   7.352  0.00  0.00    +0.039 A 
ATOM     35  C   LIG    1       25.736 -23.257   6.947  0.00  0.00    +0.012 A 
ENDBRANCH  26  29
ENDBRANCH  23  24
ENDBRANCH   3  23
TORSDOF 9
ENDMDL
MODEL 7
REMARK VINA RESULT:      -7.8      5.869     10.056
REMARK  Name = *****
REMARK                            x       y       z     vdW  Elec       q    Type
REMARK                         _______ _______ _______ _____ _____    ______ ____
ROOT
ATOM      1  C   LIG    1       24.191 -32.152   5.911  0.00  0.00    +0.044 C 
ATOM      2  C   LIG    1       24.359 -31.529   7.271  0.00  0.00    -0.047 A 
ATOM      3  C   LIG    1       25.031 -30.307   7.463  0.00  0.00    -0.039 A 
ATOM      4  C   LIG    1       25.103 -29.756   8.763  0.00  0.00    +0.010 A 
ATOM      5  C   LIG    1       24.524 -30.388   9.880  0.00  0.00    -0.016 A 
ATOM      6  C   LIG    1       23.875 -31.609   9.660  0.00  0.00    +0.006 A 
ATOM      7  C   LIG    1       23.790 -32.166   8.380  0.00  0.00    +0.004 A 
ENDROOT
BRANCH   5   8
ATOM      8  C   LIG    1       24.463 -29.649  11.215  0.00  0.00    +0.180 C 
ATOM      9  C   LIG    1       24.201 -30.448  12.519  0.00  0.00    +0.179 C 
ATOM     10  C   LIG    1       25.495 -30.959  13.160  0.00  0.00    +0.177 C 
ATOM     11  C   LIG    1       26.471 -29.797  13.365  0.00  0.00    +0.176 C 
ATOM     12  C   LIG    1       26.684 -28.980  12.078  0.00  0.00    +0.175 C 
ATOM     13  O   LIG    1       25.480 -28.642  11.366  0.00  0.00    -0.361 OA
BRANCH   9  14
ATOM     14  O   LIG    1       23.542 -29.587  13.480  0.00  0.00    -0.386 OA
ATOM     15  H   LIG    1       23.603 -28.676  13.134  0.00  0.00    +0.210 HD
ENDBRANCH   9  14
BRANCH  10  16
ATOM     16  O   LIG    1       26.081 -31.997  12.379  0.00  0.00    -0.387 OA
ATOM     17  H   LIG    1       25.454 -32.743  12.367  0.00  0.00    +0.210 HD
ENDBRANCH  10  16
BRANCH  11  18
ATOM     18  O   LIG    1       25.992 -28.938  14.410  0.00  0.00    -0.387 OA
ATOM     19  H   LIG    1       26.091 -29.430  15.254  0.00  0.00    +0.210 HD
ENDBRANCH  11  18
BRANCH  12  20
ATOM     20  C   LIG    1       27.713 -29.620  11.135  0.00  0.00    +0.190 C 
BRANCH  20  21
ATOM     21  O   LIG    1       29.032 -29.221  11.511  0.00  0.00    -0.392 OA
ATOM     22  H   LIG    1       29.303 -28.549  10.857  0.00  0.00    +0.209 HD
ENDBRANCH  20  21
ENDBRANCH  12  20
ENDBRANCH   5   8
BRANCH   3  23
ATOM     23  C   LIG    1       25.682 -29.557   6.314  0.00  0.00    +0.078 C 
BRANCH  23  24
ATOM     24  C   LIG    1       25.178 -28.150   6.129  0.00  0.00    -0.005 A 
ATOM     25  S   LIG    1       25.869 -26.883   7.048  0.00  0.00    -0.093 S 
ATOM     26  C   LIG    1       24.858 -25.688   6.337  0.00  0.00    +0.020 A 
ATOM     27  C   LIG    1       24.021 -26.257   5.396  0.00  0.00    +0.016 A 
ATOM     28  C   LIG    1       24.207 -27.666   5.271  0.00  0.00    +0.012 A 
BRANCH  26  29
ATOM     29  C   LIG    1       24.936 -24.279   6.779  0.00  0.00    -0.011 A 
ATOM     30  C   LIG    1       23.763 -23.505   6.848  0.00  0.00    +0.012 A 
ATOM     31  C   LIG    1       23.805 -22.166   7.273  0.00  0.00    +0.039 A 
ATOM     32  C   LIG    1       25.018 -21.607   7.625  0.00  0.00    +0.123 A 
ATOM     33  F   LIG    1       25.056 -20.328   8.038  0.00  0.00    -0.205 F 
ATOM     34  C   LIG    1       26.193 -22.342   7.560  0.00  0.00    +0.039 A 
ATOM     35  C   LIG    1       26.152 -23.676   7.133  0.00  0.00    +0.012 A 
ENDBRANCH  26  29
ENDBRANCH  23  24
ENDBRANCH   3  23
TORSDOF 9
ENDMDL
MODEL 8
REMARK VINA RESULT:      -7.3      1.011      2.314
REMARK  Name = *****
REMARK                            x       y       z     vdW  Elec       q    Type
REMARK                         _______ _______ _______ _____ _____    ______ ____
ROOT
ATOM      1  C   LIG    1       24.852 -20.687   5.003  0.00  0.00    +0.044 C 
ATOM      2  C   LIG    1       26.159 -20.181   5.550  0.00  0.00    -0.047 A 
ATOM      3  C   LIG    1       26.535 -20.365   6.895  0.00  0.00    -0.039 A 
ATOM      4  C   LIG    1       27.803 -19.909   7.324  0.00  0.00    +0.010 A 
ATOM      5  C   LIG    1       28.709 -19.275   6.453  0.00  0.00    -0.016 A 
ATOM      6  C   LIG    1       28.302 -19.095   5.126  0.00  0.00    +0.006 A 
ATOM      7  C   LIG    1       27.054 -19.544   4.682  0.00  0.00    +0.004 A 
ENDROOT
BRANCH   5   8
ATOM      8  C   LIG    1       30.133 -18.988   6.926  0.00  0.00    +0.180 C 
ATOM      9  C   LIG    1       30.372 -17.911   8.017  0.00  0.00    +0.179 C 
ATOM     10  C   LIG    1       30.297 -18.490   9.434  0.00  0.00    +0.177 C 
ATOM     11  C   LIG    1       31.249 -19.682   9.562  0.00  0.00    +0.176 C 
ATOM     12  C   LIG    1       31.038 -20.720   8.445  0.00  0.00    +0.175 C 
ATOM     13  O   LIG    1       30.928 -20.172   7.119  0.00  0.00    -0.361 OA
BRANCH   9  14
ATOM     14  O   LIG    1       31.692 -17.342   7.841  0.00  0.00    -0.386 OA
ATOM     15  H   LIG    1       31.601 -16.598   7.216  0.00  0.00    +0.210 HD
ENDBRANCH   9  14
BRANCH  10  16
ATOM     16  O   LIG    1       28.962 -18.852   9.772  0.00  0.00    -0.387 OA
ATOM     17  H   LIG    1       28.485 -19.023   8.939  0.00  0.00    +0.210 HD
ENDBRANCH  10  16
BRANCH  11  18
ATOM     18  O   LIG    1       32.609 -19.223   9.546  0.00  0.00    -0.387 OA
ATOM     19  H   LIG    1       32.586 -18.251   9.685  0.00  0.00    +0.210 HD
ENDBRANCH  11  18
BRANCH  12  20
ATOM     20  C   LIG    1       29.872 -21.675   8.739  0.00  0.00    +0.190 C 
BRANCH  20  21
ATOM     21  O   LIG    1       30.195 -22.510   9.852  0.00  0.00    -0.392 OA
ATOM     22  H   LIG    1       30.952 -23.055   9.564  0.00  0.00    +0.209 HD
ENDBRANCH  20  21
ENDBRANCH  12  20
ENDBRANCH   5   8
BRANCH   3  23
ATOM     23  C   LIG    1       25.621 -21.039   7.902  0.00  0.00    +0.078 C 
BRANCH  23  24
ATOM     24  C   LIG    1       25.008 -22.326   7.416  0.00  0.00    -0.005 A 
ATOM     25  S   LIG    1       26.020 -23.670   7.101  0.00  0.00    -0.093 S 
ATOM     26  C   LIG    1       24.704 -24.670   6.627  0.00  0.00    +0.020 A 
ATOM     27  C   LIG    1       23.509 -23.983   6.732  0.00  0.00    +0.016 A 
ATOM     28  C   LIG    1       23.681 -22.642   7.190  0.00  0.00    +0.012 A 
BRANCH  26  29
ATOM     29  C   LIG    1       24.942 -26.051   6.154  0.00  0.00    -0.011 A 
ATOM     30  C   LIG    1       26.014 -26.313   5.283  0.00  0.00    +0.012 A 
ATOM     31  C   LIG    1       26.270 -27.617   4.824  0.00  0.00    +0.039 A 
ATOM     32  C   LIG    1       25.452 -28.650   5.237  0.00  0.00    +0.123 A 
ATOM     33  F   LIG    1       25.701 -29.899   4.803  0.00  0.00    -0.205 F 
ATOM     34  C   LIG    1       24.380 -28.422   6.089  0.00  0.00    +0.039 A 
ATOM     35  C   LIG    1       24.124 -27.122   6.544  0.00  0.00    +0.012 A 
ENDBRANCH  26  29
ENDBRANCH  23  24
ENDBRANCH   3  23
TORSDOF 9
ENDMDL
MODEL 9
REMARK VINA RESULT:      -7.3      6.715     11.257
REMARK  Name = *****
REMARK                            x       y       z     vdW  Elec       q    Type
REMARK                         _______ _______ _______ _____ _____    ______ ____
ROOT
ATOM      1  C   LIG    1       24.420 -33.044   6.166  0.00  0.00    +0.044 C 
ATOM      2  C   LIG    1       23.977 -32.301   7.397  0.00  0.00    -0.047 A 
ATOM      3  C   LIG    1       24.444 -31.011   7.709  0.00  0.00    -0.039 A 
ATOM      4  C   LIG    1       23.942 -30.353   8.855  0.00  0.00    +0.010 A 
ATOM      5  C   LIG    1       22.985 -30.944   9.702  0.00  0.00    -0.016 A 
ATOM      6  C   LIG    1       22.550 -32.234   9.374  0.00  0.00    +0.006 A 
ATOM      7  C   LIG    1       23.032 -32.897   8.241  0.00  0.00    +0.004 A 
ENDROOT
BRANCH   5   8
ATOM      8  C   LIG    1       22.338 -30.109  10.805  0.00  0.00    +0.180 C 
ATOM      9  C   LIG    1       21.135 -30.688  11.595  0.00  0.00    +0.179 C 
ATOM     10  C   LIG    1       21.577 -31.491  12.823  0.00  0.00    +0.177 C 
ATOM     11  C   LIG    1       22.504 -30.641  13.697  0.00  0.00    +0.176 C 
ATOM     12  C   LIG    1       23.664 -30.029  12.893  0.00  0.00    +0.175 C 
ATOM     13  O   LIG    1       23.286 -29.423  11.643  0.00  0.00    -0.361 OA
BRANCH   9  14
ATOM     14  O   LIG    1       20.300 -29.598  12.056  0.00  0.00    -0.386 OA
ATOM     15  H   LIG    1       20.577 -28.801  11.566  0.00  0.00    +0.210 HD
ENDBRANCH   9  14
BRANCH  10  16
ATOM     16  O   LIG    1       22.200 -32.714  12.442  0.00  0.00    -0.387 OA
ATOM     17  H   LIG    1       23.154 -32.626  12.622  0.00  0.00    +0.210 HD
ENDBRANCH  10  16
BRANCH  11  18
ATOM     18  O   LIG    1       21.751 -29.597  14.332  0.00  0.00    -0.387 OA
ATOM     19  H   LIG    1       22.137 -28.744  14.036  0.00  0.00    +0.210 HD
ENDBRANCH  11  18
BRANCH  12  20
ATOM     20  C   LIG    1       24.827 -31.012  12.692  0.00  0.00    +0.190 C 
BRANCH  20  21
ATOM     21  O   LIG    1       25.812 -30.432  11.835  0.00  0.00    -0.392 OA
ATOM     22  H   LIG    1       25.355 -29.720  11.348  0.00  0.00    +0.209 HD
ENDBRANCH  20  21
ENDBRANCH  12  20
ENDBRANCH   5   8
BRANCH   3  23
ATOM     23  C   LIG    1       25.474 -30.298   6.850  0.00  0.00    +0.078 C 
BRANCH  23  24
ATOM     24  C   LIG    1       25.064 -28.918   6.409  0.00  0.00    -0.005 A 
ATOM     25  S   LIG    1       25.526 -27.565   7.351  0.00  0.00    -0.093 S 
ATOM     26  C   LIG    1       24.755 -26.448   6.296  0.00  0.00    +0.020 A 
ATOM     27  C   LIG    1       24.173 -27.108   5.230  0.00  0.00    +0.016 A 
ATOM     28  C   LIG    1       24.355 -28.523   5.290  0.00  0.00    +0.012 A 
BRANCH  26  29
ATOM     29  C   LIG    1       24.748 -25.002   6.607  0.00  0.00    -0.011 A 
ATOM     30  C   LIG    1       23.532 -24.296   6.608  0.00  0.00    +0.012 A 
ATOM     31  C   LIG    1       23.493 -22.924   6.909  0.00  0.00    +0.039 A 
ATOM     32  C   LIG    1       24.670 -22.265   7.207  0.00  0.00    +0.123 A 
ATOM     33  F   LIG    1       24.632 -20.953   7.502  0.00  0.00    -0.205 F 
ATOM     34  C   LIG    1       25.887 -22.932   7.205  0.00  0.00    +0.039 A 
ATOM     35  C   LIG    1       25.926 -24.299   6.902  0.00  0.00    +0.012 A 
ENDBRANCH  26  29
ENDBRANCH  23  24
ENDBRANCH   3  23
TORSDOF 9
ENDMDL
