MODEL 1
REMARK VINA RESULT:      -5.9      0.000      0.000
REMARK  Name = *****
REMARK                            x       y       z     vdW  Elec       q    Type
REMARK                         _______ _______ _______ _____ _____    ______ ____
ROOT
ATOM      1  C   LIG    1       25.460 -31.294   8.543  0.00  0.00    +0.201 C 
ATOM      2  C   LIG    1       24.009 -31.708   8.904  0.00  0.00    +0.042 C 
ATOM      3  C   LIG    1       23.135 -30.488   9.261  0.00  0.00    +0.025 C 
ATOM      4  C   LIG    1       23.258 -32.498   7.825  0.00  0.00    +0.025 C 
ATOM      5  S   LIG    1       24.167 -32.759  10.422  0.00  0.00    -0.127 S 
ATOM      6  C   LIG    1       25.819 -32.094  10.888  0.00  0.00    +0.169 C 
ATOM      7  C   LIG    1       25.916 -30.900  11.879  0.00  0.00    +0.223 C 
ATOM      8  C   LIG    1       26.057 -30.050  10.588  0.00  0.00    +0.244 C 
ATOM      9  O   LIG    1       26.012 -28.878  10.256  0.00  0.00    -0.273 OA
ATOM     10  N   LIG    1       26.185 -31.163   9.808  0.00  0.00    -0.270 N 
ENDROOT
BRANCH   1  11
ATOM     11  C   LIG    1       26.190 -32.265   7.593  0.00  0.00    +0.332 C 
ATOM     12  O   LIG    1       26.353 -33.455   7.839  0.00  0.00    -0.249 OA
BRANCH  11  13
ATOM     13  O   LIG    1       26.607 -31.662   6.447  0.00  0.00    -0.426 OA
BRANCH  13  14
ATOM     14  C   LIG    1       25.566 -31.145   5.614  0.00  0.00    +0.472 C 
BRANCH  14  15
ATOM     15  O   LIG    1       25.751 -29.762   5.307  0.00  0.00    -0.427 OA
BRANCH  15  16
ATOM     16  C   LIG    1       24.776 -28.929   5.761  0.00  0.00    +0.315 C 
ATOM     17  O   LIG    1       23.630 -29.276   6.013  0.00  0.00    -0.250 OA
BRANCH  16  19
ATOM     18  C   LIG    1       24.146 -26.502   5.805  0.00  0.00    +0.022 C 
ATOM     19  C   LIG    1       25.309 -27.499   5.907  0.00  0.00    +0.059 C 
ATOM     20  C   LIG    1       25.985 -27.339   7.279  0.00  0.00    +0.022 C 
ATOM     21  C   LIG    1       26.339 -27.218   4.806  0.00  0.00    +0.022 C 
ENDBRANCH  16  19
ENDBRANCH  15  16
ENDBRANCH  14  15
ENDBRANCH  13  14
ENDBRANCH  11  13
ENDBRANCH   1  11
BRANCH   7  22
ATOM     22  N   LIG    1       24.695 -30.685  12.673  0.00  0.00    -0.261 NA
ATOM     23  C   LIG    1       24.165 -29.519  12.509  0.00  0.00    +0.179 C 
BRANCH  23  24
ATOM     24  N   LIG    1       23.070 -29.003  13.161  0.00  0.00    -0.321 N 
ATOM     25  C   LIG    1       21.876 -29.818  13.376  0.00  0.00    +0.106 C 
ATOM     26  C   LIG    1       20.597 -29.115  12.919  0.00  0.00    +0.019 C 
ATOM     27  C   LIG    1       20.189 -27.955  13.825  0.00  0.00    +0.002 C 
ATOM     28  C   LIG    1       20.877 -26.623  13.533  0.00  0.00    +0.002 C 
ATOM     29  C   LIG    1       22.366 -26.660  13.190  0.00  0.00    +0.019 C 
ATOM     30  C   LIG    1       23.162 -27.746  13.904  0.00  0.00    +0.106 C 
ENDBRANCH  23  24
ENDBRANCH   7  22
TORSDOF 8
ENDMDL
MODEL 2
REMARK VINA RESULT:      -5.9      2.504      4.011
REMARK  Name = *****
REMARK                            x       y       z     vdW  Elec       q    Type
REMARK                         _______ _______ _______ _____ _____    ______ ____
ROOT
ATOM      1  C   LIG    1       24.257 -31.664   7.901  0.00  0.00    +0.201 C 
ATOM      2  C   LIG    1       25.723 -31.796   8.392  0.00  0.00    +0.042 C 
ATOM      3  C   LIG    1       25.873 -32.890   9.467  0.00  0.00    +0.025 C 
ATOM      4  C   LIG    1       26.762 -32.089   7.303  0.00  0.00    +0.025 C 
ATOM      5  S   LIG    1       26.119 -30.166   9.180  0.00  0.00    -0.127 S 
ATOM      6  C   LIG    1       24.358 -29.707   9.458  0.00  0.00    +0.169 C 
ATOM      7  C   LIG    1       23.683 -30.038  10.819  0.00  0.00    +0.223 C 
ATOM      8  C   LIG    1       23.129 -31.274  10.059  0.00  0.00    +0.244 C 
ATOM      9  O   LIG    1       22.582 -32.333  10.313  0.00  0.00    -0.273 OA
ATOM     10  N   LIG    1       23.571 -30.797   8.859  0.00  0.00    -0.270 N 
ENDROOT
BRANCH   1  11
ATOM     11  C   LIG    1       24.105 -31.121   6.465  0.00  0.00    +0.332 C 
ATOM     12  O   LIG    1       24.279 -31.806   5.463  0.00  0.00    -0.249 OA
BRANCH  11  13
ATOM     13  O   LIG    1       23.733 -29.812   6.436  0.00  0.00    -0.426 OA
BRANCH  13  14
ATOM     14  C   LIG    1       24.672 -28.924   5.825  0.00  0.00    +0.472 C 
BRANCH  14  15
ATOM     15  O   LIG    1       24.276 -27.555   5.933  0.00  0.00    -0.427 OA
BRANCH  15  16
ATOM     16  C   LIG    1       25.168 -26.738   6.553  0.00  0.00    +0.315 C 
ATOM     17  O   LIG    1       26.029 -27.117   7.335  0.00  0.00    -0.250 OA
BRANCH  16  19
ATOM     18  C   LIG    1       25.118 -25.137   4.623  0.00  0.00    +0.022 C 
ATOM     19  C   LIG    1       24.944 -25.278   6.141  0.00  0.00    +0.059 C 
ATOM     20  C   LIG    1       23.517 -24.849   6.522  0.00  0.00    +0.022 C 
ATOM     21  C   LIG    1       25.948 -24.377   6.871  0.00  0.00    +0.022 C 
ENDBRANCH  16  19
ENDBRANCH  15  16
ENDBRANCH  14  15
ENDBRANCH  13  14
ENDBRANCH  11  13
ENDBRANCH   1  11
BRANCH   7  22
ATOM     22  N   LIG    1       24.638 -30.314  11.906  0.00  0.00    -0.261 NA
ATOM     23  C   LIG    1       25.023 -29.257  12.541  0.00  0.00    +0.179 C 
BRANCH  23  24
ATOM     24  N   LIG    1       25.955 -29.186  13.550  0.00  0.00    -0.321 N 
ATOM     25  C   LIG    1       25.790 -28.241  14.653  0.00  0.00    +0.106 C 
ATOM     26  C   LIG    1       27.042 -27.395  14.890  0.00  0.00    +0.019 C 
ATOM     27  C   LIG    1       28.198 -28.184  15.500  0.00  0.00    +0.002 C 
ATOM     28  C   LIG    1       29.061 -28.956  14.503  0.00  0.00    +0.002 C 
ATOM     29  C   LIG    1       28.345 -29.671  13.358  0.00  0.00    +0.019 C 
ATOM     30  C   LIG    1       26.970 -30.227  13.709  0.00  0.00    +0.106 C 
ENDBRANCH  23  24
ENDBRANCH   7  22
TORSDOF 8
ENDMDL
MODEL 3
REMARK VINA RESULT:      -5.7      1.623      2.656
REMARK  Name = *****
REMARK                            x       y       z     vdW  Elec       q    Type
REMARK                         _______ _______ _______ _____ _____    ______ ____
ROOT
ATOM      1  C   LIG    1       25.551 -31.877   9.669  0.00  0.00    +0.201 C 
ATOM      2  C   LIG    1       25.925 -30.781  10.701  0.00  0.00    +0.042 C 
ATOM      3  C   LIG    1       25.809 -31.294  12.150  0.00  0.00    +0.025 C 
ATOM      4  C   LIG    1       27.327 -30.178  10.548  0.00  0.00    +0.025 C 
ATOM      5  S   LIG    1       24.664 -29.443  10.468  0.00  0.00    -0.127 S 
ATOM      6  C   LIG    1       23.431 -30.545   9.658  0.00  0.00    +0.169 C 
ATOM      7  C   LIG    1       22.333 -31.232  10.517  0.00  0.00    +0.223 C 
ATOM      8  C   LIG    1       23.292 -32.452  10.475  0.00  0.00    +0.244 C 
ATOM      9  O   LIG    1       23.433 -33.524  11.038  0.00  0.00    -0.273 OA
ATOM     10  N   LIG    1       24.093 -31.855   9.544  0.00  0.00    -0.270 N 
ENDROOT
BRANCH   1  11
ATOM     11  C   LIG    1       26.219 -31.717   8.287  0.00  0.00    +0.332 C 
ATOM     12  O   LIG    1       27.124 -32.442   7.888  0.00  0.00    -0.249 OA
BRANCH  11  13
ATOM     13  O   LIG    1       25.679 -30.703   7.558  0.00  0.00    -0.426 OA
BRANCH  13  14
ATOM     14  C   LIG    1       25.588 -30.944   6.151  0.00  0.00    +0.472 C 
BRANCH  14  15
ATOM     15  O   LIG    1       25.627 -29.736   5.389  0.00  0.00    -0.427 OA
BRANCH  15  16
ATOM     16  C   LIG    1       24.664 -28.825   5.692  0.00  0.00    +0.315 C 
ATOM     17  O   LIG    1       23.472 -29.083   5.793  0.00  0.00    -0.250 OA
BRANCH  16  19
ATOM     18  C   LIG    1       25.932 -27.342   7.268  0.00  0.00    +0.022 C 
ATOM     19  C   LIG    1       25.276 -27.432   5.883  0.00  0.00    +0.059 C 
ATOM     20  C   LIG    1       26.346 -27.187   4.807  0.00  0.00    +0.022 C 
ATOM     21  C   LIG    1       24.180 -26.366   5.750  0.00  0.00    +0.022 C 
ENDBRANCH  16  19
ENDBRANCH  15  16
ENDBRANCH  14  15
ENDBRANCH  13  14
ENDBRANCH  11  13
ENDBRANCH   1  11
BRANCH   7  22
ATOM     22  N   LIG    1       22.129 -30.607  11.835  0.00  0.00    -0.261 NA
ATOM     23  C   LIG    1       21.054 -29.896  11.914  0.00  0.00    +0.179 C 
BRANCH  23  24
ATOM     24  N   LIG    1       20.633 -29.140  12.983  0.00  0.00    -0.321 N 
ATOM     25  C   LIG    1       19.783 -29.721  14.019  0.00  0.00    +0.106 C 
ATOM     26  C   LIG    1       18.541 -28.874  14.302  0.00  0.00    +0.019 C 
ATOM     27  C   LIG    1       18.853 -27.571  15.034  0.00  0.00    +0.002 C 
ATOM     28  C   LIG    1       19.291 -26.409  14.144  0.00  0.00    +0.002 C 
ATOM     29  C   LIG    1       20.240 -26.725  12.989  0.00  0.00    +0.019 C 
ATOM     30  C   LIG    1       21.241 -27.841  13.269  0.00  0.00    +0.106 C 
ENDBRANCH  23  24
ENDBRANCH   7  22
TORSDOF 8
ENDMDL
MODEL 4
REMARK VINA RESULT:      -5.6      1.696      2.689
REMARK  Name = *****
REMARK                            x       y       z     vdW  Elec       q    Type
REMARK                         _______ _______ _______ _____ _____    ______ ____
ROOT
ATOM      1  C   LIG    1       24.505 -32.920   8.449  0.00  0.00    +0.201 C 
ATOM      2  C   LIG    1       25.552 -32.245   9.373  0.00  0.00    +0.042 C 
ATOM      3  C   LIG    1       25.536 -32.845  10.793  0.00  0.00    +0.025 C 
ATOM      4  C   LIG    1       27.002 -32.296   8.879  0.00  0.00    +0.025 C 
ATOM      5  S   LIG    1       25.019 -30.474   9.498  0.00  0.00    -0.127 S 
ATOM      6  C   LIG    1       23.277 -30.812   9.008  0.00  0.00    +0.169 C 
ATOM      7  C   LIG    1       22.204 -31.062  10.106  0.00  0.00    +0.223 C 
ATOM      8  C   LIG    1       22.469 -32.560   9.794  0.00  0.00    +0.244 C 
ATOM      9  O   LIG    1       22.228 -33.651  10.281  0.00  0.00    -0.273 OA
ATOM     10  N   LIG    1       23.229 -32.250   8.702  0.00  0.00    -0.270 N 
ENDROOT
BRANCH   1  11
ATOM     11  C   LIG    1       24.852 -32.882   6.946  0.00  0.00    +0.332 C 
ATOM     12  O   LIG    1       25.505 -33.754   6.383  0.00  0.00    -0.249 OA
BRANCH  11  13
ATOM     13  O   LIG    1       24.336 -31.792   6.315  0.00  0.00    -0.426 OA
BRANCH  13  14
ATOM     14  C   LIG    1       25.261 -31.057   5.510  0.00  0.00    +0.472 C 
BRANCH  14  15
ATOM     15  O   LIG    1       25.590 -29.789   6.080  0.00  0.00    -0.427 OA
BRANCH  15  16
ATOM     16  C   LIG    1       24.655 -28.816   5.913  0.00  0.00    +0.315 C 
ATOM     17  O   LIG    1       23.471 -29.023   5.684  0.00  0.00    -0.250 OA
BRANCH  16  19
ATOM     18  C   LIG    1       26.067 -27.336   7.365  0.00  0.00    +0.022 C 
ATOM     19  C   LIG    1       25.290 -27.426   6.045  0.00  0.00    +0.059 C 
ATOM     20  C   LIG    1       26.260 -27.190   4.876  0.00  0.00    +0.022 C 
ATOM     21  C   LIG    1       24.193 -26.354   6.008  0.00  0.00    +0.022 C 
ENDBRANCH  16  19
ENDBRANCH  15  16
ENDBRANCH  14  15
ENDBRANCH  13  14
ENDBRANCH  11  13
ENDBRANCH   1  11
BRANCH   7  22
ATOM     22  N   LIG    1       22.601 -30.593  11.445  0.00  0.00    -0.261 NA
ATOM     23  C   LIG    1       22.154 -29.419  11.739  0.00  0.00    +0.179 C 
BRANCH  23  24
ATOM     24  N   LIG    1       22.411 -28.691  12.877  0.00  0.00    -0.321 N 
ATOM     25  C   LIG    1       21.318 -28.211  13.720  0.00  0.00    +0.106 C 
ATOM     26  C   LIG    1       21.428 -26.717  14.028  0.00  0.00    +0.019 C 
ATOM     27  C   LIG    1       22.562 -26.382  14.994  0.00  0.00    +0.002 C 
ATOM     28  C   LIG    1       23.941 -26.225  14.356  0.00  0.00    +0.002 C 
ATOM     29  C   LIG    1       24.324 -27.213  13.255  0.00  0.00    +0.019 C 
ATOM     30  C   LIG    1       23.762 -28.619  13.432  0.00  0.00    +0.106 C 
ENDBRANCH  23  24
ENDBRANCH   7  22
TORSDOF 8
ENDMDL
MODEL 5
REMARK VINA RESULT:      -5.6      6.572      9.481
REMARK  Name = *****
REMARK                            x       y       z     vdW  Elec       q    Type
REMARK                         _______ _______ _______ _____ _____    ______ ____
ROOT
ATOM      1  C   LIG    1       24.794 -21.377   6.345  0.00  0.00    +0.201 C 
ATOM      2  C   LIG    1       23.521 -22.194   6.001  0.00  0.00    +0.042 C 
ATOM      3  C   LIG    1       22.826 -22.736   7.266  0.00  0.00    +0.025 C 
ATOM      4  C   LIG    1       22.457 -21.450   5.186  0.00  0.00    +0.025 C 
ATOM      5  S   LIG    1       24.127 -23.644   5.019  0.00  0.00    -0.127 S 
ATOM      6  C   LIG    1       25.854 -23.534   5.647  0.00  0.00    +0.169 C 
ATOM      7  C   LIG    1       26.278 -24.376   6.883  0.00  0.00    +0.223 C 
ATOM      8  C   LIG    1       26.024 -23.059   7.664  0.00  0.00    +0.244 C 
ATOM      9  O   LIG    1       25.899 -22.692   8.820  0.00  0.00    -0.273 OA
ATOM     10  N   LIG    1       25.880 -22.343   6.511  0.00  0.00    -0.270 N 
ENDROOT
BRANCH   1  11
ATOM     11  C   LIG    1       25.172 -20.303   5.304  0.00  0.00    +0.332 C 
ATOM     12  O   LIG    1       24.398 -19.432   4.922  0.00  0.00    -0.249 OA
BRANCH  11  13
ATOM     13  O   LIG    1       26.460 -20.415   4.879  0.00  0.00    -0.426 OA
BRANCH  13  14
ATOM     14  C   LIG    1       27.396 -19.553   5.532  0.00  0.00    +0.472 C 
BRANCH  14  15
ATOM     15  O   LIG    1       28.424 -20.279   6.208  0.00  0.00    -0.427 OA
BRANCH  15  16
ATOM     16  C   LIG    1       28.562 -19.996   7.532  0.00  0.00    +0.315 C 
ATOM     17  O   LIG    1       27.649 -20.027   8.346  0.00  0.00    -0.250 OA
BRANCH  16  19
ATOM     18  C   LIG    1       30.721 -20.835   8.492  0.00  0.00    +0.022 C 
ATOM     19  C   LIG    1       30.014 -19.628   7.859  0.00  0.00    +0.059 C 
ATOM     20  C   LIG    1       30.750 -19.238   6.568  0.00  0.00    +0.022 C 
ATOM     21  C   LIG    1       30.037 -18.439   8.828  0.00  0.00    +0.022 C 
ENDBRANCH  16  19
ENDBRANCH  15  16
ENDBRANCH  14  15
ENDBRANCH  13  14
ENDBRANCH  11  13
ENDBRANCH   1  11
BRANCH   7  22
ATOM     22  N   LIG    1       25.371 -25.498   7.180  0.00  0.00    -0.261 NA
ATOM     23  C   LIG    1       25.864 -26.656   6.894  0.00  0.00    +0.179 C 
BRANCH  23  24
ATOM     24  N   LIG    1       25.235 -27.876   6.992  0.00  0.00    -0.321 N 
ATOM     25  C   LIG    1       25.204 -28.600   8.261  0.00  0.00    +0.106 C 
ATOM     26  C   LIG    1       25.666 -30.051   8.119  0.00  0.00    +0.019 C 
ATOM     27  C   LIG    1       24.660 -30.934   7.383  0.00  0.00    +0.002 C 
ATOM     28  C   LIG    1       24.744 -30.889   5.858  0.00  0.00    +0.002 C 
ATOM     29  C   LIG    1       24.981 -29.528   5.206  0.00  0.00    +0.019 C 
ATOM     30  C   LIG    1       24.345 -28.349   5.933  0.00  0.00    +0.106 C 
ENDBRANCH  23  24
ENDBRANCH   7  22
TORSDOF 8
ENDMDL
MODEL 6
REMARK VINA RESULT:      -5.5      2.450      3.592
REMARK  Name = *****
REMARK                            x       y       z     vdW  Elec       q    Type
REMARK                         _______ _______ _______ _____ _____    ______ ____
ROOT
ATOM      1  C   LIG    1       24.929 -32.792   8.090  0.00  0.00    +0.201 C 
ATOM      2  C   LIG    1       26.084 -32.951   9.114  0.00  0.00    +0.042 C 
ATOM      3  C   LIG    1       25.588 -33.525  10.456  0.00  0.00    +0.025 C 
ATOM      4  C   LIG    1       27.259 -33.825   8.658  0.00  0.00    +0.025 C 
ATOM      5  S   LIG    1       26.698 -31.230   9.424  0.00  0.00    -0.127 S 
ATOM      6  C   LIG    1       25.148 -30.418   8.850  0.00  0.00    +0.169 C 
ATOM      7  C   LIG    1       24.043 -30.055   9.882  0.00  0.00    +0.223 C 
ATOM      8  C   LIG    1       23.394 -31.384   9.411  0.00  0.00    +0.244 C 
ATOM      9  O   LIG    1       22.510 -32.145   9.764  0.00  0.00    -0.273 OA
ATOM     10  N   LIG    1       24.283 -31.512   8.382  0.00  0.00    -0.270 N 
ENDROOT
BRANCH   1  11
ATOM     11  C   LIG    1       25.365 -32.860   6.612  0.00  0.00    +0.332 C 
ATOM     12  O   LIG    1       25.078 -33.791   5.867  0.00  0.00    -0.249 OA
BRANCH  11  13
ATOM     13  O   LIG    1       26.076 -31.767   6.224  0.00  0.00    -0.426 OA
BRANCH  13  14
ATOM     14  C   LIG    1       25.475 -30.982   5.191  0.00  0.00    +0.472 C 
BRANCH  14  15
ATOM     15  O   LIG    1       25.812 -29.597   5.294  0.00  0.00    -0.427 OA
BRANCH  15  16
ATOM     16  C   LIG    1       24.811 -28.786   5.732  0.00  0.00    +0.315 C 
ATOM     17  O   LIG    1       23.675 -29.162   5.986  0.00  0.00    -0.250 OA
BRANCH  16  19
ATOM     18  C   LIG    1       26.312 -27.038   4.742  0.00  0.00    +0.022 C 
ATOM     19  C   LIG    1       25.302 -27.339   5.858  0.00  0.00    +0.059 C 
ATOM     20  C   LIG    1       24.110 -26.377   5.726  0.00  0.00    +0.022 C 
ATOM     21  C   LIG    1       25.959 -27.136   7.230  0.00  0.00    +0.022 C 
ENDBRANCH  16  19
ENDBRANCH  15  16
ENDBRANCH  14  15
ENDBRANCH  13  14
ENDBRANCH  11  13
ENDBRANCH   1  11
BRANCH   7  22
ATOM     22  N   LIG    1       24.518 -30.018  11.276  0.00  0.00    -0.261 NA
ATOM     23  C   LIG    1       25.155 -28.937  11.581  0.00  0.00    +0.179 C 
BRANCH  23  24
ATOM     24  N   LIG    1       25.773 -28.644  12.774  0.00  0.00    -0.321 N 
ATOM     25  C   LIG    1       25.589 -27.340  13.409  0.00  0.00    +0.106 C 
ATOM     26  C   LIG    1       26.916 -26.681  13.788  0.00  0.00    +0.019 C 
ATOM     27  C   LIG    1       27.612 -27.359  14.966  0.00  0.00    +0.002 C 
ATOM     28  C   LIG    1       28.462 -28.578  14.610  0.00  0.00    +0.002 C 
ATOM     29  C   LIG    1       27.904 -29.545  13.567  0.00  0.00    +0.019 C 
ATOM     30  C   LIG    1       26.387 -29.698  13.580  0.00  0.00    +0.106 C 
ENDBRANCH  23  24
ENDBRANCH   7  22
TORSDOF 8
ENDMDL
MODEL 7
REMARK VINA RESULT:      -5.5      2.215      3.252
REMARK  Name = *****
REMARK                            x       y       z     vdW  Elec       q    Type
REMARK                         _______ _______ _______ _____ _____    ______ ____
ROOT
ATOM      1  C   LIG    1       25.000 -30.621   7.320  0.00  0.00    +0.201 C 
ATOM      2  C   LIG    1       24.192 -31.877   7.738  0.00  0.00    +0.042 C 
ATOM      3  C   LIG    1       23.197 -31.569   8.875  0.00  0.00    +0.025 C 
ATOM      4  C   LIG    1       23.397 -32.558   6.617  0.00  0.00    +0.025 C 
ATOM      5  S   LIG    1       25.452 -33.069   8.392  0.00  0.00    -0.127 S 
ATOM      6  C   LIG    1       26.714 -31.773   8.735  0.00  0.00    +0.169 C 
ATOM      7  C   LIG    1       26.794 -31.133  10.149  0.00  0.00    +0.223 C 
ATOM      8  C   LIG    1       25.957 -29.995   9.505  0.00  0.00    +0.244 C 
ATOM      9  O   LIG    1       25.304 -29.029   9.859  0.00  0.00    -0.273 OA
ATOM     10  N   LIG    1       26.122 -30.514   8.253  0.00  0.00    -0.270 N 
ENDROOT
BRANCH   1  11
ATOM     11  C   LIG    1       25.502 -30.634   5.861  0.00  0.00    +0.332 C 
ATOM     12  O   LIG    1       26.183 -31.538   5.390  0.00  0.00    -0.249 OA
BRANCH  11  13
ATOM     13  O   LIG    1       25.086 -29.548   5.154  0.00  0.00    -0.426 OA
BRANCH  13  14
ATOM     14  C   LIG    1       24.168 -28.690   5.836  0.00  0.00    +0.472 C 
BRANCH  14  15
ATOM     15  O   LIG    1       24.338 -27.317   5.478  0.00  0.00    -0.427 OA
BRANCH  15  16
ATOM     16  C   LIG    1       25.111 -26.586   6.325  0.00  0.00    +0.315 C 
ATOM     17  O   LIG    1       25.879 -27.063   7.150  0.00  0.00    -0.250 OA
BRANCH  16  19
ATOM     18  C   LIG    1       24.986 -24.757   4.614  0.00  0.00    +0.022 C 
ATOM     19  C   LIG    1       24.881 -25.085   6.110  0.00  0.00    +0.059 C 
ATOM     20  C   LIG    1       23.479 -24.701   6.609  0.00  0.00    +0.022 C 
ATOM     21  C   LIG    1       25.928 -24.287   6.897  0.00  0.00    +0.022 C 
ENDBRANCH  16  19
ENDBRANCH  15  16
ENDBRANCH  14  15
ENDBRANCH  13  14
ENDBRANCH  11  13
ENDBRANCH   1  11
BRANCH   7  22
ATOM     22  N   LIG    1       26.127 -31.921  11.199  0.00  0.00    -0.261 NA
ATOM     23  C   LIG    1       25.367 -31.222  11.973  0.00  0.00    +0.179 C 
BRANCH  23  24
ATOM     24  N   LIG    1       24.674 -31.660  13.077  0.00  0.00    -0.321 N 
ATOM     25  C   LIG    1       25.254 -32.653  13.977  0.00  0.00    +0.106 C 
ATOM     26  C   LIG    1       24.308 -33.824  14.246  0.00  0.00    +0.019 C 
ATOM     27  C   LIG    1       23.122 -33.450  15.132  0.00  0.00    +0.002 C 
ATOM     28  C   LIG    1       21.935 -32.821  14.404  0.00  0.00    +0.002 C 
ATOM     29  C   LIG    1       22.242 -31.807  13.302  0.00  0.00    +0.019 C 
ATOM     30  C   LIG    1       23.481 -30.953  13.544  0.00  0.00    +0.106 C 
ENDBRANCH  23  24
ENDBRANCH   7  22
TORSDOF 8
ENDMDL
MODEL 8
REMARK VINA RESULT:      -5.3      5.864      8.654
REMARK  Name = *****
REMARK                            x       y       z     vdW  Elec       q    Type
REMARK                         _______ _______ _______ _____ _____    ______ ____
ROOT
ATOM      1  C   LIG    1       25.342 -23.033   5.740  0.00  0.00    +0.201 C 
ATOM      2  C   LIG    1       24.611 -23.116   7.106  0.00  0.00    +0.042 C 
ATOM      3  C   LIG    1       25.480 -23.797   8.182  0.00  0.00    +0.025 C 
ATOM      4  C   LIG    1       24.140 -21.778   7.688  0.00  0.00    +0.025 C 
ATOM      5  S   LIG    1       23.135 -24.194   6.801  0.00  0.00    -0.127 S 
ATOM      6  C   LIG    1       23.841 -24.986   5.297  0.00  0.00    +0.169 C 
ATOM      7  C   LIG    1       24.615 -26.329   5.426  0.00  0.00    +0.223 C 
ATOM      8  C   LIG    1       25.873 -25.418   5.407  0.00  0.00    +0.244 C 
ATOM      9  O   LIG    1       27.065 -25.502   5.645  0.00  0.00    -0.273 OA
ATOM     10  N   LIG    1       25.134 -24.319   5.074  0.00  0.00    -0.270 N 
ENDROOT
BRANCH   1  11
ATOM     11  C   LIG    1       24.887 -21.869   4.835  0.00  0.00    +0.332 C 
ATOM     12  O   LIG    1       23.763 -21.791   4.351  0.00  0.00    -0.249 OA
BRANCH  11  13
ATOM     13  O   LIG    1       25.859 -20.933   4.656  0.00  0.00    -0.426 OA
BRANCH  13  14
ATOM     14  C   LIG    1       26.224 -20.201   5.829  0.00  0.00    +0.472 C 
BRANCH  14  15
ATOM     15  O   LIG    1       27.621 -20.297   6.117  0.00  0.00    -0.427 OA
BRANCH  15  16
ATOM     16  C   LIG    1       27.957 -20.147   7.426  0.00  0.00    +0.315 C 
ATOM     17  O   LIG    1       27.185 -20.300   8.362  0.00  0.00    -0.250 OA
BRANCH  16  19
ATOM     18  C   LIG    1       29.966 -19.264   6.211  0.00  0.00    +0.022 C 
ATOM     19  C   LIG    1       29.432 -19.753   7.565  0.00  0.00    +0.059 C 
ATOM     20  C   LIG    1       29.568 -18.618   8.594  0.00  0.00    +0.022 C 
ATOM     21  C   LIG    1       30.245 -20.962   8.045  0.00  0.00    +0.022 C 
ENDBRANCH  16  19
ENDBRANCH  15  16
ENDBRANCH  14  15
ENDBRANCH  13  14
ENDBRANCH  11  13
ENDBRANCH   1  11
BRANCH   7  22
ATOM     22  N   LIG    1       24.350 -27.051   6.682  0.00  0.00    -0.261 NA
ATOM     23  C   LIG    1       25.184 -28.008   6.919  0.00  0.00    +0.179 C 
BRANCH  23  24
ATOM     24  N   LIG    1       25.154 -28.898   7.967  0.00  0.00    -0.321 N 
ATOM     25  C   LIG    1       26.059 -28.743   9.104  0.00  0.00    +0.106 C 
ATOM     26  C   LIG    1       26.816 -30.031   9.430  0.00  0.00    +0.019 C 
ATOM     27  C   LIG    1       25.931 -31.110  10.050  0.00  0.00    +0.002 C 
ATOM     28  C   LIG    1       25.151 -31.968   9.054  0.00  0.00    +0.002 C 
ATOM     29  C   LIG    1       24.531 -31.260   7.850  0.00  0.00    +0.019 C 
ATOM     30  C   LIG    1       24.046 -29.840   8.119  0.00  0.00    +0.106 C 
ENDBRANCH  23  24
ENDBRANCH   7  22
TORSDOF 8
ENDMDL
MODEL 9
REMARK VINA RESULT:      -5.3      2.477      3.768
REMARK  Name = *****
REMARK                            x       y       z     vdW  Elec       q    Type
REMARK                         _______ _______ _______ _____ _____    ______ ____
ROOT
ATOM      1  C   LIG    1       26.127 -30.122  12.103  0.00  0.00    +0.201 C 
ATOM      2  C   LIG    1       25.859 -29.180  13.305  0.00  0.00    +0.042 C 
ATOM      3  C   LIG    1       25.431 -29.962  14.564  0.00  0.00    +0.025 C 
ATOM      4  C   LIG    1       27.028 -28.276  13.713  0.00  0.00    +0.025 C 
ATOM      5  S   LIG    1       24.432 -28.120  12.782  0.00  0.00    -0.127 S 
ATOM      6  C   LIG    1       23.849 -29.290  11.486  0.00  0.00    +0.169 C 
ATOM      7  C   LIG    1       22.756 -30.340  11.833  0.00  0.00    +0.223 C 
ATOM      8  C   LIG    1       23.963 -31.301  12.006  0.00  0.00    +0.244 C 
ATOM      9  O   LIG    1       24.194 -32.402  12.473  0.00  0.00    -0.273 OA
ATOM     10  N   LIG    1       24.830 -30.387  11.480  0.00  0.00    -0.270 N 
ENDROOT
BRANCH   1  11
ATOM     11  C   LIG    1       27.130 -29.574  11.066  0.00  0.00    +0.332 C 
ATOM     12  O   LIG    1       28.256 -30.034  10.909  0.00  0.00    -0.249 OA
BRANCH  11  13
ATOM     13  O   LIG    1       26.619 -28.548  10.334  0.00  0.00    -0.426 OA
BRANCH  13  14
ATOM     14  C   LIG    1       26.491 -28.801   8.932  0.00  0.00    +0.472 C 
BRANCH  14  15
ATOM     15  O   LIG    1       26.107 -27.635   8.202  0.00  0.00    -0.427 OA
BRANCH  15  16
ATOM     16  C   LIG    1       25.337 -27.863   7.104  0.00  0.00    +0.315 C 
ATOM     17  O   LIG    1       24.624 -28.845   6.948  0.00  0.00    -0.250 OA
BRANCH  16  19
ATOM     18  C   LIG    1       24.131 -26.417   5.448  0.00  0.00    +0.022 C 
ATOM     19  C   LIG    1       25.491 -26.726   6.087  0.00  0.00    +0.059 C 
ATOM     20  C   LIG    1       26.007 -25.465   6.799  0.00  0.00    +0.022 C 
ATOM     21  C   LIG    1       26.499 -27.136   5.005  0.00  0.00    +0.022 C 
ENDBRANCH  16  19
ENDBRANCH  15  16
ENDBRANCH  14  15
ENDBRANCH  13  14
ENDBRANCH  11  13
ENDBRANCH   1  11
BRANCH   7  22
ATOM     22  N   LIG    1       21.992 -30.024  13.052  0.00  0.00    -0.261 NA
ATOM     23  C   LIG    1       20.894 -29.383  12.828  0.00  0.00    +0.179 C 
BRANCH  23  24
ATOM     24  N   LIG    1       20.011 -28.892  13.761  0.00  0.00    -0.321 N 
ATOM     25  C   LIG    1       19.013 -29.764  14.376  0.00  0.00    +0.106 C 
ATOM     26  C   LIG    1       17.601 -29.181  14.304  0.00  0.00    +0.019 C 
ATOM     27  C   LIG    1       17.393 -27.987  15.232  0.00  0.00    +0.002 C 
ATOM     28  C   LIG    1       17.845 -26.638  14.675  0.00  0.00    +0.002 C 
ATOM     29  C   LIG    1       19.155 -26.604  13.889  0.00  0.00    +0.019 C 
ATOM     30  C   LIG    1       20.220 -27.581  14.375  0.00  0.00    +0.106 C 
ENDBRANCH  23  24
ENDBRANCH   7  22
TORSDOF 8
ENDMDL
