MODEL 1
REMARK VINA RESULT:      -9.2      0.000      0.000
REMARK  Name = *****
REMARK                            x       y       z     vdW  Elec       q    Type
REMARK                         _______ _______ _______ _____ _____    ______ ____
ROOT
ATOM      1  C   LIG    1       25.313 -21.502   7.162  0.00  0.00    +0.095 C 
ENDROOT
BRANCH   1   2
ATOM      2  C   LIG    1       24.700 -22.951   7.329  0.00  0.00    +0.033 C 
ATOM      3  C   LIG    1       23.747 -23.499   6.200  0.00  0.00    +0.018 C 
ATOM      4  C   LIG    1       23.634 -24.975   6.625  0.00  0.00    +0.015 C 
ATOM      5  C   LIG    1       25.139 -25.223   6.506  0.00  0.00    +0.012 C 
ATOM      6  C   LIG    1       25.325 -24.744   5.086  0.00  0.00    -0.027 C 
ATOM      7  C   LIG    1       24.481 -23.736   4.898  0.00  0.00    -0.027 C 
ATOM      8  C   LIG    1       25.709 -24.147   7.466  0.00  0.00    +0.015 C 
ENDBRANCH   1   2
BRANCH   1   9
ATOM      9  C   LIG    1       24.578 -20.642   6.092  0.00  0.00    -0.016 A 
ATOM     10  C   LIG    1       23.226 -20.260   6.219  0.00  0.00    +0.006 A 
ATOM     11  C   LIG    1       22.566 -19.535   5.207  0.00  0.00    +0.000 A 
ATOM     12  C   LIG    1       23.238 -19.163   4.046  0.00  0.00    +0.000 A 
ATOM     13  C   LIG    1       24.568 -19.526   3.891  0.00  0.00    +0.000 A 
ATOM     14  C   LIG    1       25.221 -20.260   4.894  0.00  0.00    +0.006 A 
ENDBRANCH   1   9
BRANCH   1  15
ATOM     15  O   LIG    1       25.255 -20.826   8.422  0.00  0.00    -0.384 OA
ATOM     16  H   LIG    1       26.147 -20.496   8.615  0.00  0.00    +0.211 HD
ENDBRANCH   1  15
BRANCH   1  17
ATOM     17  C   LIG    1       26.827 -21.652   6.810  0.00  0.00    +0.055 C 
BRANCH  17  18
ATOM     18  C   LIG    1       27.819 -20.839   7.672  0.00  0.00    +0.087 C 
BRANCH  18  19
ATOM     19  N   LIG    1       29.212 -20.871   7.164  0.00  0.00    -0.302 NA
ATOM     20  C   LIG    1       29.520 -19.900   6.106  0.00  0.00    +0.084 C 
ATOM     21  C   LIG    1       29.657 -18.458   6.597  0.00  0.00    +0.015 C 
ATOM     22  C   LIG    1       30.713 -18.362   7.690  0.00  0.00    +0.002 C 
ATOM     23  C   LIG    1       30.406 -19.355   8.806  0.00  0.00    +0.015 C 
ATOM     24  C   LIG    1       30.200 -20.773   8.256  0.00  0.00    +0.084 C 
ENDBRANCH  18  19
ENDBRANCH  17  18
ENDBRANCH   1  17
TORSDOF 6
ENDMDL
MODEL 2
REMARK VINA RESULT:      -8.7      2.359      5.527
REMARK  Name = *****
REMARK                            x       y       z     vdW  Elec       q    Type
REMARK                         _______ _______ _______ _____ _____    ______ ____
ROOT
ATOM      1  C   LIG    1       24.493 -22.351   5.890  0.00  0.00    +0.095 C 
ENDROOT
BRANCH   1   2
ATOM      2  C   LIG    1       25.336 -22.141   7.212  0.00  0.00    +0.033 C 
ATOM      3  C   LIG    1       26.908 -22.226   7.122  0.00  0.00    +0.018 C 
ATOM      4  C   LIG    1       27.293 -21.696   8.517  0.00  0.00    +0.015 C 
ATOM      5  C   LIG    1       26.611 -20.344   8.296  0.00  0.00    +0.012 C 
ATOM      6  C   LIG    1       27.298 -19.964   7.007  0.00  0.00    -0.027 C 
ATOM      7  C   LIG    1       27.495 -21.084   6.321  0.00  0.00    -0.027 C 
ATOM      8  C   LIG    1       25.159 -20.777   7.970  0.00  0.00    +0.015 C 
ENDBRANCH   1   2
BRANCH   1   9
ATOM      9  C   LIG    1       23.932 -21.024   5.299  0.00  0.00    -0.016 A 
ATOM     10  C   LIG    1       22.671 -20.504   5.658  0.00  0.00    +0.006 A 
ATOM     11  C   LIG    1       22.159 -19.334   5.062  0.00  0.00    +0.000 A 
ATOM     12  C   LIG    1       22.894 -18.647   4.100  0.00  0.00    +0.000 A 
ATOM     13  C   LIG    1       24.137 -19.135   3.725  0.00  0.00    +0.000 A 
ATOM     14  C   LIG    1       24.640 -20.308   4.309  0.00  0.00    +0.006 A 
ENDBRANCH   1   9
BRANCH   1  15
ATOM     15  O   LIG    1       25.321 -22.984   4.908  0.00  0.00    -0.384 OA
ATOM     16  H   LIG    1       26.223 -23.011   5.264  0.00  0.00    +0.211 HD
ENDBRANCH   1  15
BRANCH   1  17
ATOM     17  C   LIG    1       23.336 -23.352   6.204  0.00  0.00    +0.055 C 
BRANCH  17  18
ATOM     18  C   LIG    1       23.755 -24.768   6.658  0.00  0.00    +0.087 C 
BRANCH  18  19
ATOM     19  N   LIG    1       24.787 -25.389   5.792  0.00  0.00    -0.302 NA
ATOM     20  C   LIG    1       26.043 -25.747   6.464  0.00  0.00    +0.084 C 
ATOM     21  C   LIG    1       25.947 -26.984   7.358  0.00  0.00    +0.015 C 
ATOM     22  C   LIG    1       25.444 -28.181   6.562  0.00  0.00    +0.002 C 
ATOM     23  C   LIG    1       24.133 -27.837   5.864  0.00  0.00    +0.015 C 
ATOM     24  C   LIG    1       24.256 -26.545   5.043  0.00  0.00    +0.084 C 
ENDBRANCH  18  19
ENDBRANCH  17  18
ENDBRANCH   1  17
TORSDOF 6
ENDMDL
MODEL 3
REMARK VINA RESULT:      -8.4      1.798      5.748
REMARK  Name = *****
REMARK                            x       y       z     vdW  Elec       q    Type
REMARK                         _______ _______ _______ _____ _____    ______ ____
ROOT
ATOM      1  C   LIG    1       25.448 -21.616   7.060  0.00  0.00    +0.095 C 
ENDROOT
BRANCH   1   2
ATOM      2  C   LIG    1       24.126 -20.822   6.708  0.00  0.00    +0.033 C 
ATOM      3  C   LIG    1       24.156 -19.812   5.498  0.00  0.00    +0.018 C 
ATOM      4  C   LIG    1       22.653 -19.508   5.353  0.00  0.00    +0.015 C 
ATOM      5  C   LIG    1       22.287 -20.969   5.088  0.00  0.00    +0.012 C 
ATOM      6  C   LIG    1       23.231 -21.223   3.938  0.00  0.00    -0.027 C 
ATOM      7  C   LIG    1       24.332 -20.517   4.170  0.00  0.00    -0.027 C 
ATOM      8  C   LIG    1       22.852 -21.667   6.351  0.00  0.00    +0.015 C 
ENDBRANCH   1   2
BRANCH   1   9
ATOM      9  C   LIG    1       26.738 -20.751   6.943  0.00  0.00    -0.016 A 
ATOM     10  C   LIG    1       27.256 -20.321   5.703  0.00  0.00    +0.006 A 
ATOM     11  C   LIG    1       28.459 -19.592   5.620  0.00  0.00    +0.000 A 
ATOM     12  C   LIG    1       29.173 -19.265   6.770  0.00  0.00    +0.000 A 
ATOM     13  C   LIG    1       28.688 -19.675   8.004  0.00  0.00    +0.000 A 
ATOM     14  C   LIG    1       27.497 -20.413   8.084  0.00  0.00    +0.006 A 
ENDBRANCH   1   9
BRANCH   1  15
ATOM     15  O   LIG    1       25.345 -22.119   8.396  0.00  0.00    -0.384 OA
ATOM     16  H   LIG    1       25.445 -23.083   8.351  0.00  0.00    +0.211 HD
ENDBRANCH   1  15
BRANCH   1  17
ATOM     17  C   LIG    1       25.529 -22.863   6.124  0.00  0.00    +0.055 C 
BRANCH  17  18
ATOM     18  C   LIG    1       25.963 -24.193   6.782  0.00  0.00    +0.087 C 
BRANCH  18  19
ATOM     19  N   LIG    1       26.265 -25.269   5.806  0.00  0.00    -0.302 NA
ATOM     20  C   LIG    1       26.700 -26.544   6.388  0.00  0.00    +0.084 C 
ATOM     21  C   LIG    1       25.578 -27.353   7.040  0.00  0.00    +0.015 C 
ATOM     22  C   LIG    1       24.456 -27.612   6.044  0.00  0.00    +0.002 C 
ATOM     23  C   LIG    1       23.979 -26.299   5.435  0.00  0.00    +0.015 C 
ATOM     24  C   LIG    1       25.149 -25.486   4.864  0.00  0.00    +0.084 C 
ENDBRANCH  18  19
ENDBRANCH  17  18
ENDBRANCH   1  17
TORSDOF 6
ENDMDL
MODEL 4
REMARK VINA RESULT:      -8.4      1.724      2.995
REMARK  Name = *****
REMARK                            x       y       z     vdW  Elec       q    Type
REMARK                         _______ _______ _______ _____ _____    ______ ____
ROOT
ATOM      1  C   LIG    1       24.357 -23.720   6.418  0.00  0.00    +0.095 C 
ENDROOT
BRANCH   1   2
ATOM      2  C   LIG    1       25.007 -24.816   5.481  0.00  0.00    +0.033 C 
ATOM      3  C   LIG    1       26.213 -25.663   6.040  0.00  0.00    +0.018 C 
ATOM      4  C   LIG    1       26.323 -26.743   4.947  0.00  0.00    +0.015 C 
ATOM      5  C   LIG    1       24.897 -27.249   5.170  0.00  0.00    +0.012 C 
ATOM      6  C   LIG    1       24.990 -27.510   6.654  0.00  0.00    -0.027 C 
ATOM      7  C   LIG    1       25.791 -26.582   7.166  0.00  0.00    -0.027 C 
ATOM      8  C   LIG    1       24.069 -25.958   4.949  0.00  0.00    +0.015 C 
ENDBRANCH   1   2
BRANCH   1   9
ATOM      9  C   LIG    1       23.961 -22.418   5.662  0.00  0.00    -0.016 A 
ATOM     10  C   LIG    1       24.483 -22.085   4.395  0.00  0.00    +0.006 A 
ATOM     11  C   LIG    1       24.158 -20.869   3.760  0.00  0.00    +0.000 A 
ATOM     12  C   LIG    1       23.298 -19.958   4.366  0.00  0.00    +0.000 A 
ATOM     13  C   LIG    1       22.769 -20.258   5.613  0.00  0.00    +0.000 A 
ATOM     14  C   LIG    1       23.104 -21.462   6.251  0.00  0.00    +0.006 A 
ENDBRANCH   1   9
BRANCH   1  15
ATOM     15  O   LIG    1       23.189 -24.273   7.035  0.00  0.00    -0.384 OA
ATOM     16  H   LIG    1       22.778 -23.567   7.560  0.00  0.00    +0.211 HD
ENDBRANCH   1  15
BRANCH   1  17
ATOM     17  C   LIG    1       25.361 -23.409   7.572  0.00  0.00    +0.055 C 
BRANCH  17  18
ATOM     18  C   LIG    1       26.725 -22.815   7.158  0.00  0.00    +0.087 C 
BRANCH  18  19
ATOM     19  N   LIG    1       27.034 -21.521   7.816  0.00  0.00    -0.302 NA
ATOM     20  C   LIG    1       28.459 -21.260   8.056  0.00  0.00    +0.084 C 
ATOM     21  C   LIG    1       29.251 -20.892   6.800  0.00  0.00    +0.015 C 
ATOM     22  C   LIG    1       28.629 -19.686   6.109  0.00  0.00    +0.002 C 
ATOM     23  C   LIG    1       27.150 -19.939   5.839  0.00  0.00    +0.015 C 
ATOM     24  C   LIG    1       26.414 -20.382   7.111  0.00  0.00    +0.084 C 
ENDBRANCH  18  19
ENDBRANCH  17  18
ENDBRANCH   1  17
TORSDOF 6
ENDMDL
MODEL 5
REMARK VINA RESULT:      -8.3      1.189      3.741
REMARK  Name = *****
REMARK                            x       y       z     vdW  Elec       q    Type
REMARK                         _______ _______ _______ _____ _____    ______ ____
ROOT
ATOM      1  C   LIG    1       25.615 -21.536   6.441  0.00  0.00    +0.095 C 
ENDROOT
BRANCH   1   2
ATOM      2  C   LIG    1       24.239 -20.760   6.358  0.00  0.00    +0.033 C 
ATOM      3  C   LIG    1       24.035 -19.717   5.194  0.00  0.00    +0.018 C 
ATOM      4  C   LIG    1       22.526 -19.441   5.332  0.00  0.00    +0.015 C 
ATOM      5  C   LIG    1       22.140 -20.902   5.092  0.00  0.00    +0.012 C 
ATOM      6  C   LIG    1       22.865 -21.104   3.783  0.00  0.00    -0.027 C 
ATOM      7  C   LIG    1       23.978 -20.381   3.836  0.00  0.00    -0.027 C 
ATOM      8  C   LIG    1       22.935 -21.622   6.211  0.00  0.00    +0.015 C 
ENDBRANCH   1   2
BRANCH   1   9
ATOM      9  C   LIG    1       25.466 -23.077   6.275  0.00  0.00    -0.016 A 
ATOM     10  C   LIG    1       25.830 -23.991   7.285  0.00  0.00    +0.006 A 
ATOM     11  C   LIG    1       25.744 -25.384   7.085  0.00  0.00    +0.000 A 
ATOM     12  C   LIG    1       25.284 -25.901   5.878  0.00  0.00    +0.000 A 
ATOM     13  C   LIG    1       24.920 -25.027   4.865  0.00  0.00    +0.000 A 
ATOM     14  C   LIG    1       25.019 -23.641   5.059  0.00  0.00    +0.006 A 
ENDBRANCH   1   9
BRANCH   1  15
ATOM     15  O   LIG    1       26.490 -21.041   5.422  0.00  0.00    -0.384 OA
ATOM     16  H   LIG    1       26.392 -20.075   5.401  0.00  0.00    +0.211 HD
ENDBRANCH   1  15
BRANCH   1  17
ATOM     17  C   LIG    1       26.288 -21.188   7.807  0.00  0.00    +0.055 C 
BRANCH  17  18
ATOM     18  C   LIG    1       27.513 -20.249   7.753  0.00  0.00    +0.087 C 
BRANCH  18  19
ATOM     19  N   LIG    1       28.706 -20.864   7.120  0.00  0.00    -0.302 NA
ATOM     20  C   LIG    1       29.292 -20.104   6.008  0.00  0.00    +0.084 C 
ATOM     21  C   LIG    1       30.073 -18.862   6.438  0.00  0.00    +0.015 C 
ATOM     22  C   LIG    1       31.170 -19.234   7.426  0.00  0.00    +0.002 C 
ATOM     23  C   LIG    1       30.582 -20.014   8.597  0.00  0.00    +0.015 C 
ATOM     24  C   LIG    1       29.743 -21.204   8.114  0.00  0.00    +0.084 C 
ENDBRANCH  18  19
ENDBRANCH  17  18
ENDBRANCH   1  17
TORSDOF 6
ENDMDL
MODEL 6
REMARK VINA RESULT:      -8.3      1.689      5.716
REMARK  Name = *****
REMARK                            x       y       z     vdW  Elec       q    Type
REMARK                         _______ _______ _______ _____ _____    ______ ____
ROOT
ATOM      1  C   LIG    1       25.946 -21.208   6.965  0.00  0.00    +0.095 C 
ENDROOT
BRANCH   1   2
ATOM      2  C   LIG    1       25.374 -21.234   5.491  0.00  0.00    +0.033 C 
ATOM      3  C   LIG    1       23.887 -21.708   5.270  0.00  0.00    +0.018 C 
ATOM      4  C   LIG    1       23.685 -21.310   3.796  0.00  0.00    +0.015 C 
ATOM      5  C   LIG    1       23.957 -19.828   4.060  0.00  0.00    +0.012 C 
ATOM      6  C   LIG    1       22.944 -19.615   5.159  0.00  0.00    -0.027 C 
ATOM      7  C   LIG    1       22.885 -20.740   5.863  0.00  0.00    -0.027 C 
ATOM      8  C   LIG    1       25.369 -19.878   4.697  0.00  0.00    +0.015 C 
ENDBRANCH   1   2
BRANCH   1   9
ATOM      9  C   LIG    1       27.456 -20.834   7.034  0.00  0.00    -0.016 A 
ATOM     10  C   LIG    1       28.338 -21.401   7.977  0.00  0.00    +0.006 A 
ATOM     11  C   LIG    1       29.687 -20.999   8.060  0.00  0.00    +0.000 A 
ATOM     12  C   LIG    1       30.193 -20.028   7.200  0.00  0.00    +0.000 A 
ATOM     13  C   LIG    1       29.349 -19.452   6.262  0.00  0.00    +0.000 A 
ATOM     14  C   LIG    1       28.003 -19.843   6.189  0.00  0.00    +0.006 A 
ENDBRANCH   1   9
BRANCH   1  15
ATOM     15  O   LIG    1       25.198 -20.263   7.737  0.00  0.00    -0.384 OA
ATOM     16  H   LIG    1       25.423 -20.408   8.670  0.00  0.00    +0.211 HD
ENDBRANCH   1  15
BRANCH   1  17
ATOM     17  C   LIG    1       25.691 -22.607   7.610  0.00  0.00    +0.055 C 
BRANCH  17  18
ATOM     18  C   LIG    1       26.217 -23.833   6.830  0.00  0.00    +0.087 C 
BRANCH  18  19
ATOM     19  N   LIG    1       25.313 -25.008   6.890  0.00  0.00    -0.302 NA
ATOM     20  C   LIG    1       24.367 -25.134   5.774  0.00  0.00    +0.084 C 
ATOM     21  C   LIG    1       25.001 -25.599   4.462  0.00  0.00    +0.015 C 
ATOM     22  C   LIG    1       25.727 -26.923   4.657  0.00  0.00    +0.002 C 
ATOM     23  C   LIG    1       26.724 -26.813   5.805  0.00  0.00    +0.015 C 
ATOM     24  C   LIG    1       26.060 -26.268   7.077  0.00  0.00    +0.084 C 
ENDBRANCH  18  19
ENDBRANCH  17  18
ENDBRANCH   1  17
TORSDOF 6
ENDMDL
MODEL 7
REMARK VINA RESULT:      -8.2      0.979      2.068
REMARK  Name = *****
REMARK                            x       y       z     vdW  Elec       q    Type
REMARK                         _______ _______ _______ _____ _____    ______ ____
ROOT
ATOM      1  C   LIG    1       25.910 -20.789   6.357  0.00  0.00    +0.095 C 
ENDROOT
BRANCH   1   2
ATOM      2  C   LIG    1       25.949 -22.369   6.305  0.00  0.00    +0.033 C 
ATOM      3  C   LIG    1       25.409 -23.175   7.548  0.00  0.00    +0.018 C 
ATOM      4  C   LIG    1       25.376 -24.599   6.960  0.00  0.00    +0.015 C 
ATOM      5  C   LIG    1       24.400 -24.218   5.845  0.00  0.00    +0.012 C 
ATOM      6  C   LIG    1       23.316 -23.612   6.703  0.00  0.00    -0.027 C 
ATOM      7  C   LIG    1       23.915 -23.013   7.727  0.00  0.00    -0.027 C 
ATOM      8  C   LIG    1       25.167 -23.071   5.138  0.00  0.00    +0.015 C 
ENDBRANCH   1   2
BRANCH   1   9
ATOM      9  C   LIG    1       24.776 -20.171   5.486  0.00  0.00    -0.016 A 
ATOM     10  C   LIG    1       25.015 -19.599   4.219  0.00  0.00    +0.006 A 
ATOM     11  C   LIG    1       23.982 -18.990   3.479  0.00  0.00    +0.000 A 
ATOM     12  C   LIG    1       22.683 -18.944   3.977  0.00  0.00    +0.000 A 
ATOM     13  C   LIG    1       22.417 -19.498   5.221  0.00  0.00    +0.000 A 
ATOM     14  C   LIG    1       23.449 -20.091   5.964  0.00  0.00    +0.006 A 
ENDBRANCH   1   9
BRANCH   1  15
ATOM     15  O   LIG    1       25.731 -20.374   7.715  0.00  0.00    -0.384 OA
ATOM     16  H   LIG    1       24.784 -20.201   7.843  0.00  0.00    +0.211 HD
ENDBRANCH   1  15
BRANCH   1  17
ATOM     17  C   LIG    1       27.307 -20.253   5.911  0.00  0.00    +0.055 C 
BRANCH  17  18
ATOM     18  C   LIG    1       28.540 -20.918   6.562  0.00  0.00    +0.087 C 
BRANCH  18  19
ATOM     19  N   LIG    1       28.714 -20.574   7.995  0.00  0.00    -0.302 NA
ATOM     20  C   LIG    1       29.730 -21.355   8.712  0.00  0.00    +0.084 C 
ATOM     21  C   LIG    1       31.171 -20.973   8.373  0.00  0.00    +0.015 C 
ATOM     22  C   LIG    1       31.406 -19.490   8.626  0.00  0.00    +0.002 C 
ATOM     23  C   LIG    1       30.369 -18.658   7.880  0.00  0.00    +0.015 C 
ATOM     24  C   LIG    1       28.941 -19.129   8.191  0.00  0.00    +0.084 C 
ENDBRANCH  18  19
ENDBRANCH  17  18
ENDBRANCH   1  17
TORSDOF 6
ENDMDL
MODEL 8
REMARK VINA RESULT:      -8.1      1.127      1.943
REMARK  Name = *****
REMARK                            x       y       z     vdW  Elec       q    Type
REMARK                         _______ _______ _______ _____ _____    ______ ____
ROOT
ATOM      1  C   LIG    1       24.586 -22.084   6.675  0.00  0.00    +0.095 C 
ENDROOT
BRANCH   1   2
ATOM      2  C   LIG    1       25.413 -23.251   5.999  0.00  0.00    +0.033 C 
ATOM      3  C   LIG    1       25.644 -24.579   6.816  0.00  0.00    +0.018 C 
ATOM      4  C   LIG    1       26.214 -25.488   5.711  0.00  0.00    +0.015 C 
ATOM      5  C   LIG    1       24.965 -25.366   4.835  0.00  0.00    +0.012 C 
ATOM      6  C   LIG    1       23.940 -25.790   5.860  0.00  0.00    -0.027 C 
ATOM      7  C   LIG    1       24.357 -25.342   7.040  0.00  0.00    -0.027 C 
ATOM      8  C   LIG    1       24.865 -23.831   4.646  0.00  0.00    +0.015 C 
ENDBRANCH   1   2
BRANCH   1   9
ATOM      9  C   LIG    1       24.128 -20.988   5.667  0.00  0.00    -0.016 A 
ATOM     10  C   LIG    1       24.913 -20.593   4.564  0.00  0.00    +0.006 A 
ATOM     11  C   LIG    1       24.505 -19.554   3.703  0.00  0.00    +0.000 A 
ATOM     12  C   LIG    1       23.300 -18.890   3.913  0.00  0.00    +0.000 A 
ATOM     13  C   LIG    1       22.507 -19.257   4.991  0.00  0.00    +0.000 A 
ATOM     14  C   LIG    1       22.921 -20.281   5.856  0.00  0.00    +0.006 A 
ENDBRANCH   1   9
BRANCH   1  15
ATOM     15  O   LIG    1       23.432 -22.642   7.311  0.00  0.00    -0.384 OA
ATOM     16  H   LIG    1       22.680 -22.512   6.711  0.00  0.00    +0.211 HD
ENDBRANCH   1  15
BRANCH   1  17
ATOM     17  C   LIG    1       25.461 -21.463   7.810  0.00  0.00    +0.055 C 
BRANCH  17  18
ATOM     18  C   LIG    1       26.458 -20.361   7.388  0.00  0.00    +0.087 C 
BRANCH  18  19
ATOM     19  N   LIG    1       27.749 -20.890   6.884  0.00  0.00    -0.302 NA
ATOM     20  C   LIG    1       28.226 -20.298   5.628  0.00  0.00    +0.084 C 
ATOM     21  C   LIG    1       28.782 -18.880   5.773  0.00  0.00    +0.015 C 
ATOM     22  C   LIG    1       29.905 -18.848   6.802  0.00  0.00    +0.002 C 
ATOM     23  C   LIG    1       29.428 -19.448   8.120  0.00  0.00    +0.015 C 
ATOM     24  C   LIG    1       28.806 -20.836   7.913  0.00  0.00    +0.084 C 
ENDBRANCH  18  19
ENDBRANCH  17  18
ENDBRANCH   1  17
TORSDOF 6
ENDMDL
MODEL 9
REMARK VINA RESULT:      -8.1      2.492      4.891
REMARK  Name = *****
REMARK                            x       y       z     vdW  Elec       q    Type
REMARK                         _______ _______ _______ _____ _____    ______ ____
ROOT
ATOM      1  C   LIG    1       24.470 -23.107   6.140  0.00  0.00    +0.095 C 
ENDROOT
BRANCH   1   2
ATOM      2  C   LIG    1       24.509 -24.584   6.705  0.00  0.00    +0.033 C 
ATOM      3  C   LIG    1       24.057 -25.762   5.760  0.00  0.00    +0.018 C 
ATOM      4  C   LIG    1       24.515 -26.975   6.591  0.00  0.00    +0.015 C 
ATOM      5  C   LIG    1       25.983 -26.544   6.585  0.00  0.00    +0.012 C 
ATOM      6  C   LIG    1       26.161 -26.402   5.093  0.00  0.00    -0.027 C 
ATOM      7  C   LIG    1       25.008 -25.960   4.601  0.00  0.00    -0.027 C 
ATOM      8  C   LIG    1       25.895 -25.126   7.206  0.00  0.00    +0.015 C 
ENDBRANCH   1   2
BRANCH   1   9
ATOM      9  C   LIG    1       25.453 -22.142   6.868  0.00  0.00    -0.016 A 
ATOM     10  C   LIG    1       25.294 -21.770   8.219  0.00  0.00    +0.006 A 
ATOM     11  C   LIG    1       26.161 -20.846   8.835  0.00  0.00    +0.000 A 
ATOM     12  C   LIG    1       27.214 -20.276   8.125  0.00  0.00    +0.000 A 
ATOM     13  C   LIG    1       27.395 -20.622   6.794  0.00  0.00    +0.000 A 
ATOM     14  C   LIG    1       26.523 -21.532   6.177  0.00  0.00    +0.006 A 
ENDBRANCH   1   9
BRANCH   1  15
ATOM     15  O   LIG    1       24.793 -23.135   4.746  0.00  0.00    -0.384 OA
ATOM     16  H   LIG    1       25.375 -22.378   4.568  0.00  0.00    +0.211 HD
ENDBRANCH   1  15
BRANCH   1  17
ATOM     17  C   LIG    1       23.002 -22.585   6.244  0.00  0.00    +0.055 C 
BRANCH  17  18
ATOM     18  C   LIG    1       22.787 -21.076   5.989  0.00  0.00    +0.087 C 
BRANCH  18  19
ATOM     19  N   LIG    1       22.512 -20.747   4.568  0.00  0.00    -0.302 NA
ATOM     20  C   LIG    1       21.673 -19.562   4.347  0.00  0.00    +0.084 C 
ATOM     21  C   LIG    1       22.386 -18.232   4.592  0.00  0.00    +0.015 C 
ATOM     22  C   LIG    1       23.638 -18.129   3.730  0.00  0.00    +0.002 C 
ATOM     23  C   LIG    1       24.531 -19.344   3.953  0.00  0.00    +0.015 C 
ATOM     24  C   LIG    1       23.753 -20.655   3.774  0.00  0.00    +0.084 C 
ENDBRANCH  18  19
ENDBRANCH  17  18
ENDBRANCH   1  17
TORSDOF 6
ENDMDL
