MODEL 1
REMARK VINA RESULT:      -8.4      0.000      0.000
REMARK  Name = *****
REMARK                            x       y       z     vdW  Elec       q    Type
REMARK                         _______ _______ _______ _____ _____    ______ ____
ROOT
ATOM      1  C   LIG    1       24.580 -21.011   5.299  0.00  0.00    +0.065 C 
ATOM      2  C   LIG    1       25.696 -21.875   5.853  0.00  0.00    +0.096 C 
ATOM      3  C   LIG    1       26.217 -21.327   7.198  0.00  0.00    +0.065 C 
ATOM      4  C   LIG    1       25.344 -20.672   8.002  0.00  0.00    +0.016 C 
ATOM      5  C   LIG    1       25.629 -20.138   9.377  0.00  0.00    +0.061 C 
ATOM      6  N   LIG    1       24.063 -20.420   7.530  0.00  0.00    -0.321 N 
ATOM      7  H   LIG    1       23.501 -19.804   8.113  0.00  0.00    +0.152 HD
ATOM      8  C   LIG    1       23.769 -20.385   6.173  0.00  0.00    +0.016 C 
ATOM      9  C   LIG    1       22.559 -19.585   5.810  0.00  0.00    +0.061 C 
ENDROOT
BRANCH   2  10
ATOM     10  C   LIG    1       25.108 -23.285   5.961  0.00  0.00    -0.029 A 
ATOM     11  C   LIG    1       25.919 -24.387   5.660  0.00  0.00    +0.088 A 
ATOM     12  C   LIG    1       25.511 -25.664   5.960  0.00  0.00    +0.273 A 
ATOM     13  C   LIG    1       24.262 -25.841   6.581  0.00  0.00    +0.084 A 
ATOM     14  C   LIG    1       23.333 -24.782   6.619  0.00  0.00    +0.007 A 
ATOM     15  C   LIG    1       23.769 -23.510   6.335  0.00  0.00    +0.005 A 
BRANCH  12  16
ATOM     16  N   LIG    1       26.354 -26.756   5.419  0.00  0.00    +0.080 N 
ATOM     17  O   LIG    1       25.784 -27.725   4.876  0.00  0.00    -0.576 OA
ATOM     18  O   LIG    1       27.581 -26.662   5.542  0.00  0.00    +0.041 OA
ENDBRANCH  12  16
ENDBRANCH   2  10
BRANCH   1  19
ATOM     19  C   LIG    1       24.462 -20.906   3.804  0.00  0.00    +0.338 C 
ATOM     20  O   LIG    1       23.713 -21.485   3.125  0.00  0.00    -0.245 OA
BRANCH  19  21
ATOM     21  O   LIG    1       25.375 -19.972   3.366  0.00  0.00    -0.459 OA
BRANCH  21  22
ATOM     22  C   LIG    1       25.001 -18.599   3.444  0.00  0.00    +0.260 C 
BRANCH  22  23
ATOM     23  C   LIG    1       26.210 -17.689   3.436  0.00  0.00    +0.200 C 
BRANCH  23  25
ATOM     24  C   LIG    1       26.811 -15.428   3.468  0.00  0.00    +0.194 C 
ATOM     25  O   LIG    1       25.827 -16.370   3.054  0.00  0.00    -0.380 OA
ENDBRANCH  23  25
ENDBRANCH  22  23
ENDBRANCH  21  22
ENDBRANCH  19  21
ENDBRANCH   1  19
BRANCH   3  26
ATOM     26  C   LIG    1       27.618 -21.645   7.580  0.00  0.00    +0.338 C 
ATOM     27  O   LIG    1       27.973 -22.188   8.630  0.00  0.00    -0.245 OA
BRANCH  26  28
ATOM     28  O   LIG    1       28.439 -21.321   6.563  0.00  0.00    -0.457 OA
BRANCH  28  29
ATOM     29  C   LIG    1       28.561 -19.922   6.236  0.00  0.00    +0.260 C 
BRANCH  29  30
ATOM     30  C   LIG    1       29.571 -19.248   7.132  0.00  0.00    +0.014 C 
ATOM     31  C   LIG    1       29.494 -18.914   8.440  0.00  0.00    +0.007 C 
BRANCH  31  32
ATOM     32  C   LIG    1       30.499 -18.143   9.261  0.00  0.00    -0.025 A 
ATOM     33  C   LIG    1       30.166 -17.609  10.504  0.00  0.00    +0.008 A 
ATOM     34  C   LIG    1       30.987 -16.649  11.156  0.00  0.00    +0.001 A 
ATOM     35  C   LIG    1       32.106 -16.124  10.516  0.00  0.00    +0.000 A 
ATOM     36  C   LIG    1       32.545 -16.743   9.358  0.00  0.00    +0.001 A 
ATOM     37  C   LIG    1       31.759 -17.760   8.753  0.00  0.00    +0.008 A 
ENDBRANCH  31  32
ENDBRANCH  29  30
ENDBRANCH  28  29
ENDBRANCH  26  28
ENDBRANCH   3  26
TORSDOF 12
ENDMDL
MODEL 2
REMARK VINA RESULT:      -7.7      6.040     10.876
REMARK  Name = *****
REMARK                            x       y       z     vdW  Elec       q    Type
REMARK                         _______ _______ _______ _____ _____    ______ ____
ROOT
ATOM      1  C   LIG    1       26.222 -31.170   9.069  0.00  0.00    +0.065 C 
ATOM      2  C   LIG    1       25.047 -30.383   8.523  0.00  0.00    +0.096 C 
ATOM      3  C   LIG    1       24.920 -30.550   6.994  0.00  0.00    +0.065 C 
ATOM      4  C   LIG    1       25.323 -31.722   6.443  0.00  0.00    +0.016 C 
ATOM      5  C   LIG    1       25.208 -32.111   4.997  0.00  0.00    +0.061 C 
ATOM      6  N   LIG    1       25.938 -32.664   7.257  0.00  0.00    -0.321 N 
ATOM      7  H   LIG    1       26.347 -33.456   6.767  0.00  0.00    +0.152 HD
ATOM      8  C   LIG    1       26.561 -32.316   8.449  0.00  0.00    +0.016 C 
ATOM      9  C   LIG    1       27.617 -33.270   8.911  0.00  0.00    +0.061 C 
ENDROOT
BRANCH   2  10
ATOM     10  C   LIG    1       23.822 -30.889   9.290  0.00  0.00    -0.029 A 
ATOM     11  C   LIG    1       23.248 -30.071  10.272  0.00  0.00    +0.088 A 
ATOM     12  C   LIG    1       22.027 -30.382  10.819  0.00  0.00    +0.273 A 
ATOM     13  C   LIG    1       21.363 -31.537  10.369  0.00  0.00    +0.084 A 
ATOM     14  C   LIG    1       22.056 -32.501   9.611  0.00  0.00    +0.007 A 
ATOM     15  C   LIG    1       23.266 -32.162   9.056  0.00  0.00    +0.005 A 
BRANCH  12  16
ATOM     16  N   LIG    1       21.612 -29.562  11.982  0.00  0.00    +0.080 N 
ATOM     17  O   LIG    1       20.572 -29.887  12.591  0.00  0.00    -0.576 OA
ATOM     18  O   LIG    1       22.309 -28.587  12.287  0.00  0.00    +0.041 OA
ENDBRANCH  12  16
ENDBRANCH   2  10
BRANCH   1  19
ATOM     19  C   LIG    1       26.937 -30.607  10.266  0.00  0.00    +0.338 C 
ATOM     20  O   LIG    1       27.809 -29.835  10.253  0.00  0.00    -0.245 OA
BRANCH  19  21
ATOM     21  O   LIG    1       26.360 -31.138  11.399  0.00  0.00    -0.459 OA
BRANCH  21  22
ATOM     22  C   LIG    1       26.170 -30.267  12.511  0.00  0.00    +0.260 C 
BRANCH  22  23
ATOM     23  C   LIG    1       26.536 -30.939  13.816  0.00  0.00    +0.200 C 
BRANCH  23  25
ATOM     24  C   LIG    1       28.446 -29.590  13.784  0.00  0.00    +0.194 C 
ATOM     25  O   LIG    1       27.948 -30.905  14.005  0.00  0.00    -0.380 OA
ENDBRANCH  23  25
ENDBRANCH  22  23
ENDBRANCH  21  22
ENDBRANCH  19  21
ENDBRANCH   1  19
BRANCH   3  26
ATOM     26  C   LIG    1       24.262 -29.458   6.230  0.00  0.00    +0.338 C 
ATOM     27  O   LIG    1       23.223 -29.563   5.572  0.00  0.00    -0.245 OA
BRANCH  26  28
ATOM     28  O   LIG    1       24.935 -28.308   6.431  0.00  0.00    -0.457 OA
BRANCH  28  29
ATOM     29  C   LIG    1       24.825 -27.295   5.412  0.00  0.00    +0.260 C 
BRANCH  29  30
ATOM     30  C   LIG    1       24.488 -25.956   6.021  0.00  0.00    +0.014 C 
ATOM     31  C   LIG    1       25.270 -24.875   6.242  0.00  0.00    +0.007 C 
BRANCH  31  32
ATOM     32  C   LIG    1       24.903 -23.596   6.956  0.00  0.00    -0.025 A 
ATOM     33  C   LIG    1       23.631 -23.038   6.839  0.00  0.00    +0.008 A 
ATOM     34  C   LIG    1       23.351 -21.708   7.257  0.00  0.00    +0.001 A 
ATOM     35  C   LIG    1       24.375 -20.875   7.700  0.00  0.00    +0.000 A 
ATOM     36  C   LIG    1       25.607 -21.445   7.971  0.00  0.00    +0.001 A 
ATOM     37  C   LIG    1       25.857 -22.800   7.625  0.00  0.00    +0.008 A 
ENDBRANCH  31  32
ENDBRANCH  29  30
ENDBRANCH  28  29
ENDBRANCH  26  28
ENDBRANCH   3  26
TORSDOF 12
ENDMDL
MODEL 3
REMARK VINA RESULT:      -7.4      5.675     10.607
REMARK  Name = *****
REMARK                            x       y       z     vdW  Elec       q    Type
REMARK                         _______ _______ _______ _____ _____    ______ ____
ROOT
ATOM      1  C   LIG    1       24.495 -31.595   8.971  0.00  0.00    +0.065 C 
ATOM      2  C   LIG    1       24.669 -31.151   7.532  0.00  0.00    +0.096 C 
ATOM      3  C   LIG    1       25.063 -29.661   7.447  0.00  0.00    +0.065 C 
ATOM      4  C   LIG    1       25.797 -29.136   8.459  0.00  0.00    +0.016 C 
ATOM      5  C   LIG    1       26.348 -27.741   8.526  0.00  0.00    +0.061 C 
ATOM      6  N   LIG    1       26.056 -29.922   9.573  0.00  0.00    -0.321 N 
ATOM      7  H   LIG    1       26.483 -29.434  10.356  0.00  0.00    +0.152 HD
ATOM      8  C   LIG    1       25.257 -31.007   9.913  0.00  0.00    +0.016 C 
ATOM      9  C   LIG    1       25.297 -31.392  11.358  0.00  0.00    +0.061 C 
ENDROOT
BRANCH   2  10
ATOM     10  C   LIG    1       25.721 -32.091   6.937  0.00  0.00    -0.029 A 
ATOM     11  C   LIG    1       25.765 -32.272   5.549  0.00  0.00    +0.088 A 
ATOM     12  C   LIG    1       26.824 -32.918   4.957  0.00  0.00    +0.273 A 
ATOM     13  C   LIG    1       27.866 -33.388   5.776  0.00  0.00    +0.084 A 
ATOM     14  C   LIG    1       27.689 -33.467   7.172  0.00  0.00    +0.007 A 
ATOM     15  C   LIG    1       26.635 -32.796   7.744  0.00  0.00    +0.005 A 
BRANCH  12  16
ATOM     16  N   LIG    1       26.670 -33.227   3.516  0.00  0.00    +0.080 N 
ATOM     17  O   LIG    1       25.585 -32.946   2.967  0.00  0.00    -0.576 OA
ATOM     18  O   LIG    1       27.618 -33.761   2.929  0.00  0.00    +0.041 OA
ENDBRANCH  12  16
ENDBRANCH   2  10
BRANCH   1  19
ATOM     19  C   LIG    1       23.471 -32.661   9.250  0.00  0.00    +0.338 C 
ATOM     20  O   LIG    1       23.685 -33.776   9.509  0.00  0.00    -0.245 OA
BRANCH  19  21
ATOM     21  O   LIG    1       22.222 -32.084   9.179  0.00  0.00    -0.459 OA
BRANCH  21  22
ATOM     22  C   LIG    1       21.699 -31.500  10.369  0.00  0.00    +0.260 C 
BRANCH  22  23
ATOM     23  C   LIG    1       20.256 -31.895  10.597  0.00  0.00    +0.200 C 
BRANCH  23  25
ATOM     24  C   LIG    1       18.029 -31.352  10.132  0.00  0.00    +0.194 C 
ATOM     25  O   LIG    1       19.389 -31.010   9.892  0.00  0.00    -0.380 OA
ENDBRANCH  23  25
ENDBRANCH  22  23
ENDBRANCH  21  22
ENDBRANCH  19  21
ENDBRANCH   1  19
BRANCH   3  26
ATOM     26  C   LIG    1       24.708 -28.921   6.208  0.00  0.00    +0.338 C 
ATOM     27  O   LIG    1       23.585 -28.865   5.699  0.00  0.00    -0.245 OA
BRANCH  26  28
ATOM     28  O   LIG    1       25.789 -28.248   5.768  0.00  0.00    -0.457 OA
BRANCH  28  29
ATOM     29  C   LIG    1       25.557 -27.153   4.859  0.00  0.00    +0.260 C 
BRANCH  29  30
ATOM     30  C   LIG    1       25.490 -25.843   5.605  0.00  0.00    +0.014 C 
ATOM     31  C   LIG    1       24.448 -25.240   6.221  0.00  0.00    +0.007 C 
BRANCH  31  32
ATOM     32  C   LIG    1       24.414 -23.874   6.861  0.00  0.00    -0.025 A 
ATOM     33  C   LIG    1       23.273 -23.076   6.811  0.00  0.00    +0.008 A 
ATOM     34  C   LIG    1       23.305 -21.694   7.146  0.00  0.00    +0.001 A 
ATOM     35  C   LIG    1       24.512 -21.063   7.433  0.00  0.00    +0.000 A 
ATOM     36  C   LIG    1       25.628 -21.855   7.641  0.00  0.00    +0.001 A 
ATOM     37  C   LIG    1       25.569 -23.251   7.382  0.00  0.00    +0.008 A 
ENDBRANCH  31  32
ENDBRANCH  29  30
ENDBRANCH  28  29
ENDBRANCH  26  28
ENDBRANCH   3  26
TORSDOF 12
ENDMDL
MODEL 4
REMARK VINA RESULT:      -7.4      6.488     10.795
REMARK  Name = *****
REMARK                            x       y       z     vdW  Elec       q    Type
REMARK                         _______ _______ _______ _____ _____    ______ ____
ROOT
ATOM      1  C   LIG    1       25.657 -30.028  13.141  0.00  0.00    +0.065 C 
ATOM      2  C   LIG    1       25.267 -29.298  11.871  0.00  0.00    +0.096 C 
ATOM      3  C   LIG    1       25.733 -30.065  10.616  0.00  0.00    +0.065 C 
ATOM      4  C   LIG    1       25.797 -31.418  10.681  0.00  0.00    +0.016 C 
ATOM      5  C   LIG    1       26.144 -32.348   9.554  0.00  0.00    +0.061 C 
ATOM      6  N   LIG    1       25.558 -32.039  11.900  0.00  0.00    -0.321 N 
ATOM      7  H   LIG    1       25.760 -33.035  11.924  0.00  0.00    +0.152 HD
ATOM      8  C   LIG    1       25.709 -31.373  13.110  0.00  0.00    +0.016 C 
ATOM      9  C   LIG    1       25.968 -32.256  14.289  0.00  0.00    +0.061 C 
ENDROOT
BRANCH   2  10
ATOM     10  C   LIG    1       23.747 -29.127  11.947  0.00  0.00    -0.029 A 
ATOM     11  C   LIG    1       22.926 -30.013  11.238  0.00  0.00    +0.088 A 
ATOM     12  C   LIG    1       21.569 -30.042  11.455  0.00  0.00    +0.273 A 
ATOM     13  C   LIG    1       21.024 -29.166  12.410  0.00  0.00    +0.084 A 
ATOM     14  C   LIG    1       21.790 -28.091  12.905  0.00  0.00    +0.007 A 
ATOM     15  C   LIG    1       23.147 -28.094  12.692  0.00  0.00    +0.005 A 
BRANCH  12  16
ATOM     16  N   LIG    1       20.781 -30.870  10.513  0.00  0.00    +0.080 N 
ATOM     17  O   LIG    1       19.536 -30.835  10.598  0.00  0.00    -0.576 OA
ATOM     18  O   LIG    1       21.393 -31.567   9.695  0.00  0.00    +0.041 OA
ENDBRANCH  12  16
ENDBRANCH   2  10
BRANCH   1  19
ATOM     19  C   LIG    1       25.970 -29.193  14.353  0.00  0.00    +0.338 C 
ATOM     20  O   LIG    1       25.366 -29.163  15.349  0.00  0.00    -0.245 OA
BRANCH  19  21
ATOM     21  O   LIG    1       27.124 -28.484  14.099  0.00  0.00    -0.459 OA
BRANCH  21  22
ATOM     22  C   LIG    1       27.123 -27.093  14.409  0.00  0.00    +0.260 C 
BRANCH  22  23
ATOM     23  C   LIG    1       26.553 -26.268  13.276  0.00  0.00    +0.200 C 
BRANCH  23  25
ATOM     24  C   LIG    1       27.948 -24.773  14.412  0.00  0.00    +0.194 C 
ATOM     25  O   LIG    1       27.199 -24.999  13.223  0.00  0.00    -0.380 OA
ENDBRANCH  23  25
ENDBRANCH  22  23
ENDBRANCH  21  22
ENDBRANCH  19  21
ENDBRANCH   1  19
BRANCH   3  26
ATOM     26  C   LIG    1       25.978 -29.282   9.377  0.00  0.00    +0.338 C 
ATOM     27  O   LIG    1       26.973 -28.589   9.148  0.00  0.00    -0.245 OA
BRANCH  26  28
ATOM     28  O   LIG    1       24.979 -29.510   8.502  0.00  0.00    -0.457 OA
BRANCH  28  29
ATOM     29  C   LIG    1       25.187 -29.085   7.141  0.00  0.00    +0.260 C 
BRANCH  29  30
ATOM     30  C   LIG    1       24.769 -27.647   6.958  0.00  0.00    +0.014 C 
ATOM     31  C   LIG    1       25.512 -26.547   6.699  0.00  0.00    +0.007 C 
BRANCH  31  32
ATOM     32  C   LIG    1       25.051 -25.112   6.632  0.00  0.00    -0.025 A 
ATOM     33  C   LIG    1       25.903 -24.058   6.956  0.00  0.00    +0.008 A 
ATOM     34  C   LIG    1       25.420 -22.740   7.179  0.00  0.00    +0.001 A 
ATOM     35  C   LIG    1       24.053 -22.479   7.187  0.00  0.00    +0.000 A 
ATOM     36  C   LIG    1       23.199 -23.463   6.719  0.00  0.00    +0.001 A 
ATOM     37  C   LIG    1       23.701 -24.758   6.420  0.00  0.00    +0.008 A 
ENDBRANCH  31  32
ENDBRANCH  29  30
ENDBRANCH  28  29
ENDBRANCH  26  28
ENDBRANCH   3  26
TORSDOF 12
ENDMDL
MODEL 5
REMARK VINA RESULT:      -7.4      6.553     10.887
REMARK  Name = *****
REMARK                            x       y       z     vdW  Elec       q    Type
REMARK                         _______ _______ _______ _____ _____    ______ ____
ROOT
ATOM      1  C   LIG    1       24.024 -30.276  11.642  0.00  0.00    +0.065 C 
ATOM      2  C   LIG    1       23.463 -30.252  10.234  0.00  0.00    +0.096 C 
ATOM      3  C   LIG    1       24.551 -30.577   9.189  0.00  0.00    +0.065 C 
ATOM      4  C   LIG    1       25.557 -31.411   9.552  0.00  0.00    +0.016 C 
ATOM      5  C   LIG    1       26.659 -31.913   8.664  0.00  0.00    +0.061 C 
ATOM      6  N   LIG    1       25.627 -31.835  10.872  0.00  0.00    -0.321 N 
ATOM      7  H   LIG    1       26.476 -32.338  11.118  0.00  0.00    +0.152 HD
ATOM      8  C   LIG    1       25.034 -31.126  11.909  0.00  0.00    +0.016 C 
ATOM      9  C   LIG    1       25.634 -31.361  13.258  0.00  0.00    +0.061 C 
ENDROOT
BRANCH   2  10
ATOM     10  C   LIG    1       22.307 -31.257  10.237  0.00  0.00    -0.029 A 
ATOM     11  C   LIG    1       21.069 -30.869  10.765  0.00  0.00    +0.088 A 
ATOM     12  C   LIG    1       19.952 -31.647  10.583  0.00  0.00    +0.273 A 
ATOM     13  C   LIG    1       20.077 -32.840   9.850  0.00  0.00    +0.084 A 
ATOM     14  C   LIG    1       21.353 -33.371   9.573  0.00  0.00    +0.007 A 
ATOM     15  C   LIG    1       22.454 -32.567   9.743  0.00  0.00    +0.005 A 
BRANCH  12  16
ATOM     16  N   LIG    1       18.750 -31.243  11.350  0.00  0.00    +0.080 N 
ATOM     17  O   LIG    1       17.637 -31.332  10.791  0.00  0.00    -0.576 OA
ATOM     18  O   LIG    1       18.907 -30.825  12.503  0.00  0.00    +0.041 OA
ENDBRANCH  12  16
ENDBRANCH   2  10
BRANCH   1  19
ATOM     19  C   LIG    1       23.418 -29.335  12.647  0.00  0.00    +0.338 C 
ATOM     20  O   LIG    1       22.602 -29.596  13.436  0.00  0.00    -0.245 OA
BRANCH  19  21
ATOM     21  O   LIG    1       24.020 -28.104  12.500  0.00  0.00    -0.459 OA
BRANCH  21  22
ATOM     22  C   LIG    1       24.949 -27.703  13.502  0.00  0.00    +0.260 C 
BRANCH  22  23
ATOM     23  C   LIG    1       26.322 -27.444  12.920  0.00  0.00    +0.200 C 
BRANCH  23  25
ATOM     24  C   LIG    1       27.469 -28.576  11.225  0.00  0.00    +0.194 C 
ATOM     25  O   LIG    1       26.335 -27.773  11.534  0.00  0.00    -0.380 OA
ENDBRANCH  23  25
ENDBRANCH  22  23
ENDBRANCH  21  22
ENDBRANCH  19  21
ENDBRANCH   1  19
BRANCH   3  26
ATOM     26  C   LIG    1       24.372 -30.042   7.814  0.00  0.00    +0.338 C 
ATOM     27  O   LIG    1       23.650 -30.530   6.939  0.00  0.00    -0.245 OA
BRANCH  26  28
ATOM     28  O   LIG    1       25.061 -28.891   7.692  0.00  0.00    -0.457 OA
BRANCH  28  29
ATOM     29  C   LIG    1       25.148 -28.313   6.374  0.00  0.00    +0.260 C 
BRANCH  29  30
ATOM     30  C   LIG    1       24.763 -26.855   6.402  0.00  0.00    +0.014 C 
ATOM     31  C   LIG    1       25.524 -25.754   6.599  0.00  0.00    +0.007 C 
BRANCH  31  32
ATOM     32  C   LIG    1       25.065 -24.321   6.723  0.00  0.00    -0.025 A 
ATOM     33  C   LIG    1       25.900 -23.333   7.240  0.00  0.00    +0.008 A 
ATOM     34  C   LIG    1       25.406 -22.058   7.631  0.00  0.00    +0.001 A 
ATOM     35  C   LIG    1       24.040 -21.793   7.612  0.00  0.00    +0.000 A 
ATOM     36  C   LIG    1       23.210 -22.690   6.963  0.00  0.00    +0.001 A 
ATOM     37  C   LIG    1       23.727 -23.931   6.501  0.00  0.00    +0.008 A 
ENDBRANCH  31  32
ENDBRANCH  29  30
ENDBRANCH  28  29
ENDBRANCH  26  28
ENDBRANCH   3  26
TORSDOF 12
ENDMDL
MODEL 6
REMARK VINA RESULT:      -7.1      6.340     10.623
REMARK  Name = *****
REMARK                            x       y       z     vdW  Elec       q    Type
REMARK                         _______ _______ _______ _____ _____    ______ ____
ROOT
ATOM      1  C   LIG    1       24.953 -29.579  11.746  0.00  0.00    +0.065 C 
ATOM      2  C   LIG    1       24.103 -29.579  10.491  0.00  0.00    +0.096 C 
ATOM      3  C   LIG    1       24.767 -30.395   9.362  0.00  0.00    +0.065 C 
ATOM      4  C   LIG    1       25.544 -31.451   9.709  0.00  0.00    +0.016 C 
ATOM      5  C   LIG    1       26.207 -32.414   8.767  0.00  0.00    +0.061 C 
ATOM      6  N   LIG    1       25.801 -31.676  11.054  0.00  0.00    -0.321 N 
ATOM      7  H   LIG    1       26.501 -32.389  11.246  0.00  0.00    +0.152 HD
ATOM      8  C   LIG    1       25.705 -30.666  12.003  0.00  0.00    +0.016 C 
ATOM      9  C   LIG    1       26.516 -30.884  13.241  0.00  0.00    +0.061 C 
ENDROOT
BRANCH   2  10
ATOM     10  C   LIG    1       22.741 -30.134  10.918  0.00  0.00    -0.029 A 
ATOM     11  C   LIG    1       22.011 -29.461  11.906  0.00  0.00    +0.088 A 
ATOM     12  C   LIG    1       20.700 -29.786  12.156  0.00  0.00    +0.273 A 
ATOM     13  C   LIG    1       20.104 -30.806  11.393  0.00  0.00    +0.084 A 
ATOM     14  C   LIG    1       20.903 -31.667  10.615  0.00  0.00    +0.007 A 
ATOM     15  C   LIG    1       22.206 -31.311  10.362  0.00  0.00    +0.005 A 
BRANCH  12  16
ATOM     16  N   LIG    1       20.093 -29.152  13.350  0.00  0.00    +0.080 N 
ATOM     17  O   LIG    1       19.129 -29.728  13.896  0.00  0.00    -0.576 OA
ATOM     18  O   LIG    1       20.560 -28.076  13.741  0.00  0.00    +0.041 OA
ENDBRANCH  12  16
ENDBRANCH   2  10
BRANCH   1  19
ATOM     19  C   LIG    1       24.904 -28.354  12.617  0.00  0.00    +0.338 C 
ATOM     20  O   LIG    1       24.303 -28.231  13.607  0.00  0.00    -0.245 OA
BRANCH  19  21
ATOM     21  O   LIG    1       25.726 -27.399  12.060  0.00  0.00    -0.459 OA
BRANCH  21  22
ATOM     22  C   LIG    1       27.010 -27.211  12.648  0.00  0.00    +0.260 C 
BRANCH  22  23
ATOM     23  C   LIG    1       27.014 -26.055  13.624  0.00  0.00    +0.200 C 
BRANCH  23  25
ATOM     24  C   LIG    1       25.275 -24.544  14.026  0.00  0.00    +0.194 C 
ATOM     25  O   LIG    1       26.265 -24.965  13.094  0.00  0.00    -0.380 OA
ENDBRANCH  23  25
ENDBRANCH  22  23
ENDBRANCH  21  22
ENDBRANCH  19  21
ENDBRANCH   1  19
BRANCH   3  26
ATOM     26  C   LIG    1       24.428 -30.040   7.959  0.00  0.00    +0.338 C 
ATOM     27  O   LIG    1       23.525 -30.544   7.286  0.00  0.00    -0.245 OA
BRANCH  26  28
ATOM     28  O   LIG    1       25.212 -29.020   7.557  0.00  0.00    -0.457 OA
BRANCH  28  29
ATOM     29  C   LIG    1       25.117 -28.623   6.175  0.00  0.00    +0.260 C 
BRANCH  29  30
ATOM     30  C   LIG    1       24.776 -27.158   6.060  0.00  0.00    +0.014 C 
ATOM     31  C   LIG    1       25.279 -26.089   6.719  0.00  0.00    +0.007 C 
BRANCH  31  32
ATOM     32  C   LIG    1       24.822 -24.653   6.639  0.00  0.00    -0.025 A 
ATOM     33  C   LIG    1       25.719 -23.596   6.777  0.00  0.00    +0.008 A 
ATOM     34  C   LIG    1       25.282 -22.260   6.993  0.00  0.00    +0.001 A 
ATOM     35  C   LIG    1       23.932 -21.979   7.185  0.00  0.00    +0.000 A 
ATOM     36  C   LIG    1       23.013 -22.975   6.901  0.00  0.00    +0.001 A 
ATOM     37  C   LIG    1       23.458 -24.291   6.606  0.00  0.00    +0.008 A 
ENDBRANCH  31  32
ENDBRANCH  29  30
ENDBRANCH  28  29
ENDBRANCH  26  28
ENDBRANCH   3  26
TORSDOF 12
ENDMDL
MODEL 7
REMARK VINA RESULT:      -7.0      6.972     11.432
REMARK  Name = *****
REMARK                            x       y       z     vdW  Elec       q    Type
REMARK                         _______ _______ _______ _____ _____    ______ ____
ROOT
ATOM      1  C   LIG    1       25.491 -30.449  13.074  0.00  0.00    +0.065 C 
ATOM      2  C   LIG    1       25.180 -29.582  11.870  0.00  0.00    +0.096 C 
ATOM      3  C   LIG    1       25.680 -30.234  10.563  0.00  0.00    +0.065 C 
ATOM      4  C   LIG    1       25.702 -31.588  10.492  0.00  0.00    +0.016 C 
ATOM      5  C   LIG    1       26.073 -32.409   9.291  0.00  0.00    +0.061 C 
ATOM      6  N   LIG    1       25.391 -32.320  11.629  0.00  0.00    -0.321 N 
ATOM      7  H   LIG    1       25.563 -33.320  11.559  0.00  0.00    +0.152 HD
ATOM      8  C   LIG    1       25.506 -31.785  12.907  0.00  0.00    +0.016 C 
ATOM      9  C   LIG    1       25.685 -32.792  13.998  0.00  0.00    +0.061 C 
ENDROOT
BRANCH   2  10
ATOM     10  C   LIG    1       23.664 -29.369  11.898  0.00  0.00    -0.029 A 
ATOM     11  C   LIG    1       22.843 -30.215  11.141  0.00  0.00    +0.088 A 
ATOM     12  C   LIG    1       21.480 -30.210  11.313  0.00  0.00    +0.273 A 
ATOM     13  C   LIG    1       20.927 -29.340  12.269  0.00  0.00    +0.084 A 
ATOM     14  C   LIG    1       21.705 -28.299  12.813  0.00  0.00    +0.007 A 
ATOM     15  C   LIG    1       23.068 -28.336  12.647  0.00  0.00    +0.005 A 
BRANCH  12  16
ATOM     16  N   LIG    1       20.701 -30.994  10.325  0.00  0.00    +0.080 N 
ATOM     17  O   LIG    1       21.281 -31.918   9.718  0.00  0.00    -0.576 OA
ATOM     18  O   LIG    1       19.517 -30.687  10.139  0.00  0.00    +0.041 OA
ENDBRANCH  12  16
ENDBRANCH   2  10
BRANCH   1  19
ATOM     19  C   LIG    1       25.772 -29.753  14.376  0.00  0.00    +0.338 C 
ATOM     20  O   LIG    1       25.078 -29.725  15.312  0.00  0.00    -0.245 OA
BRANCH  19  21
ATOM     21  O   LIG    1       27.018 -29.171  14.291  0.00  0.00    -0.459 OA
BRANCH  21  22
ATOM     22  C   LIG    1       28.153 -30.024  14.421  0.00  0.00    +0.260 C 
BRANCH  22  23
ATOM     23  C   LIG    1       29.249 -29.648  13.448  0.00  0.00    +0.200 C 
BRANCH  23  25
ATOM     24  C   LIG    1       30.659 -29.644  15.314  0.00  0.00    +0.194 C 
ATOM     25  O   LIG    1       30.516 -30.053  13.958  0.00  0.00    -0.380 OA
ENDBRANCH  23  25
ENDBRANCH  22  23
ENDBRANCH  21  22
ENDBRANCH  19  21
ENDBRANCH   1  19
BRANCH   3  26
ATOM     26  C   LIG    1       26.005 -29.338   9.423  0.00  0.00    +0.338 C 
ATOM     27  O   LIG    1       27.043 -28.684   9.292  0.00  0.00    -0.245 OA
BRANCH  26  28
ATOM     28  O   LIG    1       25.019 -29.410   8.507  0.00  0.00    -0.457 OA
BRANCH  28  29
ATOM     29  C   LIG    1       25.344 -29.020   7.158  0.00  0.00    +0.260 C 
BRANCH  29  30
ATOM     30  C   LIG    1       24.905 -27.602   6.890  0.00  0.00    +0.014 C 
ATOM     31  C   LIG    1       25.614 -26.450   6.901  0.00  0.00    +0.007 C 
BRANCH  31  32
ATOM     32  C   LIG    1       25.098 -25.042   6.730  0.00  0.00    -0.025 A 
ATOM     33  C   LIG    1       25.911 -23.935   6.967  0.00  0.00    +0.008 A 
ATOM     34  C   LIG    1       25.379 -22.623   7.093  0.00  0.00    +0.001 A 
ATOM     35  C   LIG    1       24.003 -22.414   7.092  0.00  0.00    +0.000 A 
ATOM     36  C   LIG    1       23.185 -23.462   6.705  0.00  0.00    +0.001 A 
ATOM     37  C   LIG    1       23.734 -24.756   6.501  0.00  0.00    +0.008 A 
ENDBRANCH  31  32
ENDBRANCH  29  30
ENDBRANCH  28  29
ENDBRANCH  26  28
ENDBRANCH   3  26
TORSDOF 12
ENDMDL
MODEL 8
REMARK VINA RESULT:      -7.0      2.621      8.081
REMARK  Name = *****
REMARK                            x       y       z     vdW  Elec       q    Type
REMARK                         _______ _______ _______ _____ _____    ______ ____
ROOT
ATOM      1  C   LIG    1       26.481 -20.903   6.826  0.00  0.00    +0.065 C 
ATOM      2  C   LIG    1       26.002 -21.543   5.537  0.00  0.00    +0.096 C 
ATOM      3  C   LIG    1       25.069 -22.740   5.816  0.00  0.00    +0.065 C 
ATOM      4  C   LIG    1       24.302 -22.705   6.934  0.00  0.00    +0.016 C 
ATOM      5  C   LIG    1       23.276 -23.724   7.340  0.00  0.00    +0.061 C 
ATOM      6  N   LIG    1       24.478 -21.660   7.831  0.00  0.00    -0.321 N 
ATOM      7  H   LIG    1       23.983 -21.761   8.714  0.00  0.00    +0.152 HD
ATOM      8  C   LIG    1       25.657 -20.929   7.891  0.00  0.00    +0.016 C 
ATOM      9  C   LIG    1       25.917 -20.258   9.202  0.00  0.00    +0.061 C 
ENDROOT
BRANCH   2  10
ATOM     10  C   LIG    1       25.325 -20.418   4.749  0.00  0.00    -0.029 A 
ATOM     11  C   LIG    1       23.931 -20.293   4.801  0.00  0.00    +0.088 A 
ATOM     12  C   LIG    1       23.306 -19.176   4.302  0.00  0.00    +0.273 A 
ATOM     13  C   LIG    1       24.097 -18.157   3.742  0.00  0.00    +0.084 A 
ATOM     14  C   LIG    1       25.449 -18.403   3.428  0.00  0.00    +0.007 A 
ATOM     15  C   LIG    1       26.058 -19.516   3.955  0.00  0.00    +0.005 A 
BRANCH  12  16
ATOM     16  N   LIG    1       21.827 -19.240   4.230  0.00  0.00    +0.080 N 
ATOM     17  O   LIG    1       21.211 -18.221   3.856  0.00  0.00    -0.576 OA
ATOM     18  O   LIG    1       21.272 -20.297   4.555  0.00  0.00    +0.041 OA
ENDBRANCH  12  16
ENDBRANCH   2  10
BRANCH   1  19
ATOM     19  C   LIG    1       27.854 -20.290   6.828  0.00  0.00    +0.338 C 
ATOM     20  O   LIG    1       28.257 -19.491   6.082  0.00  0.00    -0.245 OA
BRANCH  19  21
ATOM     21  O   LIG    1       28.555 -20.812   7.892  0.00  0.00    -0.459 OA
BRANCH  21  22
ATOM     22  C   LIG    1       29.701 -20.093   8.341  0.00  0.00    +0.260 C 
BRANCH  22  23
ATOM     23  C   LIG    1       30.837 -21.024   8.706  0.00  0.00    +0.200 C 
BRANCH  23  25
ATOM     24  C   LIG    1       31.687 -18.877   9.081  0.00  0.00    +0.194 C 
ATOM     25  O   LIG    1       31.982 -20.270   9.095  0.00  0.00    -0.380 OA
ENDBRANCH  23  25
ENDBRANCH  22  23
ENDBRANCH  21  22
ENDBRANCH  19  21
ENDBRANCH   1  19
BRANCH   3  26
ATOM     26  C   LIG    1       24.986 -23.808   4.787  0.00  0.00    +0.338 C 
ATOM     27  O   LIG    1       24.477 -23.694   3.668  0.00  0.00    -0.245 OA
BRANCH  26  28
ATOM     28  O   LIG    1       25.628 -24.906   5.234  0.00  0.00    -0.457 OA
BRANCH  28  29
ATOM     29  C   LIG    1       25.139 -26.184   4.779  0.00  0.00    +0.260 C 
BRANCH  29  30
ATOM     30  C   LIG    1       24.993 -27.143   5.934  0.00  0.00    +0.014 C 
ATOM     31  C   LIG    1       25.815 -27.382   6.982  0.00  0.00    +0.007 C 
BRANCH  31  32
ATOM     32  C   LIG    1       25.667 -28.434   8.054  0.00  0.00    -0.025 A 
ATOM     33  C   LIG    1       24.622 -29.355   8.030  0.00  0.00    +0.008 A 
ATOM     34  C   LIG    1       24.297 -30.156   9.159  0.00  0.00    +0.001 A 
ATOM     35  C   LIG    1       24.951 -29.965  10.373  0.00  0.00    +0.000 A 
ATOM     36  C   LIG    1       26.088 -29.175  10.384  0.00  0.00    +0.001 A 
ATOM     37  C   LIG    1       26.454 -28.438   9.226  0.00  0.00    +0.008 A 
ENDBRANCH  31  32
ENDBRANCH  29  30
ENDBRANCH  28  29
ENDBRANCH  26  28
ENDBRANCH   3  26
TORSDOF 12
ENDMDL
MODEL 9
REMARK VINA RESULT:      -6.9      7.228     11.270
REMARK  Name = *****
REMARK                            x       y       z     vdW  Elec       q    Type
REMARK                         _______ _______ _______ _____ _____    ______ ____
ROOT
ATOM      1  C   LIG    1       23.539 -29.199  12.381  0.00  0.00    +0.065 C 
ATOM      2  C   LIG    1       23.614 -30.351  11.399  0.00  0.00    +0.096 C 
ATOM      3  C   LIG    1       24.605 -30.052  10.255  0.00  0.00    +0.065 C 
ATOM      4  C   LIG    1       25.674 -29.262  10.526  0.00  0.00    +0.016 C 
ATOM      5  C   LIG    1       26.790 -28.921   9.581  0.00  0.00    +0.061 C 
ATOM      6  N   LIG    1       25.763 -28.667  11.777  0.00  0.00    -0.321 N 
ATOM      7  H   LIG    1       26.503 -27.976  11.875  0.00  0.00    +0.152 HD
ATOM      8  C   LIG    1       24.646 -28.458  12.577  0.00  0.00    +0.016 C 
ATOM      9  C   LIG    1       24.785 -27.358  13.581  0.00  0.00    +0.061 C 
ENDROOT
BRANCH   2  10
ATOM     10  C   LIG    1       24.004 -31.575  12.233  0.00  0.00    -0.029 A 
ATOM     11  C   LIG    1       25.220 -31.567  12.927  0.00  0.00    +0.088 A 
ATOM     12  C   LIG    1       25.504 -32.535  13.861  0.00  0.00    +0.273 A 
ATOM     13  C   LIG    1       24.543 -33.531  14.108  0.00  0.00    +0.084 A 
ATOM     14  C   LIG    1       23.463 -33.709  13.221  0.00  0.00    +0.007 A 
ATOM     15  C   LIG    1       23.186 -32.719  12.309  0.00  0.00    +0.005 A 
BRANCH  12  16
ATOM     16  N   LIG    1       26.891 -32.542  14.383  0.00  0.00    +0.080 N 
ATOM     17  O   LIG    1       27.532 -31.472  14.366  0.00  0.00    -0.576 OA
ATOM     18  O   LIG    1       27.352 -33.613  14.798  0.00  0.00    +0.041 OA
ENDBRANCH  12  16
ENDBRANCH   2  10
BRANCH   1  19
ATOM     19  C   LIG    1       22.222 -28.955  13.065  0.00  0.00    +0.338 C 
ATOM     20  O   LIG    1       21.794 -29.542  13.976  0.00  0.00    -0.245 OA
BRANCH  19  21
ATOM     21  O   LIG    1       21.610 -27.885  12.449  0.00  0.00    -0.459 OA
BRANCH  21  22
ATOM     22  C   LIG    1       21.220 -26.788  13.270  0.00  0.00    +0.260 C 
BRANCH  22  23
ATOM     23  C   LIG    1       19.759 -26.442  13.084  0.00  0.00    +0.200 C 
BRANCH  23  25
ATOM     24  C   LIG    1       18.638 -27.598  14.781  0.00  0.00    +0.194 C 
ATOM     25  O   LIG    1       19.118 -26.328  14.352  0.00  0.00    -0.380 OA
ENDBRANCH  23  25
ENDBRANCH  22  23
ENDBRANCH  21  22
ENDBRANCH  19  21
ENDBRANCH   1  19
BRANCH   3  26
ATOM     26  C   LIG    1       24.388 -30.735   8.954  0.00  0.00    +0.338 C 
ATOM     27  O   LIG    1       24.712 -31.896   8.686  0.00  0.00    -0.245 OA
BRANCH  26  28
ATOM     28  O   LIG    1       23.706 -29.915   8.130  0.00  0.00    -0.457 OA
BRANCH  28  29
ATOM     29  C   LIG    1       24.386 -29.463   6.942  0.00  0.00    +0.260 C 
BRANCH  29  30
ATOM     30  C   LIG    1       24.230 -27.972   6.769  0.00  0.00    +0.014 C 
ATOM     31  C   LIG    1       25.163 -27.013   6.571  0.00  0.00    +0.007 C 
BRANCH  31  32
ATOM     32  C   LIG    1       24.958 -25.519   6.512  0.00  0.00    -0.025 A 
ATOM     33  C   LIG    1       26.000 -24.631   6.772  0.00  0.00    +0.008 A 
ATOM     34  C   LIG    1       25.770 -23.248   7.004  0.00  0.00    +0.001 A 
ATOM     35  C   LIG    1       24.473 -22.750   7.088  0.00  0.00    +0.000 A 
ATOM     36  C   LIG    1       23.433 -23.569   6.683  0.00  0.00    +0.001 A 
ATOM     37  C   LIG    1       23.681 -24.933   6.374  0.00  0.00    +0.008 A 
ENDBRANCH  31  32
ENDBRANCH  29  30
ENDBRANCH  28  29
ENDBRANCH  26  28
ENDBRANCH   3  26
TORSDOF 12
ENDMDL
