MODEL 1
REMARK VINA RESULT:      -9.6      0.000      0.000
REMARK  Name = *****
REMARK                            x       y       z     vdW  Elec       q    Type
REMARK                         _______ _______ _______ _____ _____    ______ ____
ROOT
ATOM      1  C   LIG    1       23.569 -19.544   4.385  0.00  0.00    +0.007 C 
ENDROOT
BRANCH   1   2
ATOM      2  C   LIG    1       24.899 -20.250   4.109  0.00  0.00    +0.041 C 
BRANCH   2   3
ATOM      3  C   LIG    1       25.864 -20.242   5.289  0.00  0.00    +0.229 C 
BRANCH   3   4
ATOM      4  O   LIG    1       27.055 -19.545   4.929  0.00  0.00    -0.492 OA
BRANCH   4   8
ATOM      5  C   LIG    1       30.165 -20.291   7.606  0.00  0.00    +0.065 A 
ATOM      6  C   LIG    1       30.289 -19.222   6.713  0.00  0.00    +0.019 A 
ATOM      7  C   LIG    1       29.266 -18.938   5.802  0.00  0.00    +0.046 A 
ATOM      8  C   LIG    1       28.121 -19.732   5.767  0.00  0.00    +0.120 A 
ATOM      9  C   LIG    1       27.988 -20.788   6.673  0.00  0.00    +0.046 A 
ATOM     10  C   LIG    1       29.007 -21.073   7.588  0.00  0.00    +0.019 A 
BRANCH   5  13
ATOM     11  N   LIG    1       31.841 -19.612   9.187  0.00  0.00    -0.099 NA
ATOM     12  H   LIG    1       32.613 -19.969   9.755  0.00  0.00    +0.363 HD
ATOM     13  C   LIG    1       31.283 -20.584   8.551  0.00  0.00    +0.308 C 
BRANCH  13  14
ATOM     14  N   LIG    1       31.708 -21.869   8.756  0.00  0.00    -0.247 N 
ATOM     15  H   LIG    1       32.317 -22.268   8.052  0.00  0.00    +0.288 HD
ATOM     16  H   LIG    1       30.998 -22.523   9.063  0.00  0.00    +0.288 HD
ENDBRANCH  13  14
ENDBRANCH   5  13
ENDBRANCH   4   8
ENDBRANCH   3   4
ENDBRANCH   2   3
ENDBRANCH   1   2
BRANCH   1  17
ATOM     17  C   LIG    1       22.950 -20.001   5.713  0.00  0.00    +0.041 C 
BRANCH  17  18
ATOM     18  C   LIG    1       22.566 -21.483   5.732  0.00  0.00    +0.229 C 
BRANCH  18  19
ATOM     19  O   LIG    1       23.030 -22.047   6.959  0.00  0.00    -0.492 OA
BRANCH  19  20
ATOM     20  C   LIG    1       23.882 -23.110   6.865  0.00  0.00    +0.120 A 
ATOM     21  C   LIG    1       25.242 -23.091   7.169  0.00  0.00    +0.046 A 
ATOM     22  C   LIG    1       26.011 -24.252   7.017  0.00  0.00    +0.019 A 
ATOM     23  C   LIG    1       25.417 -25.440   6.570  0.00  0.00    +0.065 A 
ATOM     24  C   LIG    1       24.049 -25.462   6.293  0.00  0.00    +0.019 A 
ATOM     25  C   LIG    1       23.288 -24.305   6.449  0.00  0.00    +0.046 A 
BRANCH  23  26
ATOM     26  C   LIG    1       26.243 -26.669   6.419  0.00  0.00    +0.308 C 
ATOM     27  N   LIG    1       27.162 -26.793   5.504  0.00  0.00    -0.099 NA
ATOM     28  H   LIG    1       27.266 -25.938   4.961  0.00  0.00    +0.363 HD
BRANCH  26  29
ATOM     29  N   LIG    1       26.064 -27.738   7.239  0.00  0.00    -0.247 N 
ATOM     30  H   LIG    1       26.002 -28.597   6.697  0.00  0.00    +0.288 HD
ATOM     31  H   LIG    1       25.312 -27.655   7.914  0.00  0.00    +0.288 HD
ENDBRANCH  26  29
ENDBRANCH  23  26
ENDBRANCH  19  20
ENDBRANCH  18  19
ENDBRANCH  17  18
ENDBRANCH   1  17
TORSDOF 12
ENDMDL
MODEL 2
REMARK VINA RESULT:      -9.4      0.420      6.474
REMARK  Name = *****
REMARK                            x       y       z     vdW  Elec       q    Type
REMARK                         _______ _______ _______ _____ _____    ______ ____
ROOT
ATOM      1  C   LIG    1       23.459 -20.043   4.410  0.00  0.00    +0.007 C 
ENDROOT
BRANCH   1   2
ATOM      2  C   LIG    1       23.303 -20.281   5.915  0.00  0.00    +0.041 C 
BRANCH   2   3
ATOM      3  C   LIG    1       22.703 -21.636   6.271  0.00  0.00    +0.229 C 
BRANCH   3   4
ATOM      4  O   LIG    1       23.440 -22.220   7.342  0.00  0.00    -0.492 OA
BRANCH   4   8
ATOM      5  C   LIG    1       25.412 -25.750   6.315  0.00  0.00    +0.065 A 
ATOM      6  C   LIG    1       26.160 -24.687   6.832  0.00  0.00    +0.019 A 
ATOM      7  C   LIG    1       25.535 -23.488   7.190  0.00  0.00    +0.046 A 
ATOM      8  C   LIG    1       24.160 -23.339   7.019  0.00  0.00    +0.120 A 
ATOM      9  C   LIG    1       23.408 -24.407   6.522  0.00  0.00    +0.046 A 
ATOM     10  C   LIG    1       24.029 -25.609   6.165  0.00  0.00    +0.019 A 
BRANCH   5  13
ATOM     11  N   LIG    1       27.275 -26.937   5.373  0.00  0.00    -0.099 NA
ATOM     12  H   LIG    1       27.596 -27.873   5.120  0.00  0.00    +0.363 HD
ATOM     13  C   LIG    1       26.109 -27.008   5.918  0.00  0.00    +0.308 C 
BRANCH  13  14
ATOM     14  N   LIG    1       25.532 -28.229   6.139  0.00  0.00    -0.247 N 
ATOM     15  H   LIG    1       24.555 -28.231   6.409  0.00  0.00    +0.288 HD
ATOM     16  H   LIG    1       26.081 -28.882   6.683  0.00  0.00    +0.288 HD
ENDBRANCH  13  14
ENDBRANCH   5  13
ENDBRANCH   4   8
ENDBRANCH   3   4
ENDBRANCH   2   3
ENDBRANCH   1   2
BRANCH   1  17
ATOM     17  C   LIG    1       24.936 -20.020   3.991  0.00  0.00    +0.041 C 
BRANCH  17  18
ATOM     18  C   LIG    1       25.904 -20.280   5.148  0.00  0.00    +0.229 C 
BRANCH  18  19
ATOM     19  O   LIG    1       27.042 -19.435   4.975  0.00  0.00    -0.492 OA
BRANCH  19  20
ATOM     20  C   LIG    1       28.103 -19.651   5.805  0.00  0.00    +0.120 A 
ATOM     21  C   LIG    1       29.267 -18.886   5.852  0.00  0.00    +0.046 A 
ATOM     22  C   LIG    1       30.293 -19.223   6.746  0.00  0.00    +0.019 A 
ATOM     23  C   LIG    1       30.150 -20.323   7.602  0.00  0.00    +0.065 A 
ATOM     24  C   LIG    1       28.972 -21.071   7.571  0.00  0.00    +0.019 A 
ATOM     25  C   LIG    1       27.954 -20.728   6.683  0.00  0.00    +0.046 A 
BRANCH  23  26
ATOM     26  C   LIG    1       31.244 -20.669   8.551  0.00  0.00    +0.308 C 
ATOM     27  N   LIG    1       31.900 -19.770   9.229  0.00  0.00    -0.099 NA
ATOM     28  H   LIG    1       31.533 -18.835   9.062  0.00  0.00    +0.363 HD
BRANCH  26  29
ATOM     29  N   LIG    1       31.617 -21.960   8.748  0.00  0.00    -0.247 N 
ATOM     30  H   LIG    1       32.380 -22.013   9.420  0.00  0.00    +0.288 HD
ATOM     31  H   LIG    1       31.806 -22.498   7.910  0.00  0.00    +0.288 HD
ENDBRANCH  26  29
ENDBRANCH  23  26
ENDBRANCH  19  20
ENDBRANCH  18  19
ENDBRANCH  17  18
ENDBRANCH   1  17
TORSDOF 12
ENDMDL
MODEL 3
REMARK VINA RESULT:      -8.8      1.233      1.727
REMARK  Name = *****
REMARK                            x       y       z     vdW  Elec       q    Type
REMARK                         _______ _______ _______ _____ _____    ______ ____
ROOT
ATOM      1  C   LIG    1       23.439 -20.568   5.569  0.00  0.00    +0.007 C 
ENDROOT
BRANCH   1   2
ATOM      2  C   LIG    1       24.553 -20.015   4.676  0.00  0.00    +0.041 C 
BRANCH   2   3
ATOM      3  C   LIG    1       25.932 -20.594   4.972  0.00  0.00    +0.229 C 
BRANCH   3   4
ATOM      4  O   LIG    1       26.896 -19.544   5.005  0.00  0.00    -0.492 OA
BRANCH   4   8
ATOM      5  C   LIG    1       30.035 -20.375   7.623  0.00  0.00    +0.065 A 
ATOM      6  C   LIG    1       30.168 -19.306   6.732  0.00  0.00    +0.019 A 
ATOM      7  C   LIG    1       29.137 -18.994   5.840  0.00  0.00    +0.046 A 
ATOM      8  C   LIG    1       27.972 -19.760   5.823  0.00  0.00    +0.120 A 
ATOM      9  C   LIG    1       27.830 -20.816   6.727  0.00  0.00    +0.046 A 
ATOM     10  C   LIG    1       28.858 -21.129   7.622  0.00  0.00    +0.019 A 
BRANCH   5  13
ATOM     11  N   LIG    1       31.750 -19.744   9.181  0.00  0.00    -0.099 NA
ATOM     12  H   LIG    1       32.524 -20.121   9.733  0.00  0.00    +0.363 HD
ATOM     13  C   LIG    1       31.162 -20.699   8.546  0.00  0.00    +0.308 C 
BRANCH  13  14
ATOM     14  N   LIG    1       31.565 -21.994   8.733  0.00  0.00    -0.247 N 
ATOM     15  H   LIG    1       31.707 -22.296   9.690  0.00  0.00    +0.288 HD
ATOM     16  H   LIG    1       32.299 -22.319   8.116  0.00  0.00    +0.288 HD
ENDBRANCH  13  14
ENDBRANCH   5  13
ENDBRANCH   4   8
ENDBRANCH   3   4
ENDBRANCH   2   3
ENDBRANCH   1   2
BRANCH   1  17
ATOM     17  C   LIG    1       23.931 -20.811   7.003  0.00  0.00    +0.041 C 
BRANCH  17  18
ATOM     18  C   LIG    1       23.814 -22.271   7.451  0.00  0.00    +0.229 C 
BRANCH  18  19
ATOM     19  O   LIG    1       25.020 -22.944   7.091  0.00  0.00    -0.492 OA
BRANCH  19  20
ATOM     20  C   LIG    1       24.903 -24.240   6.676  0.00  0.00    +0.120 A 
ATOM     21  C   LIG    1       23.823 -24.773   5.974  0.00  0.00    +0.046 A 
ATOM     22  C   LIG    1       23.819 -26.128   5.616  0.00  0.00    +0.019 A 
ATOM     23  C   LIG    1       24.903 -26.950   5.953  0.00  0.00    +0.065 A 
ATOM     24  C   LIG    1       25.995 -26.406   6.632  0.00  0.00    +0.019 A 
ATOM     25  C   LIG    1       25.994 -25.057   6.982  0.00  0.00    +0.046 A 
BRANCH  23  26
ATOM     26  C   LIG    1       24.891 -28.387   5.563  0.00  0.00    +0.308 C 
ATOM     27  N   LIG    1       25.979 -29.092   5.433  0.00  0.00    -0.099 NA
ATOM     28  H   LIG    1       26.806 -28.551   5.680  0.00  0.00    +0.363 HD
BRANCH  26  29
ATOM     29  N   LIG    1       23.723 -29.034   5.313  0.00  0.00    -0.247 N 
ATOM     30  H   LIG    1       23.820 -29.648   4.507  0.00  0.00    +0.288 HD
ATOM     31  H   LIG    1       22.898 -28.448   5.251  0.00  0.00    +0.288 HD
ENDBRANCH  26  29
ENDBRANCH  23  26
ENDBRANCH  19  20
ENDBRANCH  18  19
ENDBRANCH  17  18
ENDBRANCH   1  17
TORSDOF 12
ENDMDL
MODEL 4
REMARK VINA RESULT:      -8.5      1.351      7.015
REMARK  Name = *****
REMARK                            x       y       z     vdW  Elec       q    Type
REMARK                         _______ _______ _______ _____ _____    ______ ____
ROOT
ATOM      1  C   LIG    1       22.878 -20.345   5.372  0.00  0.00    +0.007 C 
ENDROOT
BRANCH   1   2
ATOM      2  C   LIG    1       23.299 -20.320   6.844  0.00  0.00    +0.041 C 
BRANCH   2   3
ATOM      3  C   LIG    1       23.282 -21.687   7.518  0.00  0.00    +0.229 C 
BRANCH   3   4
ATOM      4  O   LIG    1       24.580 -22.273   7.446  0.00  0.00    -0.492 OA
BRANCH   4   8
ATOM      5  C   LIG    1       24.951 -26.186   6.050  0.00  0.00    +0.065 A 
ATOM      6  C   LIG    1       23.687 -25.589   6.048  0.00  0.00    +0.019 A 
ATOM      7  C   LIG    1       23.521 -24.277   6.506  0.00  0.00    +0.046 A 
ATOM      8  C   LIG    1       24.619 -23.561   6.984  0.00  0.00    +0.120 A 
ATOM      9  C   LIG    1       25.885 -24.150   6.967  0.00  0.00    +0.046 A 
ATOM     10  C   LIG    1       26.055 -25.460   6.507  0.00  0.00    +0.019 A 
BRANCH   5  13
ATOM     11  N   LIG    1       24.034 -28.310   5.406  0.00  0.00    -0.099 NA
ATOM     12  H   LIG    1       24.298 -29.257   5.127  0.00  0.00    +0.363 HD
ATOM     13  C   LIG    1       25.092 -27.595   5.578  0.00  0.00    +0.308 C 
BRANCH  13  14
ATOM     14  N   LIG    1       26.326 -28.126   5.315  0.00  0.00    -0.247 N 
ATOM     15  H   LIG    1       27.123 -27.511   5.431  0.00  0.00    +0.288 HD
ATOM     16  H   LIG    1       26.393 -28.685   4.473  0.00  0.00    +0.288 HD
ENDBRANCH  13  14
ENDBRANCH   5  13
ENDBRANCH   4   8
ENDBRANCH   3   4
ENDBRANCH   2   3
ENDBRANCH   1   2
BRANCH   1  17
ATOM     17  C   LIG    1       24.065 -20.659   4.450  0.00  0.00    +0.041 C 
BRANCH  17  18
ATOM     18  C   LIG    1       25.340 -19.894   4.812  0.00  0.00    +0.229 C 
BRANCH  18  19
ATOM     19  O   LIG    1       26.272 -20.821   5.369  0.00  0.00    -0.492 OA
BRANCH  19  20
ATOM     20  C   LIG    1       27.303 -20.297   6.095  0.00  0.00    +0.120 A 
ATOM     21  C   LIG    1       27.542 -20.527   7.449  0.00  0.00    +0.046 A 
ATOM     22  C   LIG    1       28.633 -19.916   8.083  0.00  0.00    +0.019 A 
ATOM     23  C   LIG    1       29.493 -19.081   7.358  0.00  0.00    +0.065 A 
ATOM     24  C   LIG    1       29.266 -18.876   5.996  0.00  0.00    +0.019 A 
ATOM     25  C   LIG    1       28.182 -19.488   5.371  0.00  0.00    +0.046 A 
BRANCH  23  26
ATOM     26  C   LIG    1       30.653 -18.442   8.039  0.00  0.00    +0.308 C 
ATOM     27  N   LIG    1       31.887 -18.664   7.689  0.00  0.00    -0.099 NA
ATOM     28  H   LIG    1       31.940 -19.275   6.875  0.00  0.00    +0.363 HD
BRANCH  26  29
ATOM     29  N   LIG    1       30.468 -17.591   9.082  0.00  0.00    -0.247 N 
ATOM     30  H   LIG    1       31.351 -17.167   9.356  0.00  0.00    +0.288 HD
ATOM     31  H   LIG    1       29.960 -17.967   9.875  0.00  0.00    +0.288 HD
ENDBRANCH  26  29
ENDBRANCH  23  26
ENDBRANCH  19  20
ENDBRANCH  18  19
ENDBRANCH  17  18
ENDBRANCH   1  17
TORSDOF 12
ENDMDL
MODEL 5
REMARK VINA RESULT:      -8.5      2.506      7.604
REMARK  Name = *****
REMARK                            x       y       z     vdW  Elec       q    Type
REMARK                         _______ _______ _______ _____ _____    ______ ____
ROOT
ATOM      1  C   LIG    1       23.381 -24.353   6.580  0.00  0.00    +0.007 C 
ENDROOT
BRANCH   1   2
ATOM      2  C   LIG    1       24.727 -24.036   5.922  0.00  0.00    +0.041 C 
BRANCH   2   3
ATOM      3  C   LIG    1       25.935 -24.537   6.704  0.00  0.00    +0.229 C 
BRANCH   3   4
ATOM      4  O   LIG    1       26.569 -25.592   5.984  0.00  0.00    -0.492 OA
BRANCH   4   8
ATOM      5  C   LIG    1       24.766 -29.321   6.473  0.00  0.00    +0.065 A 
ATOM      6  C   LIG    1       24.840 -28.773   5.189  0.00  0.00    +0.019 A 
ATOM      7  C   LIG    1       25.440 -27.526   4.983  0.00  0.00    +0.046 A 
ATOM      8  C   LIG    1       25.954 -26.811   6.065  0.00  0.00    +0.120 A 
ATOM      9  C   LIG    1       25.898 -27.367   7.345  0.00  0.00    +0.046 A 
ATOM     10  C   LIG    1       25.302 -28.615   7.555  0.00  0.00    +0.019 A 
BRANCH   5  13
ATOM     11  N   LIG    1       23.484 -31.187   5.672  0.00  0.00    -0.099 NA
ATOM     12  H   LIG    1       23.045 -32.059   5.974  0.00  0.00    +0.363 HD
ATOM     13  C   LIG    1       24.099 -30.642   6.665  0.00  0.00    +0.308 C 
BRANCH  13  14
ATOM     14  N   LIG    1       24.145 -31.281   7.874  0.00  0.00    -0.247 N 
ATOM     15  H   LIG    1       24.329 -30.708   8.689  0.00  0.00    +0.288 HD
ATOM     16  H   LIG    1       24.666 -32.149   7.892  0.00  0.00    +0.288 HD
ENDBRANCH  13  14
ENDBRANCH   5  13
ENDBRANCH   4   8
ENDBRANCH   3   4
ENDBRANCH   2   3
ENDBRANCH   1   2
BRANCH   1  17
ATOM     17  C   LIG    1       22.575 -23.077   6.862  0.00  0.00    +0.041 C 
BRANCH  17  18
ATOM     18  C   LIG    1       23.115 -21.840   6.140  0.00  0.00    +0.229 C 
BRANCH  18  19
ATOM     19  O   LIG    1       23.588 -20.922   7.125  0.00  0.00    -0.492 OA
BRANCH  19  20
ATOM     20  C   LIG    1       24.936 -20.714   7.178  0.00  0.00    +0.120 A 
ATOM     21  C   LIG    1       25.713 -20.701   8.335  0.00  0.00    +0.046 A 
ATOM     22  C   LIG    1       27.091 -20.463   8.253  0.00  0.00    +0.019 A 
ATOM     23  C   LIG    1       27.697 -20.246   7.009  0.00  0.00    +0.065 A 
ATOM     24  C   LIG    1       26.921 -20.286   5.849  0.00  0.00    +0.019 A 
ATOM     25  C   LIG    1       25.551 -20.527   5.937  0.00  0.00    +0.046 A 
BRANCH  23  26
ATOM     26  C   LIG    1       29.164 -19.999   6.933  0.00  0.00    +0.308 C 
ATOM     27  N   LIG    1       30.047 -20.868   7.335  0.00  0.00    -0.099 NA
ATOM     28  H   LIG    1       29.606 -21.731   7.648  0.00  0.00    +0.363 HD
BRANCH  26  29
ATOM     29  N   LIG    1       29.652 -18.830   6.440  0.00  0.00    -0.247 N 
ATOM     30  H   LIG    1       28.983 -18.077   6.581  0.00  0.00    +0.288 HD
ATOM     31  H   LIG    1       29.999 -18.864   5.488  0.00  0.00    +0.288 HD
ENDBRANCH  26  29
ENDBRANCH  23  26
ENDBRANCH  19  20
ENDBRANCH  18  19
ENDBRANCH  17  18
ENDBRANCH   1  17
TORSDOF 12
ENDMDL
MODEL 6
REMARK VINA RESULT:      -8.4      3.103      9.109
REMARK  Name = *****
REMARK                            x       y       z     vdW  Elec       q    Type
REMARK                         _______ _______ _______ _____ _____    ______ ____
ROOT
ATOM      1  C   LIG    1       28.062 -20.866   7.723  0.00  0.00    +0.007 C 
ENDROOT
BRANCH   1   2
ATOM      2  C   LIG    1       26.650 -20.316   7.945  0.00  0.00    +0.041 C 
BRANCH   2   3
ATOM      3  C   LIG    1       25.604 -21.386   8.235  0.00  0.00    +0.229 C 
BRANCH   3   4
ATOM      4  O   LIG    1       25.034 -21.843   7.011  0.00  0.00    -0.492 OA
BRANCH   4   8
ATOM      5  C   LIG    1       24.820 -25.971   6.449  0.00  0.00    +0.065 A 
ATOM      6  C   LIG    1       26.066 -25.392   6.710  0.00  0.00    +0.019 A 
ATOM      7  C   LIG    1       26.178 -24.011   6.907  0.00  0.00    +0.046 A 
ATOM      8  C   LIG    1       25.047 -23.200   6.827  0.00  0.00    +0.120 A 
ATOM      9  C   LIG    1       23.800 -23.780   6.586  0.00  0.00    +0.046 A 
ATOM     10  C   LIG    1       23.682 -25.161   6.391  0.00  0.00    +0.019 A 
BRANCH   5  13
ATOM     11  N   LIG    1       25.443 -28.236   6.948  0.00  0.00    -0.099 NA
ATOM     12  H   LIG    1       25.309 -29.201   6.639  0.00  0.00    +0.363 HD
ATOM     13  C   LIG    1       24.735 -27.443   6.219  0.00  0.00    +0.308 C 
BRANCH  13  14
ATOM     14  N   LIG    1       23.907 -27.955   5.257  0.00  0.00    -0.247 N 
ATOM     15  H   LIG    1       23.373 -28.780   5.504  0.00  0.00    +0.288 HD
ATOM     16  H   LIG    1       24.302 -28.020   4.327  0.00  0.00    +0.288 HD
ENDBRANCH  13  14
ENDBRANCH   5  13
ENDBRANCH   4   8
ENDBRANCH   3   4
ENDBRANCH   2   3
ENDBRANCH   1   2
BRANCH   1  17
ATOM     17  C   LIG    1       28.929 -19.888   6.917  0.00  0.00    +0.041 C 
BRANCH  17  18
ATOM     18  C   LIG    1       30.299 -19.623   7.547  0.00  0.00    +0.229 C 
BRANCH  18  19
ATOM     19  O   LIG    1       30.495 -18.210   7.609  0.00  0.00    -0.492 OA
BRANCH  19  20
ATOM     20  C   LIG    1       30.963 -17.704   8.787  0.00  0.00    +0.120 A 
ATOM     21  C   LIG    1       32.205 -17.100   8.975  0.00  0.00    +0.046 A 
ATOM     22  C   LIG    1       32.573 -16.631  10.243  0.00  0.00    +0.019 A 
ATOM     23  C   LIG    1       31.693 -16.758  11.325  0.00  0.00    +0.065 A 
ATOM     24  C   LIG    1       30.439 -17.340  11.127  0.00  0.00    +0.019 A 
ATOM     25  C   LIG    1       30.078 -17.801   9.863  0.00  0.00    +0.046 A 
BRANCH  23  26
ATOM     26  C   LIG    1       32.092 -16.252  12.668  0.00  0.00    +0.308 C 
ATOM     27  N   LIG    1       31.587 -15.172  13.192  0.00  0.00    -0.099 NA
ATOM     28  H   LIG    1       30.867 -14.768  12.596  0.00  0.00    +0.363 HD
BRANCH  26  29
ATOM     29  N   LIG    1       33.023 -16.903  13.412  0.00  0.00    -0.247 N 
ATOM     30  H   LIG    1       33.037 -17.893  13.180  0.00  0.00    +0.288 HD
ATOM     31  H   LIG    1       32.979 -16.743  14.412  0.00  0.00    +0.288 HD
ENDBRANCH  26  29
ENDBRANCH  23  26
ENDBRANCH  19  20
ENDBRANCH  18  19
ENDBRANCH  17  18
ENDBRANCH   1  17
TORSDOF 12
ENDMDL
MODEL 7
REMARK VINA RESULT:      -8.4      2.435      3.989
REMARK  Name = *****
REMARK                            x       y       z     vdW  Elec       q    Type
REMARK                         _______ _______ _______ _____ _____    ______ ____
ROOT
ATOM      1  C   LIG    1       23.380 -24.339   6.582  0.00  0.00    +0.007 C 
ENDROOT
BRANCH   1   2
ATOM      2  C   LIG    1       22.654 -23.047   6.971  0.00  0.00    +0.041 C 
BRANCH   2   3
ATOM      3  C   LIG    1       23.055 -21.834   6.141  0.00  0.00    +0.229 C 
BRANCH   3   4
ATOM      4  O   LIG    1       23.605 -20.831   6.993  0.00  0.00    -0.492 OA
BRANCH   4   8
ATOM      5  C   LIG    1       27.744 -20.317   6.984  0.00  0.00    +0.065 A 
ATOM      6  C   LIG    1       27.059 -20.275   5.766  0.00  0.00    +0.019 A 
ATOM      7  C   LIG    1       25.671 -20.441   5.727  0.00  0.00    +0.046 A 
ATOM      8  C   LIG    1       24.961 -20.666   6.907  0.00  0.00    +0.120 A 
ATOM      9  C   LIG    1       25.642 -20.687   8.126  0.00  0.00    +0.046 A 
ATOM     10  C   LIG    1       27.030 -20.519   8.169  0.00  0.00    +0.019 A 
BRANCH   5  13
ATOM     11  N   LIG    1       29.759 -19.150   6.395  0.00  0.00    -0.099 NA
ATOM     12  H   LIG    1       30.777 -19.210   6.450  0.00  0.00    +0.363 HD
ATOM     13  C   LIG    1       29.229 -20.162   6.992  0.00  0.00    +0.308 C 
BRANCH  13  14
ATOM     14  N   LIG    1       30.025 -21.070   7.634  0.00  0.00    -0.247 N 
ATOM     15  H   LIG    1       30.259 -20.873   8.600  0.00  0.00    +0.288 HD
ATOM     16  H   LIG    1       30.824 -21.403   7.108  0.00  0.00    +0.288 HD
ENDBRANCH  13  14
ENDBRANCH   5  13
ENDBRANCH   4   8
ENDBRANCH   3   4
ENDBRANCH   2   3
ENDBRANCH   1   2
BRANCH   1  17
ATOM     17  C   LIG    1       24.700 -24.048   5.854  0.00  0.00    +0.041 C 
BRANCH  17  18
ATOM     18  C   LIG    1       25.943 -24.408   6.672  0.00  0.00    +0.229 C 
BRANCH  18  19
ATOM     19  O   LIG    1       26.611 -25.485   6.015  0.00  0.00    -0.492 OA
BRANCH  19  20
ATOM     20  C   LIG    1       26.096 -26.735   6.200  0.00  0.00    +0.120 A 
ATOM     21  C   LIG    1       25.886 -27.354   7.431  0.00  0.00    +0.046 A 
ATOM     22  C   LIG    1       25.360 -28.652   7.484  0.00  0.00    +0.019 A 
ATOM     23  C   LIG    1       25.035 -29.330   6.302  0.00  0.00    +0.065 A 
ATOM     24  C   LIG    1       25.221 -28.697   5.072  0.00  0.00    +0.019 A 
ATOM     25  C   LIG    1       25.741 -27.405   5.026  0.00  0.00    +0.046 A 
BRANCH  23  26
ATOM     26  C   LIG    1       24.471 -30.707   6.371  0.00  0.00    +0.308 C 
ATOM     27  N   LIG    1       23.373 -31.050   5.762  0.00  0.00    -0.099 NA
ATOM     28  H   LIG    1       22.996 -30.282   5.208  0.00  0.00    +0.363 HD
BRANCH  26  29
ATOM     29  N   LIG    1       25.087 -31.679   7.092  0.00  0.00    -0.247 N 
ATOM     30  H   LIG    1       25.117 -32.549   6.566  0.00  0.00    +0.288 HD
ATOM     31  H   LIG    1       24.743 -31.813   8.036  0.00  0.00    +0.288 HD
ENDBRANCH  26  29
ENDBRANCH  23  26
ENDBRANCH  19  20
ENDBRANCH  18  19
ENDBRANCH  17  18
ENDBRANCH   1  17
TORSDOF 12
ENDMDL
MODEL 8
REMARK VINA RESULT:      -8.3      1.630      2.523
REMARK  Name = *****
REMARK                            x       y       z     vdW  Elec       q    Type
REMARK                         _______ _______ _______ _____ _____    ______ ____
ROOT
ATOM      1  C   LIG    1       24.004 -20.958   6.878  0.00  0.00    +0.007 C 
ENDROOT
BRANCH   1   2
ATOM      2  C   LIG    1       24.397 -20.314   5.546  0.00  0.00    +0.041 C 
BRANCH   2   3
ATOM      3  C   LIG    1       25.761 -20.749   5.023  0.00  0.00    +0.229 C 
BRANCH   3   4
ATOM      4  O   LIG    1       26.708 -19.702   5.225  0.00  0.00    -0.492 OA
BRANCH   4   8
ATOM      5  C   LIG    1       30.016 -20.462   7.650  0.00  0.00    +0.065 A 
ATOM      6  C   LIG    1       28.855 -21.217   7.841  0.00  0.00    +0.019 A 
ATOM      7  C   LIG    1       27.725 -20.994   7.047  0.00  0.00    +0.046 A 
ATOM      8  C   LIG    1       27.745 -20.002   6.066  0.00  0.00    +0.120 A 
ATOM      9  C   LIG    1       28.912 -19.261   5.861  0.00  0.00    +0.046 A 
ATOM     10  C   LIG    1       30.045 -19.483   6.652  0.00  0.00    +0.019 A 
BRANCH   5  13
ATOM     11  N   LIG    1       31.718 -19.718   9.172  0.00  0.00    -0.099 NA
ATOM     12  H   LIG    1       32.540 -20.037   9.689  0.00  0.00    +0.363 HD
ATOM     13  C   LIG    1       31.197 -20.706   8.529  0.00  0.00    +0.308 C 
BRANCH  13  14
ATOM     14  N   LIG    1       31.720 -21.963   8.667  0.00  0.00    -0.247 N 
ATOM     15  H   LIG    1       31.423 -22.496   9.476  0.00  0.00    +0.288 HD
ATOM     16  H   LIG    1       32.715 -22.046   8.498  0.00  0.00    +0.288 HD
ENDBRANCH  13  14
ENDBRANCH   5  13
ENDBRANCH   4   8
ENDBRANCH   3   4
ENDBRANCH   2   3
ENDBRANCH   1   2
BRANCH   1  17
ATOM     17  C   LIG    1       23.805 -22.474   6.736  0.00  0.00    +0.041 C 
BRANCH  17  18
ATOM     18  C   LIG    1       25.020 -23.295   7.178  0.00  0.00    +0.229 C 
BRANCH  18  19
ATOM     19  O   LIG    1       25.458 -24.075   6.065  0.00  0.00    -0.492 OA
BRANCH  19  20
ATOM     20  C   LIG    1       25.325 -25.429   6.171  0.00  0.00    +0.120 A 
ATOM     21  C   LIG    1       25.957 -26.237   7.115  0.00  0.00    +0.046 A 
ATOM     22  C   LIG    1       25.745 -27.622   7.108  0.00  0.00    +0.019 A 
ATOM     23  C   LIG    1       24.891 -28.201   6.160  0.00  0.00    +0.065 A 
ATOM     24  C   LIG    1       24.239 -27.386   5.234  0.00  0.00    +0.019 A 
ATOM     25  C   LIG    1       24.451 -26.008   5.248  0.00  0.00    +0.046 A 
BRANCH  23  26
ATOM     26  C   LIG    1       24.669 -29.673   6.166  0.00  0.00    +0.308 C 
ATOM     27  N   LIG    1       23.527 -30.215   5.850  0.00  0.00    -0.099 NA
ATOM     28  H   LIG    1       22.848 -29.514   5.558  0.00  0.00    +0.363 HD
BRANCH  26  29
ATOM     29  N   LIG    1       25.664 -30.530   6.515  0.00  0.00    -0.247 N 
ATOM     30  H   LIG    1       26.165 -30.181   7.329  0.00  0.00    +0.288 HD
ATOM     31  H   LIG    1       26.291 -30.805   5.768  0.00  0.00    +0.288 HD
ENDBRANCH  26  29
ENDBRANCH  23  26
ENDBRANCH  19  20
ENDBRANCH  18  19
ENDBRANCH  17  18
ENDBRANCH   1  17
TORSDOF 12
ENDMDL
MODEL 9
REMARK VINA RESULT:      -8.3      2.373      7.573
REMARK  Name = *****
REMARK                            x       y       z     vdW  Elec       q    Type
REMARK                         _______ _______ _______ _____ _____    ______ ____
ROOT
ATOM      1  C   LIG    1       23.305 -24.099   6.713  0.00  0.00    +0.007 C 
ENDROOT
BRANCH   1   2
ATOM      2  C   LIG    1       24.584 -24.118   5.871  0.00  0.00    +0.041 C 
BRANCH   2   3
ATOM      3  C   LIG    1       25.844 -24.450   6.662  0.00  0.00    +0.229 C 
BRANCH   3   4
ATOM      4  O   LIG    1       26.585 -25.460   5.983  0.00  0.00    -0.492 OA
BRANCH   4   8
ATOM      5  C   LIG    1       24.992 -29.295   6.377  0.00  0.00    +0.065 A 
ATOM      6  C   LIG    1       25.140 -28.757   5.095  0.00  0.00    +0.019 A 
ATOM      7  C   LIG    1       25.672 -27.475   4.921  0.00  0.00    +0.046 A 
ATOM      8  C   LIG    1       26.045 -26.717   6.030  0.00  0.00    +0.120 A 
ATOM      9  C   LIG    1       25.917 -27.262   7.310  0.00  0.00    +0.046 A 
ATOM     10  C   LIG    1       25.387 -28.545   7.488  0.00  0.00    +0.019 A 
BRANCH   5  13
ATOM     11  N   LIG    1       23.374 -30.981   5.820  0.00  0.00    -0.099 NA
ATOM     12  H   LIG    1       23.060 -31.920   6.075  0.00  0.00    +0.363 HD
ATOM     13  C   LIG    1       24.398 -30.655   6.533  0.00  0.00    +0.308 C 
BRANCH  13  14
ATOM     14  N   LIG    1       24.935 -31.558   7.410  0.00  0.00    -0.247 N 
ATOM     15  H   LIG    1       25.935 -31.709   7.356  0.00  0.00    +0.288 HD
ATOM     16  H   LIG    1       24.422 -32.425   7.517  0.00  0.00    +0.288 HD
ENDBRANCH  13  14
ENDBRANCH   5  13
ENDBRANCH   4   8
ENDBRANCH   3   4
ENDBRANCH   2   3
ENDBRANCH   1   2
BRANCH   1  17
ATOM     17  C   LIG    1       22.535 -22.782   6.540  0.00  0.00    +0.041 C 
BRANCH  17  18
ATOM     18  C   LIG    1       23.201 -21.588   7.231  0.00  0.00    +0.229 C 
BRANCH  18  19
ATOM     19  O   LIG    1       23.974 -20.886   6.257  0.00  0.00    -0.492 OA
BRANCH  19  20
ATOM     20  C   LIG    1       25.285 -20.656   6.561  0.00  0.00    +0.120 A 
ATOM     21  C   LIG    1       26.291 -20.357   5.644  0.00  0.00    +0.046 A 
ATOM     22  C   LIG    1       27.606 -20.154   6.085  0.00  0.00    +0.019 A 
ATOM     23  C   LIG    1       27.913 -20.241   7.449  0.00  0.00    +0.065 A 
ATOM     24  C   LIG    1       26.898 -20.514   8.367  0.00  0.00    +0.019 A 
ATOM     25  C   LIG    1       25.592 -20.711   7.923  0.00  0.00    +0.046 A 
BRANCH  23  26
ATOM     26  C   LIG    1       29.312 -20.018   7.908  0.00  0.00    +0.308 C 
ATOM     27  N   LIG    1       29.668 -18.978   8.606  0.00  0.00    -0.099 NA
ATOM     28  H   LIG    1       28.869 -18.387   8.831  0.00  0.00    +0.363 HD
BRANCH  26  29
ATOM     29  N   LIG    1       30.298 -20.903   7.604  0.00  0.00    -0.247 N 
ATOM     30  H   LIG    1       29.980 -21.857   7.758  0.00  0.00    +0.288 HD
ATOM     31  H   LIG    1       31.199 -20.724   8.032  0.00  0.00    +0.288 HD
ENDBRANCH  26  29
ENDBRANCH  23  26
ENDBRANCH  19  20
ENDBRANCH  18  19
ENDBRANCH  17  18
ENDBRANCH   1  17
TORSDOF 12
ENDMDL
