MODEL 1
REMARK VINA RESULT:       5.3      0.000      0.000
REMARK  Name = *****
REMARK                            x       y       z     vdW  Elec       q    Type
REMARK                         _______ _______ _______ _____ _____    ______ ____
ROOT
ATOM      1  C   LIG    1       26.040 -20.460   4.635  0.00  0.00    +0.169 C 
ATOM      2  C   LIG    1       26.796 -19.636   3.542  0.00  0.00    +0.175 C 
ATOM      3  C   LIG    1       27.511 -18.312   4.028  0.00  0.00    +0.169 C 
ATOM      4  C   LIG    1       28.461 -18.768   5.171  0.00  0.00    +0.084 C 
ATOM      5  C   LIG    1       27.624 -19.306   6.337  0.00  0.00    +0.042 C 
ATOM      6  C   LIG    1       26.946 -20.618   5.911  0.00  0.00    +0.084 C 
ENDROOT
BRANCH   4   7
ATOM      7  N   LIG    1       29.474 -17.816   5.607  0.00  0.00    -0.325 NA
ATOM      8  H   LIG    1       29.926 -17.346   4.820  0.00  0.00    +0.118 HD
ATOM      9  H   LIG    1       30.187 -18.262   6.172  0.00  0.00    +0.118 HD
ENDBRANCH   4   7
BRANCH   6  10
ATOM     10  N   LIG    1       26.251 -21.215   7.062  0.00  0.00    -0.325 NA
ATOM     11  H   LIG    1       26.839 -21.915   7.509  0.00  0.00    +0.118 HD
ATOM     12  H   LIG    1       26.089 -20.476   7.751  0.00  0.00    +0.118 HD
ENDBRANCH   6  10
BRANCH   2  13
ATOM     13  O   LIG    1       26.006 -19.434   2.361  0.00  0.00    -0.387 OA
ATOM     14  H   LIG    1       25.878 -18.487   2.249  0.00  0.00    +0.210 HD
ENDBRANCH   2  13
BRANCH   1  15
ATOM     15  O   LIG    1       24.742 -19.989   5.029  0.00  0.00    -0.342 OA
BRANCH  15  18
ATOM     16  C   LIG    1       22.118 -17.731   4.160  0.00  0.00    +0.138 C 
ATOM     17  O   LIG    1       23.325 -18.219   4.748  0.00  0.00    -0.345 OA
ATOM     18  C   LIG    1       23.914 -19.342   4.053  0.00  0.00    +0.268 C 
ATOM     19  C   LIG    1       22.804 -20.185   3.281  0.00  0.00    +0.107 C 
ATOM     20  C   LIG    1       21.467 -20.187   4.038  0.00  0.00    +0.026 C 
ATOM     21  C   LIG    1       21.009 -18.766   4.387  0.00  0.00    +0.035 C 
BRANCH  19  22
ATOM     22  N   LIG    1       23.103 -21.544   2.807  0.00  0.00    -0.323 NA
ATOM     23  H   LIG    1       23.948 -21.543   2.258  0.00  0.00    +0.119 HD
ATOM     24  H   LIG    1       23.292 -22.124   3.638  0.00  0.00    +0.119 HD
ENDBRANCH  19  22
BRANCH  16  25
ATOM     25  C   LIG    1       21.795 -16.318   4.726  0.00  0.00    +0.079 C 
ATOM     26  C   LIG    1       22.589 -15.213   4.011  0.00  0.00    +0.026 C 
BRANCH  25  28
ATOM     27  C   LIG    1       21.357 -14.958   6.721  0.00  0.00    +0.101 C 
ATOM     28  N   LIG    1       21.985 -16.156   6.182  0.00  0.00    -0.314 NA
ATOM     29  H   LIG    1       21.637 -16.979   6.674  0.00  0.00    +0.122 HD
ENDBRANCH  25  28
ENDBRANCH  16  25
ENDBRANCH  15  18
ENDBRANCH   1  15
BRANCH   3  30
ATOM     30  O   LIG    1       26.541 -17.309   4.378  0.00  0.00    -0.341 OA
BRANCH  30  31
ATOM     31  C   LIG    1       26.277 -16.231   3.441  0.00  0.00    +0.281 C 
ATOM     32  C   LIG    1       27.409 -15.169   3.675  0.00  0.00    +0.190 C 
ATOM     33  C   LIG    1       27.152 -13.810   2.978  0.00  0.00    +0.121 C 
ATOM     34  C   LIG    1       25.682 -13.341   3.197  0.00  0.00    +0.104 C 
ATOM     35  C   LIG    1       25.359 -12.849   4.620  0.00  0.00    +0.045 C 
ATOM     36  C   LIG    1       24.749 -14.505   2.827  0.00  0.00    +0.199 C 
ATOM     37  O   LIG    1       24.981 -15.664   3.646  0.00  0.00    -0.346 OA
BRANCH  33  38
ATOM     38  N   LIG    1       28.055 -12.688   3.380  0.00  0.00    -0.311 NA
ATOM     39  H   LIG    1       27.703 -12.341   4.279  0.00  0.00    +0.122 HD
ATOM     40  C   LIG    1       29.432 -13.096   3.636  0.00  0.00    +0.101 C 
ENDBRANCH  33  38
BRANCH  32  41
ATOM     41  O   LIG    1       27.561 -14.924   5.088  0.00  0.00    -0.385 OA
ATOM     42  H   LIG    1       26.865 -15.464   5.511  0.00  0.00    +0.210 HD
ENDBRANCH  32  41
BRANCH  34  43
ATOM     43  O   LIG    1       25.440 -12.230   2.316  0.00  0.00    -0.385 OA
ATOM     44  H   LIG    1       26.012 -12.404   1.537  0.00  0.00    +0.210 HD
ENDBRANCH  34  43
ENDBRANCH  30  31
ENDBRANCH   3  30
TORSDOF 13
ENDMDL
