MODEL 1
REMARK VINA RESULT:      -9.8      0.000      0.000
REMARK  Name = *****
REMARK                            x       y       z     vdW  Elec       q    Type
REMARK                         _______ _______ _______ _____ _____    ______ ____
ROOT
ATOM      1  C   LIG    1       27.701 -20.601   7.323  0.00  0.00    +0.165 C 
ATOM      2  C   LIG    1       27.091 -20.220   6.002  0.00  0.00    +0.249 C 
ATOM      3  O   LIG    1       27.525 -19.331   5.277  0.00  0.00    -0.273 OA
ATOM      4  N   LIG    1       25.910 -20.969   5.869  0.00  0.00    -0.180 N 
ATOM      5  N   LIG    1       25.795 -21.886   6.945  0.00  0.00    -0.180 N 
ATOM      6  C   LIG    1       26.727 -21.569   7.938  0.00  0.00    +0.249 C 
ATOM      7  O   LIG    1       26.835 -22.012   9.079  0.00  0.00    -0.273 OA
ENDROOT
BRANCH   4   8
ATOM      8  C   LIG    1       24.762 -20.332   5.315  0.00  0.00    +0.057 A 
ATOM      9  C   LIG    1       24.798 -19.775   4.029  0.00  0.00    +0.029 A 
ATOM     10  C   LIG    1       23.669 -19.148   3.499  0.00  0.00    +0.047 A 
ATOM     11  C   LIG    1       22.514 -19.050   4.264  0.00  0.00    +0.117 A 
ATOM     12  C   LIG    1       22.458 -19.592   5.543  0.00  0.00    +0.047 A 
ATOM     13  C   LIG    1       23.579 -20.245   6.062  0.00  0.00    +0.029 A 
BRANCH  11  14
ATOM     14  O   LIG    1       21.447 -18.400   3.721  0.00  0.00    -0.507 OA
ATOM     15  H   LIG    1       21.406 -17.505   4.095  0.00  0.00    +0.292 HD
ENDBRANCH  11  14
ENDBRANCH   4   8
BRANCH   5  16
ATOM     16  C   LIG    1       25.275 -23.211   6.751  0.00  0.00    +0.057 A 
ATOM     17  C   LIG    1       23.891 -23.459   6.773  0.00  0.00    +0.025 A 
ATOM     18  C   LIG    1       23.371 -24.733   6.505  0.00  0.00    +0.002 A 
ATOM     19  C   LIG    1       24.225 -25.786   6.203  0.00  0.00    +0.000 A 
ATOM     20  C   LIG    1       25.597 -25.565   6.175  0.00  0.00    +0.002 A 
ATOM     21  C   LIG    1       26.115 -24.295   6.457  0.00  0.00    +0.025 A 
ENDBRANCH   5  16
BRANCH   1  22
ATOM     22  C   LIG    1       29.124 -21.164   7.189  0.00  0.00    +0.022 C 
BRANCH  22  23
ATOM     23  C   LIG    1       30.226 -20.359   7.908  0.00  0.00    +0.001 C 
BRANCH  23  25
ATOM     24  C   LIG    1       30.174 -18.111   9.110  0.00  0.00    +0.004 C 
ATOM     25  C   LIG    1       30.017 -18.841   7.779  0.00  0.00    -0.003 C 
ENDBRANCH  23  25
ENDBRANCH  22  23
ENDBRANCH   1  22
TORSDOF 6
ENDMDL
MODEL 2
REMARK VINA RESULT:      -9.2      1.452      4.711
REMARK  Name = *****
REMARK                            x       y       z     vdW  Elec       q    Type
REMARK                         _______ _______ _______ _____ _____    ______ ____
ROOT
ATOM      1  C   LIG    1       27.869 -20.790   7.279  0.00  0.00    +0.165 C 
ATOM      2  C   LIG    1       26.912 -21.790   7.867  0.00  0.00    +0.249 C 
ATOM      3  O   LIG    1       27.122 -22.412   8.902  0.00  0.00    -0.273 OA
ATOM      4  N   LIG    1       25.862 -21.937   6.946  0.00  0.00    -0.180 N 
ATOM      5  N   LIG    1       26.019 -21.014   5.881  0.00  0.00    -0.180 N 
ATOM      6  C   LIG    1       27.298 -20.449   5.929  0.00  0.00    +0.249 C 
ATOM      7  O   LIG    1       27.872 -19.743   5.104  0.00  0.00    -0.273 OA
ENDROOT
BRANCH   4   8
ATOM      8  C   LIG    1       25.338 -23.244   6.720  0.00  0.00    +0.057 A 
ATOM      9  C   LIG    1       26.188 -24.320   6.430  0.00  0.00    +0.029 A 
ATOM     10  C   LIG    1       25.663 -25.594   6.205  0.00  0.00    +0.047 A 
ATOM     11  C   LIG    1       24.288 -25.786   6.239  0.00  0.00    +0.117 A 
ATOM     12  C   LIG    1       23.426 -24.732   6.521  0.00  0.00    +0.047 A 
ATOM     13  C   LIG    1       23.955 -23.463   6.774  0.00  0.00    +0.029 A 
BRANCH  11  14
ATOM     14  O   LIG    1       23.817 -27.039   5.979  0.00  0.00    -0.507 OA
ATOM     15  H   LIG    1       23.067 -26.966   5.368  0.00  0.00    +0.292 HD
ENDBRANCH  11  14
ENDBRANCH   4   8
BRANCH   5  16
ATOM     16  C   LIG    1       24.891 -20.351   5.289  0.00  0.00    +0.057 A 
ATOM     17  C   LIG    1       23.660 -20.267   5.965  0.00  0.00    +0.025 A 
ATOM     18  C   LIG    1       22.579 -19.553   5.431  0.00  0.00    +0.002 A 
ATOM     19  C   LIG    1       22.705 -18.904   4.209  0.00  0.00    +0.000 A 
ATOM     20  C   LIG    1       23.912 -18.974   3.522  0.00  0.00    +0.002 A 
ATOM     21  C   LIG    1       24.987 -19.699   4.051  0.00  0.00    +0.025 A 
ENDBRANCH   5  16
BRANCH   1  22
ATOM     22  C   LIG    1       28.089 -19.563   8.178  0.00  0.00    +0.022 C 
BRANCH  22  23
ATOM     23  C   LIG    1       29.540 -19.048   8.253  0.00  0.00    +0.001 C 
BRANCH  23  25
ATOM     24  C   LIG    1       31.091 -20.986   8.837  0.00  0.00    +0.004 C 
ATOM     25  C   LIG    1       30.554 -20.080   7.732  0.00  0.00    -0.003 C 
ENDBRANCH  23  25
ENDBRANCH  22  23
ENDBRANCH   1  22
TORSDOF 6
ENDMDL
MODEL 3
REMARK VINA RESULT:      -8.6      1.869      6.073
REMARK  Name = *****
REMARK                            x       y       z     vdW  Elec       q    Type
REMARK                         _______ _______ _______ _____ _____    ______ ____
ROOT
ATOM      1  C   LIG    1       24.439 -24.001   6.837  0.00  0.00    +0.165 C 
ATOM      2  C   LIG    1       25.820 -23.518   6.491  0.00  0.00    +0.249 C 
ATOM      3  O   LIG    1       26.825 -24.219   6.545  0.00  0.00    -0.273 OA
ATOM      4  N   LIG    1       25.719 -22.139   6.247  0.00  0.00    -0.180 N 
ATOM      5  N   LIG    1       24.359 -21.739   6.287  0.00  0.00    -0.180 N 
ATOM      6  C   LIG    1       23.580 -22.766   6.830  0.00  0.00    +0.249 C 
ATOM      7  O   LIG    1       22.403 -22.752   7.181  0.00  0.00    -0.273 OA
ENDROOT
BRANCH   4   8
ATOM      8  C   LIG    1       26.755 -21.287   6.731  0.00  0.00    +0.057 A 
ATOM      9  C   LIG    1       27.520 -20.512   5.848  0.00  0.00    +0.029 A 
ATOM     10  C   LIG    1       28.536 -19.686   6.333  0.00  0.00    +0.047 A 
ATOM     11  C   LIG    1       28.806 -19.656   7.694  0.00  0.00    +0.117 A 
ATOM     12  C   LIG    1       28.061 -20.418   8.587  0.00  0.00    +0.047 A 
ATOM     13  C   LIG    1       27.027 -21.224   8.104  0.00  0.00    +0.029 A 
BRANCH  11  14
ATOM     14  O   LIG    1       29.828 -18.861   8.120  0.00  0.00    -0.507 OA
ATOM     15  H   LIG    1       30.279 -18.493   7.343  0.00  0.00    +0.292 HD
ENDBRANCH  11  14
ENDBRANCH   4   8
BRANCH   5  16
ATOM     16  C   LIG    1       23.838 -20.755   5.380  0.00  0.00    +0.057 A 
ATOM     17  C   LIG    1       22.755 -19.934   5.741  0.00  0.00    +0.025 A 
ATOM     18  C   LIG    1       22.292 -18.917   4.895  0.00  0.00    +0.002 A 
ATOM     19  C   LIG    1       22.907 -18.696   3.669  0.00  0.00    +0.000 A 
ATOM     20  C   LIG    1       23.979 -19.495   3.289  0.00  0.00    +0.002 A 
ATOM     21  C   LIG    1       24.431 -20.519   4.131  0.00  0.00    +0.025 A 
ENDBRANCH   5  16
BRANCH   1  22
ATOM     22  C   LIG    1       23.933 -25.105   5.895  0.00  0.00    +0.022 C 
BRANCH  22  23
ATOM     23  C   LIG    1       24.257 -26.548   6.331  0.00  0.00    +0.001 C 
BRANCH  23  25
ATOM     24  C   LIG    1       26.249 -27.099   4.838  0.00  0.00    +0.004 C 
ATOM     25  C   LIG    1       24.791 -27.403   5.170  0.00  0.00    -0.003 C 
ENDBRANCH  23  25
ENDBRANCH  22  23
ENDBRANCH   1  22
TORSDOF 6
ENDMDL
MODEL 4
REMARK VINA RESULT:      -8.4      2.105      6.008
REMARK  Name = *****
REMARK                            x       y       z     vdW  Elec       q    Type
REMARK                         _______ _______ _______ _____ _____    ______ ____
ROOT
ATOM      1  C   LIG    1       23.310 -21.093   7.054  0.00  0.00    +0.165 C 
ATOM      2  C   LIG    1       23.540 -22.168   6.027  0.00  0.00    +0.249 C 
ATOM      3  O   LIG    1       22.651 -22.670   5.349  0.00  0.00    -0.273 OA
ATOM      4  N   LIG    1       24.893 -22.534   6.119  0.00  0.00    -0.180 N 
ATOM      5  N   LIG    1       25.563 -21.685   7.037  0.00  0.00    -0.180 N 
ATOM      6  C   LIG    1       24.627 -20.945   7.766  0.00  0.00    +0.249 C 
ATOM      7  O   LIG    1       24.792 -20.233   8.753  0.00  0.00    -0.273 OA
ENDROOT
BRANCH   4   8
ATOM      8  C   LIG    1       25.230 -23.915   6.008  0.00  0.00    +0.057 A 
ATOM      9  C   LIG    1       25.069 -24.600   4.795  0.00  0.00    +0.029 A 
ATOM     10  C   LIG    1       25.397 -25.954   4.700  0.00  0.00    +0.047 A 
ATOM     11  C   LIG    1       25.856 -26.630   5.822  0.00  0.00    +0.117 A 
ATOM     12  C   LIG    1       26.020 -25.971   7.036  0.00  0.00    +0.047 A 
ATOM     13  C   LIG    1       25.718 -24.610   7.122  0.00  0.00    +0.029 A 
BRANCH  11  14
ATOM     14  O   LIG    1       26.132 -27.959   5.692  0.00  0.00    -0.507 OA
ATOM     15  H   LIG    1       25.383 -28.466   6.045  0.00  0.00    +0.292 HD
ENDBRANCH  11  14
ENDBRANCH   4   8
BRANCH   5  16
ATOM     16  C   LIG    1       26.907 -21.237   6.802  0.00  0.00    +0.057 A 
ATOM     17  C   LIG    1       27.189 -20.261   5.829  0.00  0.00    +0.025 A 
ATOM     18  C   LIG    1       28.485 -19.760   5.649  0.00  0.00    +0.002 A 
ATOM     19  C   LIG    1       29.528 -20.221   6.441  0.00  0.00    +0.000 A 
ATOM     20  C   LIG    1       29.275 -21.186   7.409  0.00  0.00    +0.002 A 
ATOM     21  C   LIG    1       27.982 -21.696   7.579  0.00  0.00    +0.025 A 
ENDBRANCH   5  16
BRANCH   1  22
ATOM     22  C   LIG    1       22.790 -19.781   6.446  0.00  0.00    +0.022 C 
BRANCH  22  23
ATOM     23  C   LIG    1       22.421 -19.844   4.951  0.00  0.00    +0.001 C 
BRANCH  23  25
ATOM     24  C   LIG    1       24.492 -19.688   3.473  0.00  0.00    +0.004 C 
ATOM     25  C   LIG    1       23.315 -18.938   4.090  0.00  0.00    -0.003 C 
ENDBRANCH  23  25
ENDBRANCH  22  23
ENDBRANCH   1  22
TORSDOF 6
ENDMDL
MODEL 5
REMARK VINA RESULT:      -6.9      7.046     10.523
REMARK  Name = *****
REMARK                            x       y       z     vdW  Elec       q    Type
REMARK                         _______ _______ _______ _____ _____    ______ ____
ROOT
ATOM      1  C   LIG    1       25.102 -32.101   6.915  0.00  0.00    +0.165 C 
ATOM      2  C   LIG    1       26.053 -31.548   7.941  0.00  0.00    +0.249 C 
ATOM      3  O   LIG    1       26.799 -32.238   8.627  0.00  0.00    -0.273 OA
ATOM      4  N   LIG    1       25.803 -30.168   8.024  0.00  0.00    -0.180 N 
ATOM      5  N   LIG    1       24.856 -29.788   7.039  0.00  0.00    -0.180 N 
ATOM      6  C   LIG    1       24.262 -30.928   6.488  0.00  0.00    +0.249 C 
ATOM      7  O   LIG    1       23.294 -31.019   5.738  0.00  0.00    -0.273 OA
ENDROOT
BRANCH   4   8
ATOM      8  C   LIG    1       25.820 -29.553   9.310  0.00  0.00    +0.057 A 
ATOM      9  C   LIG    1       26.814 -28.625   9.651  0.00  0.00    +0.029 A 
ATOM     10  C   LIG    1       26.824 -28.034  10.915  0.00  0.00    +0.047 A 
ATOM     11  C   LIG    1       25.859 -28.390  11.848  0.00  0.00    +0.117 A 
ATOM     12  C   LIG    1       24.866 -29.310  11.532  0.00  0.00    +0.047 A 
ATOM     13  C   LIG    1       24.841 -29.880  10.257  0.00  0.00    +0.029 A 
BRANCH  11  14
ATOM     14  O   LIG    1       25.927 -27.813  13.081  0.00  0.00    -0.507 OA
ATOM     15  H   LIG    1       26.626 -27.140  13.070  0.00  0.00    +0.292 HD
ENDBRANCH  11  14
ENDBRANCH   4   8
BRANCH   5  16
ATOM     16  C   LIG    1       24.967 -28.542   6.332  0.00  0.00    +0.057 A 
ATOM     17  C   LIG    1       24.185 -27.430   6.693  0.00  0.00    +0.025 A 
ATOM     18  C   LIG    1       24.344 -26.188   6.062  0.00  0.00    +0.002 A 
ATOM     19  C   LIG    1       25.293 -26.030   5.060  0.00  0.00    +0.000 A 
ATOM     20  C   LIG    1       26.078 -27.115   4.686  0.00  0.00    +0.002 A 
ATOM     21  C   LIG    1       25.908 -28.358   5.308  0.00  0.00    +0.025 A 
ENDBRANCH   5  16
BRANCH   1  22
ATOM     22  C   LIG    1       25.815 -32.801   5.747  0.00  0.00    +0.022 C 
BRANCH  22  23
ATOM     23  C   LIG    1       26.029 -31.936   4.489  0.00  0.00    +0.001 C 
BRANCH  23  25
ATOM     24  C   LIG    1       26.837 -32.922   2.281  0.00  0.00    +0.004 C 
ATOM     25  C   LIG    1       25.642 -32.677   3.199  0.00  0.00    -0.003 C 
ENDBRANCH  23  25
ENDBRANCH  22  23
ENDBRANCH   1  22
TORSDOF 6
ENDMDL
