MODEL 1
REMARK VINA RESULT:      -1.7      0.000      0.000
REMARK  Name = *****
REMARK                            x       y       z     vdW  Elec       q    Type
REMARK                         _______ _______ _______ _____ _____    ______ ____
ROOT
ATOM      1  C   LIG    1       26.902 -16.024   4.046  0.00  0.00    -0.017 C 
ATOM      2  C   LIG    1       25.642 -15.796   3.616  0.00  0.00    -0.013 C 
ATOM      3  C   LIG    1       24.642 -16.889   3.789  0.00  0.00    -0.003 A 
ATOM      4  C   LIG    1       23.400 -16.578   4.380  0.00  0.00    +0.021 A 
ATOM      5  C   LIG    1       22.438 -17.581   4.554  0.00  0.00    +0.017 A 
ATOM      6  C   LIG    1       22.691 -18.881   4.113  0.00  0.00    +0.021 A 
ATOM      7  C   LIG    1       23.904 -19.179   3.497  0.00  0.00    +0.042 A 
ATOM      8 CL   LIG    1       24.200 -20.776   2.927  0.00  0.00    -0.084 Cl
ATOM      9  S   LIG    1       23.005 -14.911   4.919  0.00  0.00    -0.088 S 
ATOM     10  C   LIG    1       23.975 -13.953   3.751  0.00  0.00    +0.021 A 
ATOM     11  C   LIG    1       23.509 -12.687   3.378  0.00  0.00    +0.015 A 
ATOM     12  C   LIG    1       24.192 -11.939   2.418  0.00  0.00    +0.001 A 
ATOM     13  C   LIG    1       25.332 -12.461   1.812  0.00  0.00    +0.001 A 
ATOM     14  C   LIG    1       25.810 -13.718   2.186  0.00  0.00    +0.009 A 
ATOM     15  C   LIG    1       24.878 -18.194   3.332  0.00  0.00    +0.029 A 
ATOM     16  C   LIG    1       25.165 -14.456   3.188  0.00  0.00    -0.004 A 
ENDROOT
BRANCH   1  17
ATOM     17  C   LIG    1       28.076 -15.072   4.145  0.00  0.00    +0.043 C 
BRANCH  17  18
ATOM     18  C   LIG    1       27.755 -13.843   5.023  0.00  0.00    +0.088 C 
BRANCH  18  20
ATOM     19  C   LIG    1       29.101 -11.907   5.531  0.00  0.00    +0.104 C 
ATOM     20  N   LIG    1       28.297 -12.572   4.499  0.00  0.00    -0.308 NA
ATOM     21  C   LIG    1       29.113 -12.765   3.299  0.00  0.00    +0.104 C 
ENDBRANCH  18  20
ENDBRANCH  17  18
ENDBRANCH   1  17
TORSDOF 3
ENDMDL
MODEL 2
REMARK VINA RESULT:       0.5      2.300      3.146
REMARK  Name = *****
REMARK                            x       y       z     vdW  Elec       q    Type
REMARK                         _______ _______ _______ _____ _____    ______ ____
ROOT
ATOM      1  C   LIG    1       26.902 -17.518   4.244  0.00  0.00    -0.017 C 
ATOM      2  C   LIG    1       25.775 -16.987   3.721  0.00  0.00    -0.013 C 
ATOM      3  C   LIG    1       24.539 -17.821   3.747  0.00  0.00    -0.003 A 
ATOM      4  C   LIG    1       23.351 -17.248   4.247  0.00  0.00    +0.021 A 
ATOM      5  C   LIG    1       22.172 -18.004   4.281  0.00  0.00    +0.017 A 
ATOM      6  C   LIG    1       22.161 -19.311   3.792  0.00  0.00    +0.021 A 
ATOM      7  C   LIG    1       23.326 -19.864   3.266  0.00  0.00    +0.042 A 
ATOM      8 CL   LIG    1       23.301 -21.465   2.636  0.00  0.00    -0.084 Cl
ATOM      9  S   LIG    1       23.300 -15.555   4.841  0.00  0.00    -0.088 S 
ATOM     10  C   LIG    1       24.572 -14.811   3.816  0.00  0.00    +0.021 A 
ATOM     11  C   LIG    1       24.447 -13.459   3.475  0.00  0.00    +0.015 A 
ATOM     12  C   LIG    1       25.373 -12.860   2.621  0.00  0.00    +0.001 A 
ATOM     13  C   LIG    1       26.415 -13.612   2.086  0.00  0.00    +0.001 A 
ATOM     14  C   LIG    1       26.553 -14.958   2.429  0.00  0.00    +0.009 A 
ATOM     15  C   LIG    1       24.512 -19.129   3.240  0.00  0.00    +0.029 A 
ATOM     16  C   LIG    1       25.663 -15.559   3.329  0.00  0.00    -0.004 A 
ENDROOT
BRANCH   1  17
ATOM     17  C   LIG    1       28.248 -16.871   4.496  0.00  0.00    +0.043 C 
BRANCH  17  18
ATOM     18  C   LIG    1       29.224 -17.823   5.221  0.00  0.00    +0.088 C 
BRANCH  18  20
ATOM     19  C   LIG    1       27.957 -19.877   5.212  0.00  0.00    +0.104 C 
ATOM     20  N   LIG    1       28.557 -18.841   6.061  0.00  0.00    -0.308 NA
ATOM     21  C   LIG    1       29.475 -19.467   7.014  0.00  0.00    +0.104 C 
ENDBRANCH  18  20
ENDBRANCH  17  18
ENDBRANCH   1  17
TORSDOF 3
ENDMDL
