MODEL 1
REMARK VINA RESULT:      -4.3      0.000      0.000
REMARK  Name = *****
REMARK                            x       y       z     vdW  Elec       q    Type
REMARK                         _______ _______ _______ _____ _____    ______ ____
ROOT
ATOM      1  N   ALA A  1       24.339 -17.726   4.581  0.00  0.00    -0.294 NA
ATOM      2  H   ALA A  1       25.324 -17.863   4.814  0.00  0.00    +0.123 HD
ENDROOT
BRANCH   1   3
ATOM      3  CA  ALA A  1       24.206 -16.532   3.714  0.00  0.00    +0.138 C 
ATOM      4  CB  ALA A  1       23.489 -15.429   4.492  0.00  0.00    +0.034 C 
BRANCH   3   5
ATOM      5  C   ALA A  1       25.558 -15.941   3.238  0.00  0.00    +0.233 C 
ATOM      6  N   UNK A  2       25.647 -14.547   3.202  0.00  0.00    -0.283 N 
ATOM      7  C   UNK A  2       24.525 -13.703   2.807  0.00  0.00    +0.080 C 
ATOM      8  C   UNK A  2       25.126 -12.659   1.875  0.00  0.00    +0.012 C 
ATOM      9  C   UNK A  2       24.219 -11.447   1.998  0.00  0.00    +0.005 C 
ATOM     10  C   UNK A  2       23.526 -11.561   3.357  0.00  0.00    +0.002 C 
ATOM     11  C   UNK A  2       26.538 -12.466   2.415  0.00  0.00    +0.039 C 
ATOM     12  C   UNK A  2       23.937 -12.900   3.963  0.00  0.00    +0.023 C 
ATOM     13  C   UNK A  2       26.936 -13.869   2.907  0.00  0.00    +0.185 C 
ATOM     14  O   ALA A  1       26.548 -16.655   3.065  0.00  0.00    -0.274 OA
BRANCH  13  15
ATOM     15  C   UNK A  2       27.847 -13.687   4.137  0.00  0.00    +0.326 C 
ATOM     16  O   UNK A  2       27.569 -14.062   5.259  0.00  0.00    -0.249 OA
BRANCH  15  17
ATOM     17  O   UNK A  2       29.055 -13.140   3.828  0.00  0.00    -0.479 OA
ATOM     18  H   UNK A  2       29.764 -13.717   4.163  0.00  0.00    +0.295 HD
ENDBRANCH  15  17
ENDBRANCH  13  15
ENDBRANCH   3   5
ENDBRANCH   1   3
BRANCH   1  19
ATOM     19  C   UNK A  0       23.767 -18.981   4.003  0.00  0.00    +0.164 C 
BRANCH  19  20
ATOM     20  C   UNK A  0       22.417 -19.346   4.639  0.00  0.00    +0.324 C 
ATOM     21  O   UNK A  0       22.275 -20.307   5.407  0.00  0.00    -0.249 OA
BRANCH  20  22
ATOM     22  O   UNK A  0       21.432 -18.466   4.327  0.00  0.00    -0.464 OA
BRANCH  22  24
ATOM     23  C   UNK A  0       19.394 -18.133   2.950  0.00  0.00    +0.048 C 
ATOM     24  C   UNK A  0       20.851 -18.552   3.023  0.00  0.00    +0.229 C 
ENDBRANCH  22  24
ENDBRANCH  20  22
ENDBRANCH  19  20
BRANCH  19  25
ATOM     25  C   UNK A  0       24.769 -20.152   4.216  0.00  0.00    +0.035 C 
BRANCH  25  26
ATOM     26  C   UNK A  0       25.149 -20.489   5.687  0.00  0.00    +0.037 C 
BRANCH  26  27
ATOM     27  C   UNK A  0       26.641 -20.469   6.020  0.00  0.00    -0.047 A 
ATOM     28  C   UNK A  0       27.453 -19.415   5.553  0.00  0.00    +0.003 A 
ATOM     29  C   UNK A  0       28.822 -19.361   5.858  0.00  0.00    +0.000 A 
ATOM     30  C   UNK A  0       29.412 -20.370   6.614  0.00  0.00    +0.000 A 
ATOM     31  C   UNK A  0       28.634 -21.431   7.060  0.00  0.00    +0.000 A 
ATOM     32  C   UNK A  0       27.264 -21.477   6.771  0.00  0.00    +0.003 A 
ENDBRANCH  26  27
ENDBRANCH  25  26
ENDBRANCH  19  25
ENDBRANCH   1  19
TORSDOF 11
ENDMDL
MODEL 2
REMARK VINA RESULT:      -3.6      2.167      3.261
REMARK  Name = *****
REMARK                            x       y       z     vdW  Elec       q    Type
REMARK                         _______ _______ _______ _____ _____    ______ ____
ROOT
ATOM      1  N   ALA A  1       23.999 -17.646   4.443  0.00  0.00    -0.294 NA
ATOM      2  H   ALA A  1       24.953 -17.295   4.546  0.00  0.00    +0.123 HD
ENDROOT
BRANCH   1   3
ATOM      3  CA  ALA A  1       23.121 -16.540   3.994  0.00  0.00    +0.138 C 
ATOM      4  CB  ALA A  1       21.662 -16.975   4.131  0.00  0.00    +0.034 C 
BRANCH   3   5
ATOM      5  C   ALA A  1       23.279 -15.233   4.814  0.00  0.00    +0.233 C 
ATOM      6  N   UNK A  2       24.328 -14.389   4.437  0.00  0.00    -0.283 N 
ATOM      7  C   UNK A  2       25.618 -14.901   3.988  0.00  0.00    +0.080 C 
ATOM      8  C   UNK A  2       26.653 -14.041   4.700  0.00  0.00    +0.012 C 
ATOM      9  C   UNK A  2       27.876 -14.059   3.799  0.00  0.00    +0.005 C 
ATOM     10  C   UNK A  2       27.370 -14.379   2.391  0.00  0.00    +0.002 C 
ATOM     11  C   UNK A  2       25.967 -12.686   4.829  0.00  0.00    +0.039 C 
ATOM     12  C   UNK A  2       25.876 -14.667   2.502  0.00  0.00    +0.023 C 
ATOM     13  C   UNK A  2       24.487 -13.045   5.049  0.00  0.00    +0.185 C 
ATOM     14  O   ALA A  1       22.431 -14.879   5.635  0.00  0.00    -0.274 OA
BRANCH  13  15
ATOM     15  C   UNK A  2       23.639 -11.944   4.380  0.00  0.00    +0.326 C 
ATOM     16  O   UNK A  2       23.753 -11.600   3.220  0.00  0.00    -0.249 OA
BRANCH  15  17
ATOM     17  O   UNK A  2       22.669 -11.450   5.197  0.00  0.00    -0.479 OA
ATOM     18  H   UNK A  2       22.667 -11.950   6.032  0.00  0.00    +0.295 HD
ENDBRANCH  15  17
ENDBRANCH  13  15
ENDBRANCH   3   5
ENDBRANCH   1   3
BRANCH   1  19
ATOM     19  C   UNK A  0       23.986 -18.848   3.555  0.00  0.00    +0.164 C 
BRANCH  19  20
ATOM     20  C   UNK A  0       23.193 -20.012   4.172  0.00  0.00    +0.324 C 
ATOM     21  O   UNK A  0       23.066 -21.109   3.613  0.00  0.00    -0.249 OA
BRANCH  20  22
ATOM     22  O   UNK A  0       22.719 -19.727   5.411  0.00  0.00    -0.464 OA
BRANCH  22  24
ATOM     23  C   UNK A  0       24.119 -21.110   6.924  0.00  0.00    +0.048 C 
ATOM     24  C   UNK A  0       22.740 -20.772   6.388  0.00  0.00    +0.229 C 
ENDBRANCH  22  24
ENDBRANCH  20  22
ENDBRANCH  19  20
BRANCH  19  25
ATOM     25  C   UNK A  0       25.448 -19.309   3.287  0.00  0.00    +0.035 C 
BRANCH  25  26
ATOM     26  C   UNK A  0       26.061 -20.320   4.299  0.00  0.00    +0.037 C 
BRANCH  26  27
ATOM     27  C   UNK A  0       27.248 -19.817   5.121  0.00  0.00    -0.047 A 
ATOM     28  C   UNK A  0       27.916 -18.635   4.741  0.00  0.00    +0.003 A 
ATOM     29  C   UNK A  0       28.998 -18.139   5.486  0.00  0.00    +0.000 A 
ATOM     30  C   UNK A  0       29.447 -18.826   6.610  0.00  0.00    +0.000 A 
ATOM     31  C   UNK A  0       28.819 -20.007   6.984  0.00  0.00    +0.000 A 
ATOM     32  C   UNK A  0       27.729 -20.493   6.251  0.00  0.00    +0.003 A 
ENDBRANCH  26  27
ENDBRANCH  25  26
ENDBRANCH  19  25
ENDBRANCH   1  19
TORSDOF 11
ENDMDL
MODEL 3
REMARK VINA RESULT:      -1.6      2.185      7.086
REMARK  Name = *****
REMARK                            x       y       z     vdW  Elec       q    Type
REMARK                         _______ _______ _______ _____ _____    ______ ____
ROOT
ATOM      1  N   ALA A  1       23.066 -15.421   3.809  0.00  0.00    -0.294 NA
ATOM      2  H   ALA A  1       22.800 -15.793   2.894  0.00  0.00    +0.123 HD
ENDROOT
BRANCH   1   3
ATOM      3  CA  ALA A  1       22.927 -16.489   4.827  0.00  0.00    +0.138 C 
ATOM      4  CB  ALA A  1       21.956 -16.021   5.910  0.00  0.00    +0.034 C 
BRANCH   3   5
ATOM      5  C   ALA A  1       22.372 -17.826   4.271  0.00  0.00    +0.233 C 
ATOM      6  N   UNK A  2       23.242 -18.919   4.305  0.00  0.00    -0.283 N 
ATOM      7  C   UNK A  2       24.672 -18.787   4.054  0.00  0.00    +0.080 C 
ATOM      8  C   UNK A  2       25.021 -19.949   3.134  0.00  0.00    +0.012 C 
ATOM      9  C   UNK A  2       26.487 -20.244   3.401  0.00  0.00    +0.005 C 
ATOM     10  C   UNK A  2       26.785 -19.716   4.806  0.00  0.00    +0.002 C 
ATOM     11  C   UNK A  2       24.054 -21.048   3.561  0.00  0.00    +0.039 C 
ATOM     12  C   UNK A  2       25.527 -19.008   5.299  0.00  0.00    +0.023 C 
ATOM     13  C   UNK A  2       22.774 -20.281   3.939  0.00  0.00    +0.185 C 
ATOM     14  O   ALA A  1       21.183 -17.957   3.974  0.00  0.00    -0.274 OA
BRANCH  13  15
ATOM     15  C   UNK A  2       22.100 -21.048   5.095  0.00  0.00    +0.326 C 
ATOM     16  O   UNK A  2       22.546 -21.118   6.224  0.00  0.00    -0.249 OA
BRANCH  15  17
ATOM     17  O   UNK A  2       20.890 -21.569   4.753  0.00  0.00    -0.479 OA
ATOM     18  H   UNK A  2       20.600 -22.188   5.445  0.00  0.00    +0.295 HD
ENDBRANCH  15  17
ENDBRANCH  13  15
ENDBRANCH   3   5
ENDBRANCH   1   3
BRANCH   1  19
ATOM     19  C   UNK A  0       24.425 -14.803   3.738  0.00  0.00    +0.164 C 
BRANCH  19  20
ATOM     20  C   UNK A  0       24.425 -13.503   2.917  0.00  0.00    +0.324 C 
ATOM     21  O   UNK A  0       25.170 -13.324   1.944  0.00  0.00    -0.249 OA
BRANCH  20  22
ATOM     22  O   UNK A  0       23.480 -12.621   3.328  0.00  0.00    -0.464 OA
BRANCH  22  24
ATOM     23  C   UNK A  0       23.780 -11.510   5.528  0.00  0.00    +0.048 C 
ATOM     24  C   UNK A  0       23.920 -11.447   4.018  0.00  0.00    +0.229 C 
ENDBRANCH  22  24
ENDBRANCH  20  22
ENDBRANCH  19  20
BRANCH  19  25
ATOM     25  C   UNK A  0       25.421 -15.814   3.100  0.00  0.00    +0.035 C 
BRANCH  25  26
ATOM     26  C   UNK A  0       26.836 -15.901   3.741  0.00  0.00    +0.037 C 
BRANCH  26  27
ATOM     27  C   UNK A  0       27.464 -14.576   4.175  0.00  0.00    -0.047 A 
ATOM     28  C   UNK A  0       27.142 -14.023   5.431  0.00  0.00    +0.003 A 
ATOM     29  C   UNK A  0       27.716 -12.817   5.864  0.00  0.00    +0.000 A 
ATOM     30  C   UNK A  0       28.603 -12.129   5.042  0.00  0.00    +0.000 A 
ATOM     31  C   UNK A  0       28.912 -12.645   3.789  0.00  0.00    +0.000 A 
ATOM     32  C   UNK A  0       28.353 -13.856   3.364  0.00  0.00    +0.003 A 
ENDBRANCH  26  27
ENDBRANCH  25  26
ENDBRANCH  19  25
ENDBRANCH   1  19
TORSDOF 11
ENDMDL
MODEL 4
REMARK VINA RESULT:      -1.5      2.190      5.277
REMARK  Name = *****
REMARK                            x       y       z     vdW  Elec       q    Type
REMARK                         _______ _______ _______ _____ _____    ______ ____
ROOT
ATOM      1  N   ALA A  1       27.058 -17.969   4.273  0.00  0.00    -0.294 NA
ATOM      2  H   ALA A  1       27.851 -18.430   3.821  0.00  0.00    +0.123 HD
ENDROOT
BRANCH   1   3
ATOM      3  CA  ALA A  1       26.306 -17.191   3.260  0.00  0.00    +0.138 C 
ATOM      4  CB  ALA A  1       25.483 -18.154   2.404  0.00  0.00    +0.034 C 
BRANCH   3   5
ATOM      5  C   ALA A  1       25.314 -16.162   3.860  0.00  0.00    +0.233 C 
ATOM      6  N   UNK A  2       25.785 -14.853   3.992  0.00  0.00    -0.283 N 
ATOM      7  C   UNK A  2       27.162 -14.552   4.367  0.00  0.00    +0.080 C 
ATOM      8  C   UNK A  2       27.055 -13.440   5.402  0.00  0.00    +0.012 C 
ATOM      9  C   UNK A  2       28.362 -12.673   5.299  0.00  0.00    +0.005 C 
ATOM     10  C   UNK A  2       28.907 -12.933   3.893  0.00  0.00    +0.002 C 
ATOM     11  C   UNK A  2       25.816 -12.665   4.969  0.00  0.00    +0.039 C 
ATOM     12  C   UNK A  2       27.980 -13.948   3.230  0.00  0.00    +0.023 C 
ATOM     13  C   UNK A  2       24.880 -13.752   4.414  0.00  0.00    +0.185 C 
ATOM     14  O   ALA A  1       24.129 -16.443   4.051  0.00  0.00    -0.274 OA
BRANCH  13  15
ATOM     15  C   UNK A  2       24.073 -13.123   3.260  0.00  0.00    +0.326 C 
ATOM     16  O   UNK A  2       23.814 -13.689   2.215  0.00  0.00    -0.249 OA
BRANCH  15  17
ATOM     17  O   UNK A  2       23.588 -11.888   3.562  0.00  0.00    -0.479 OA
ATOM     18  H   UNK A  2       22.820 -11.697   2.996  0.00  0.00    +0.295 HD
ENDBRANCH  15  17
ENDBRANCH  13  15
ENDBRANCH   3   5
ENDBRANCH   1   3
BRANCH   1  19
ATOM     19  C   UNK A  0       26.239 -18.969   5.023  0.00  0.00    +0.164 C 
BRANCH  19  20
ATOM     20  C   UNK A  0       27.100 -19.836   5.955  0.00  0.00    +0.324 C 
ATOM     21  O   UNK A  0       26.694 -20.256   7.047  0.00  0.00    -0.249 OA
BRANCH  20  22
ATOM     22  O   UNK A  0       28.308 -20.146   5.421  0.00  0.00    -0.464 OA
BRANCH  22  24
ATOM     23  C   UNK A  0       29.463 -18.470   6.842  0.00  0.00    +0.048 C 
ATOM     24  C   UNK A  0       29.475 -19.840   6.191  0.00  0.00    +0.229 C 
ENDBRANCH  22  24
ENDBRANCH  20  22
ENDBRANCH  19  20
BRANCH  19  25
ATOM     25  C   UNK A  0       25.491 -19.887   4.013  0.00  0.00    +0.035 C 
BRANCH  25  26
ATOM     26  C   UNK A  0       24.404 -20.833   4.600  0.00  0.00    +0.037 C 
BRANCH  26  27
ATOM     27  C   UNK A  0       22.952 -20.394   4.408  0.00  0.00    -0.047 A 
ATOM     28  C   UNK A  0       22.664 -19.074   4.007  0.00  0.00    +0.003 A 
ATOM     29  C   UNK A  0       21.342 -18.646   3.807  0.00  0.00    +0.000 A 
ATOM     30  C   UNK A  0       20.282 -19.521   4.026  0.00  0.00    +0.000 A 
ATOM     31  C   UNK A  0       20.545 -20.819   4.448  0.00  0.00    +0.000 A 
ATOM     32  C   UNK A  0       21.865 -21.250   4.631  0.00  0.00    +0.003 A 
ENDBRANCH  26  27
ENDBRANCH  25  26
ENDBRANCH  19  25
ENDBRANCH   1  19
TORSDOF 11
ENDMDL
MODEL 5
REMARK VINA RESULT:      -1.4      1.914      4.729
REMARK  Name = *****
REMARK                            x       y       z     vdW  Elec       q    Type
REMARK                         _______ _______ _______ _____ _____    ______ ____
ROOT
ATOM      1  N   ALA A  1       27.202 -18.422   4.246  0.00  0.00    -0.294 NA
ATOM      2  H   ALA A  1       27.739 -18.934   3.543  0.00  0.00    +0.123 HD
ENDROOT
BRANCH   1   3
ATOM      3  CA  ALA A  1       26.608 -17.217   3.620  0.00  0.00    +0.138 C 
ATOM      4  CB  ALA A  1       25.283 -16.898   4.312  0.00  0.00    +0.034 C 
BRANCH   3   5
ATOM      5  C   ALA A  1       27.490 -15.947   3.728  0.00  0.00    +0.233 C 
ATOM      6  N   UNK A  2       26.821 -14.721   3.666  0.00  0.00    -0.283 N 
ATOM      7  C   UNK A  2       25.672 -14.502   2.795  0.00  0.00    +0.080 C 
ATOM      8  C   UNK A  2       25.917 -13.144   2.153  0.00  0.00    +0.012 C 
ATOM      9  C   UNK A  2       24.536 -12.604   1.824  0.00  0.00    +0.005 C 
ATOM     10  C   UNK A  2       23.560 -13.307   2.770  0.00  0.00    +0.002 C 
ATOM     11  C   UNK A  2       26.673 -12.370   3.226  0.00  0.00    +0.039 C 
ATOM     12  C   UNK A  2       24.360 -14.342   3.556  0.00  0.00    +0.023 C 
ATOM     13  C   UNK A  2       27.540 -13.443   3.907  0.00  0.00    +0.185 C 
ATOM     14  O   ALA A  1       28.685 -16.014   4.022  0.00  0.00    -0.274 OA
BRANCH  13  15
ATOM     15  C   UNK A  2       27.664 -13.062   5.396  0.00  0.00    +0.326 C 
ATOM     16  O   UNK A  2       27.007 -13.560   6.289  0.00  0.00    -0.249 OA
BRANCH  15  17
ATOM     17  O   UNK A  2       28.661 -12.167   5.635  0.00  0.00    -0.479 OA
ATOM     18  H   UNK A  2       28.367 -11.279   5.366  0.00  0.00    +0.295 HD
ENDBRANCH  15  17
ENDBRANCH  13  15
ENDBRANCH   3   5
ENDBRANCH   1   3
BRANCH   1  19
ATOM     19  C   UNK A  0       26.215 -19.331   4.904  0.00  0.00    +0.164 C 
BRANCH  19  20
ATOM     20  C   UNK A  0       26.861 -20.181   6.009  0.00  0.00    +0.324 C 
ATOM     21  O   UNK A  0       26.276 -20.473   7.061  0.00  0.00    -0.249 OA
BRANCH  20  22
ATOM     22  O   UNK A  0       28.097 -20.629   5.674  0.00  0.00    -0.464 OA
BRANCH  22  24
ATOM     23  C   UNK A  0       29.247 -18.922   7.062  0.00  0.00    +0.048 C 
ATOM     24  C   UNK A  0       29.171 -20.359   6.580  0.00  0.00    +0.229 C 
ENDBRANCH  22  24
ENDBRANCH  20  22
ENDBRANCH  19  20
BRANCH  19  25
ATOM     25  C   UNK A  0       25.585 -20.271   3.835  0.00  0.00    +0.035 C 
BRANCH  25  26
ATOM     26  C   UNK A  0       24.315 -21.063   4.262  0.00  0.00    +0.037 C 
BRANCH  26  27
ATOM     27  C   UNK A  0       22.987 -20.312   4.165  0.00  0.00    -0.047 A 
ATOM     28  C   UNK A  0       21.771 -21.016   4.280  0.00  0.00    +0.003 A 
ATOM     29  C   UNK A  0       20.536 -20.352   4.213  0.00  0.00    +0.000 A 
ATOM     30  C   UNK A  0       20.491 -18.976   4.005  0.00  0.00    +0.000 A 
ATOM     31  C   UNK A  0       21.679 -18.269   3.862  0.00  0.00    +0.000 A 
ATOM     32  C   UNK A  0       22.911 -18.929   3.946  0.00  0.00    +0.003 A 
ENDBRANCH  26  27
ENDBRANCH  25  26
ENDBRANCH  19  25
ENDBRANCH   1  19
TORSDOF 11
ENDMDL
