MODEL 1
REMARK VINA RESULT:      -7.6      0.000      0.000
REMARK  Name = *****
REMARK                            x       y       z     vdW  Elec       q    Type
REMARK                         _______ _______ _______ _____ _____    ______ ____
ROOT
ATOM      1  C   LIG    1       25.522 -21.582   6.321  0.00  0.00    +0.085 C 
ATOM      2  C   LIG    1       24.730 -20.630   5.455  0.00  0.00    -0.027 A 
ATOM      3  C   LIG    1       23.460 -20.386   5.997  0.00  0.00    -0.043 A 
ATOM      4  C   LIG    1       22.542 -19.580   5.347  0.00  0.00    +0.004 A 
ATOM      5  C   LIG    1       22.917 -18.994   4.137  0.00  0.00    +0.000 A 
ATOM      6  C   LIG    1       24.190 -19.231   3.592  0.00  0.00    +0.000 A 
ATOM      7  C   LIG    1       23.270 -21.142   7.273  0.00  0.00    +0.037 C 
ATOM      8  C   LIG    1       25.104 -20.058   4.249  0.00  0.00    +0.005 A 
ATOM      9  C   LIG    1       24.725 -21.452   7.643  0.00  0.00    +0.028 C 
ENDROOT
BRANCH   1  10
ATOM     10  N   LIG    1       25.539 -22.912   5.714  0.00  0.00    -0.299 NA
ATOM     11  H   LIG    1       24.681 -23.064   5.189  0.00  0.00    +0.123 HD
BRANCH  10  12
ATOM     12  C   LIG    1       25.721 -23.982   6.683  0.00  0.00    +0.171 C 
BRANCH  12  14
ATOM     13  C   LIG    1       24.182 -26.057   6.006  0.00  0.00    +0.005 C 
ATOM     14  C   LIG    1       24.873 -25.128   6.330  0.00  0.00    -0.090 C 
ENDBRANCH  12  14
ENDBRANCH  10  12
ENDBRANCH   1  10
TORSDOF 3
ENDMDL
MODEL 2
REMARK VINA RESULT:      -7.2      1.373      4.916
REMARK  Name = *****
REMARK                            x       y       z     vdW  Elec       q    Type
REMARK                         _______ _______ _______ _____ _____    ______ ____
ROOT
ATOM      1  C   LIG    1       22.908 -21.779   6.686  0.00  0.00    +0.085 C 
ATOM      2  C   LIG    1       23.777 -23.015   6.708  0.00  0.00    -0.027 A 
ATOM      3  C   LIG    1       25.114 -22.692   6.975  0.00  0.00    -0.043 A 
ATOM      4  C   LIG    1       26.101 -23.663   6.997  0.00  0.00    +0.004 A 
ATOM      5  C   LIG    1       25.728 -24.987   6.761  0.00  0.00    +0.000 A 
ATOM      6  C   LIG    1       24.389 -25.317   6.498  0.00  0.00    +0.000 A 
ATOM      7  C   LIG    1       25.281 -21.217   7.160  0.00  0.00    +0.037 C 
ATOM      8  C   LIG    1       23.404 -24.328   6.464  0.00  0.00    +0.005 A 
ATOM      9  C   LIG    1       23.835 -20.798   7.447  0.00  0.00    +0.028 C 
ENDROOT
BRANCH   1  10
ATOM     10  N   LIG    1       22.592 -21.416   5.306  0.00  0.00    -0.299 NA
ATOM     11  H   LIG    1       23.279 -21.822   4.674  0.00  0.00    +0.123 HD
BRANCH  10  12
ATOM     12  C   LIG    1       22.515 -19.978   5.094  0.00  0.00    +0.171 C 
BRANCH  12  14
ATOM     13  C   LIG    1       24.559 -19.197   3.562  0.00  0.00    +0.005 C 
ATOM     14  C   LIG    1       23.627 -19.536   4.242  0.00  0.00    -0.090 C 
ENDBRANCH  12  14
ENDBRANCH  10  12
ENDBRANCH   1  10
TORSDOF 3
ENDMDL
MODEL 3
REMARK VINA RESULT:      -7.0      2.446      3.306
REMARK  Name = *****
REMARK                            x       y       z     vdW  Elec       q    Type
REMARK                         _______ _______ _______ _____ _____    ______ ____
ROOT
ATOM      1  C   LIG    1       24.303 -24.150   6.523  0.00  0.00    +0.085 C 
ATOM      2  C   LIG    1       25.017 -22.975   7.151  0.00  0.00    -0.027 A 
ATOM      3  C   LIG    1       24.186 -21.849   7.212  0.00  0.00    -0.043 A 
ATOM      4  C   LIG    1       24.646 -20.640   7.706  0.00  0.00    +0.004 A 
ATOM      5  C   LIG    1       25.962 -20.571   8.163  0.00  0.00    +0.000 A 
ATOM      6  C   LIG    1       26.798 -21.698   8.108  0.00  0.00    +0.000 A 
ATOM      7  C   LIG    1       22.838 -22.147   6.637  0.00  0.00    +0.037 C 
ATOM      8  C   LIG    1       26.329 -22.910   7.594  0.00  0.00    +0.005 A 
ATOM      9  C   LIG    1       22.837 -23.679   6.689  0.00  0.00    +0.028 C 
ENDROOT
BRANCH   1  10
ATOM     10  N   LIG    1       24.762 -24.335   5.147  0.00  0.00    -0.299 NA
ATOM     11  H   LIG    1       24.045 -24.019   4.497  0.00  0.00    +0.123 HD
BRANCH  10  12
ATOM     12  C   LIG    1       25.130 -25.710   4.845  0.00  0.00    +0.171 C 
BRANCH  12  14
ATOM     13  C   LIG    1       26.029 -26.944   7.036  0.00  0.00    +0.005 C 
ATOM     14  C   LIG    1       25.633 -26.372   6.055  0.00  0.00    -0.090 C 
ENDBRANCH  12  14
ENDBRANCH  10  12
ENDBRANCH   1  10
TORSDOF 3
ENDMDL
MODEL 4
REMARK VINA RESULT:      -6.9      1.526      3.370
REMARK  Name = *****
REMARK                            x       y       z     vdW  Elec       q    Type
REMARK                         _______ _______ _______ _____ _____    ______ ____
ROOT
ATOM      1  C   LIG    1       23.180 -20.862   5.947  0.00  0.00    +0.085 C 
ATOM      2  C   LIG    1       24.582 -20.772   6.503  0.00  0.00    -0.027 A 
ATOM      3  C   LIG    1       25.490 -20.339   5.527  0.00  0.00    -0.043 A 
ATOM      4  C   LIG    1       26.843 -20.229   5.800  0.00  0.00    +0.004 A 
ATOM      5  C   LIG    1       27.286 -20.545   7.084  0.00  0.00    +0.000 A 
ATOM      6  C   LIG    1       26.380 -20.976   8.067  0.00  0.00    +0.000 A 
ATOM      7  C   LIG    1       24.798 -20.093   4.225  0.00  0.00    +0.037 C 
ATOM      8  C   LIG    1       25.019 -21.097   7.779  0.00  0.00    +0.005 A 
ATOM      9  C   LIG    1       23.343 -19.968   4.693  0.00  0.00    +0.028 C 
ENDROOT
BRANCH   1  10
ATOM     10  N   LIG    1       22.833 -22.259   5.693  0.00  0.00    -0.299 NA
ATOM     11  H   LIG    1       21.911 -22.315   5.265  0.00  0.00    +0.123 HD
BRANCH  10  12
ATOM     12  C   LIG    1       22.873 -23.087   6.889  0.00  0.00    +0.171 C 
BRANCH  12  14
ATOM     13  C   LIG    1       24.100 -25.399   6.359  0.00  0.00    +0.005 C 
ATOM     14  C   LIG    1       23.530 -24.366   6.592  0.00  0.00    -0.090 C 
ENDBRANCH  12  14
ENDBRANCH  10  12
ENDBRANCH   1  10
TORSDOF 3
ENDMDL
MODEL 5
REMARK VINA RESULT:      -6.8      1.709      3.194
REMARK  Name = *****
REMARK                            x       y       z     vdW  Elec       q    Type
REMARK                         _______ _______ _______ _____ _____    ______ ____
ROOT
ATOM      1  C   LIG    1       23.392 -21.651   7.047  0.00  0.00    +0.085 C 
ATOM      2  C   LIG    1       23.325 -20.762   5.827  0.00  0.00    -0.027 A 
ATOM      3  C   LIG    1       24.156 -21.238   4.804  0.00  0.00    -0.043 A 
ATOM      4  C   LIG    1       24.290 -20.555   3.607  0.00  0.00    +0.004 A 
ATOM      5  C   LIG    1       23.561 -19.378   3.433  0.00  0.00    +0.000 A 
ATOM      6  C   LIG    1       22.724 -18.898   4.453  0.00  0.00    +0.000 A 
ATOM      7  C   LIG    1       24.861 -22.488   5.226  0.00  0.00    +0.037 C 
ATOM      8  C   LIG    1       22.605 -19.588   5.662  0.00  0.00    +0.005 A 
ATOM      9  C   LIG    1       23.981 -22.930   6.401  0.00  0.00    +0.028 C 
ENDROOT
BRANCH   1  10
ATOM     10  N   LIG    1       24.214 -21.021   8.079  0.00  0.00    -0.299 NA
ATOM     11  H   LIG    1       24.437 -20.066   7.809  0.00  0.00    +0.123 HD
BRANCH  10  12
ATOM     12  C   LIG    1       25.439 -21.753   8.363  0.00  0.00    +0.171 C 
BRANCH  12  14
ATOM     13  C   LIG    1       27.572 -20.269   7.748  0.00  0.00    +0.005 C 
ATOM     14  C   LIG    1       26.606 -20.923   8.038  0.00  0.00    -0.090 C 
ENDBRANCH  12  14
ENDBRANCH  10  12
ENDBRANCH   1  10
TORSDOF 3
ENDMDL
MODEL 6
REMARK VINA RESULT:      -6.7      2.422      3.697
REMARK  Name = *****
REMARK                            x       y       z     vdW  Elec       q    Type
REMARK                         _______ _______ _______ _____ _____    ______ ____
ROOT
ATOM      1  C   LIG    1       26.693 -20.441   7.089  0.00  0.00    +0.085 C 
ATOM      2  C   LIG    1       25.638 -20.431   6.008  0.00  0.00    -0.027 A 
ATOM      3  C   LIG    1       24.447 -21.021   6.454  0.00  0.00    -0.043 A 
ATOM      4  C   LIG    1       23.355 -21.165   5.615  0.00  0.00    +0.004 A 
ATOM      5  C   LIG    1       23.460 -20.689   4.307  0.00  0.00    +0.000 A 
ATOM      6  C   LIG    1       24.649 -20.094   3.856  0.00  0.00    +0.000 A 
ATOM      7  C   LIG    1       24.578 -21.484   7.870  0.00  0.00    +0.037 C 
ATOM      8  C   LIG    1       25.750 -19.966   4.706  0.00  0.00    +0.005 A 
ATOM      9  C   LIG    1       25.792 -20.666   8.328  0.00  0.00    +0.028 C 
ENDROOT
BRANCH   1  10
ATOM     10  N   LIG    1       27.676 -21.489   6.816  0.00  0.00    -0.299 NA
ATOM     11  H   LIG    1       27.443 -22.328   7.342  0.00  0.00    +0.123 HD
BRANCH  10  12
ATOM     12  C   LIG    1       29.043 -21.084   7.111  0.00  0.00    +0.171 C 
BRANCH  12  14
ATOM     13  C   LIG    1       29.567 -18.692   6.046  0.00  0.00    +0.005 C 
ATOM     14  C   LIG    1       29.318 -19.772   6.511  0.00  0.00    -0.090 C 
ENDBRANCH  12  14
ENDBRANCH  10  12
ENDBRANCH   1  10
TORSDOF 3
ENDMDL
MODEL 7
REMARK VINA RESULT:      -6.7      2.094      4.544
REMARK  Name = *****
REMARK                            x       y       z     vdW  Elec       q    Type
REMARK                         _______ _______ _______ _____ _____    ______ ____
ROOT
ATOM      1  C   LIG    1       24.771 -21.571   6.326  0.00  0.00    +0.085 C 
ATOM      2  C   LIG    1       26.132 -20.914   6.342  0.00  0.00    -0.027 A 
ATOM      3  C   LIG    1       26.792 -21.143   7.557  0.00  0.00    -0.043 A 
ATOM      4  C   LIG    1       28.037 -20.594   7.816  0.00  0.00    +0.004 A 
ATOM      5  C   LIG    1       28.634 -19.815   6.824  0.00  0.00    +0.000 A 
ATOM      6  C   LIG    1       27.978 -19.586   5.603  0.00  0.00    +0.000 A 
ATOM      7  C   LIG    1       25.951 -21.972   8.475  0.00  0.00    +0.037 C 
ATOM      8  C   LIG    1       26.717 -20.133   5.358  0.00  0.00    +0.005 A 
ATOM      9  C   LIG    1       24.961 -22.588   7.479  0.00  0.00    +0.028 C 
ENDROOT
BRANCH   1  10
ATOM     10  N   LIG    1       23.729 -20.566   6.527  0.00  0.00    -0.299 NA
ATOM     11  H   LIG    1       23.343 -20.650   7.465  0.00  0.00    +0.123 HD
BRANCH  10  12
ATOM     12  C   LIG    1       22.659 -20.644   5.543  0.00  0.00    +0.171 C 
BRANCH  12  14
ATOM     13  C   LIG    1       22.247 -18.246   4.443  0.00  0.00    +0.005 C 
ATOM     14  C   LIG    1       22.448 -19.328   4.926  0.00  0.00    -0.090 C 
ENDBRANCH  12  14
ENDBRANCH  10  12
ENDBRANCH   1  10
TORSDOF 3
ENDMDL
MODEL 8
REMARK VINA RESULT:      -6.7      2.078      4.616
REMARK  Name = *****
REMARK                            x       y       z     vdW  Elec       q    Type
REMARK                         _______ _______ _______ _____ _____    ______ ____
ROOT
ATOM      1  C   LIG    1       25.060 -21.535   7.100  0.00  0.00    +0.085 C 
ATOM      2  C   LIG    1       25.033 -23.018   6.809  0.00  0.00    -0.027 A 
ATOM      3  C   LIG    1       23.719 -23.487   6.676  0.00  0.00    -0.043 A 
ATOM      4  C   LIG    1       23.451 -24.827   6.454  0.00  0.00    +0.004 A 
ATOM      5  C   LIG    1       24.528 -25.707   6.347  0.00  0.00    +0.000 A 
ATOM      6  C   LIG    1       25.847 -25.242   6.476  0.00  0.00    +0.000 A 
ATOM      7  C   LIG    1       22.734 -22.376   6.861  0.00  0.00    +0.037 C 
ATOM      8  C   LIG    1       26.106 -23.890   6.714  0.00  0.00    +0.005 A 
ATOM      9  C   LIG    1       23.633 -21.155   6.633  0.00  0.00    +0.028 C 
ENDROOT
BRANCH   1  10
ATOM     10  N   LIG    1       25.348 -21.310   8.516  0.00  0.00    -0.299 NA
ATOM     11  H   LIG    1       24.512 -20.977   8.991  0.00  0.00    +0.123 HD
BRANCH  10  12
ATOM     12  C   LIG    1       26.446 -20.380   8.736  0.00  0.00    +0.171 C 
BRANCH  12  14
ATOM     13  C   LIG    1       28.547 -21.023   7.219  0.00  0.00    +0.005 C 
ATOM     14  C   LIG    1       27.589 -20.744   7.890  0.00  0.00    -0.090 C 
ENDBRANCH  12  14
ENDBRANCH  10  12
ENDBRANCH   1  10
TORSDOF 3
ENDMDL
MODEL 9
REMARK VINA RESULT:      -6.6      2.533      4.093
REMARK  Name = *****
REMARK                            x       y       z     vdW  Elec       q    Type
REMARK                         _______ _______ _______ _____ _____    ______ ____
ROOT
ATOM      1  C   LIG    1       26.589 -20.291   6.951  0.00  0.00    +0.085 C 
ATOM      2  C   LIG    1       25.211 -20.711   6.493  0.00  0.00    -0.027 A 
ATOM      3  C   LIG    1       24.583 -21.520   7.450  0.00  0.00    -0.043 A 
ATOM      4  C   LIG    1       23.329 -22.062   7.224  0.00  0.00    +0.004 A 
ATOM      5  C   LIG    1       22.691 -21.770   6.018  0.00  0.00    +0.000 A 
ATOM      6  C   LIG    1       23.314 -20.957   5.057  0.00  0.00    +0.000 A 
ATOM      7  C   LIG    1       25.465 -21.723   8.640  0.00  0.00    +0.037 C 
ATOM      8  C   LIG    1       24.585 -20.426   5.289  0.00  0.00    +0.005 A 
ATOM      9  C   LIG    1       26.450 -20.561   8.469  0.00  0.00    +0.028 C 
ENDROOT
BRANCH   1  10
ATOM     10  N   LIG    1       27.607 -21.074   6.253  0.00  0.00    -0.299 NA
ATOM     11  H   LIG    1       27.313 -22.046   6.189  0.00  0.00    +0.123 HD
BRANCH  10  12
ATOM     12  C   LIG    1       28.919 -20.995   6.878  0.00  0.00    +0.171 C 
BRANCH  12  14
ATOM     13  C   LIG    1       29.988 -18.587   6.440  0.00  0.00    +0.005 C 
ATOM     14  C   LIG    1       29.517 -19.678   6.622  0.00  0.00    -0.090 C 
ENDBRANCH  12  14
ENDBRANCH  10  12
ENDBRANCH   1  10
TORSDOF 3
ENDMDL
