MODEL 1
REMARK VINA RESULT:      -8.6      0.000      0.000
REMARK  Name = *****
REMARK                            x       y       z     vdW  Elec       q    Type
REMARK                         _______ _______ _______ _____ _____    ______ ____
ROOT
ATOM      1  C   LIG    1       25.706 -25.405   6.791  0.00  0.00    +0.000 C 
ATOM      2  C   LIG    1       24.533 -26.038   6.602  0.00  0.00    +0.000 C 
ENDROOT
BRANCH   1   4
ATOM      3  C   LIG    1       25.843 -22.962   7.461  0.00  0.00    +0.074 C 
ATOM      4  C   LIG    1       25.813 -24.283   7.693  0.00  0.00    +0.006 C 
BRANCH   3   7
ATOM      5  C   LIG    1       23.056 -22.298   6.142  0.00  0.00    +0.027 C 
ATOM      6  C   LIG    1       24.357 -22.019   5.416  0.00  0.00    +0.081 C 
ATOM      7  C   LIG    1       25.670 -22.144   6.228  0.00  0.00    +0.195 C 
ATOM      8  N   LIG    1       26.549 -21.297   5.744  0.00  0.00    -0.194 N 
ATOM      9  C   LIG    1       25.911 -20.420   4.823  0.00  0.00    +0.213 A 
ATOM     10  C   LIG    1       26.460 -19.409   4.057  0.00  0.00    +0.079 A 
ATOM     11  C   LIG    1       25.591 -18.440   3.556  0.00  0.00    +0.015 A 
ATOM     12  C   LIG    1       24.243 -18.410   3.965  0.00  0.00    -0.017 A 
ATOM     13  C   LIG    1       23.688 -19.505   4.679  0.00  0.00    -0.007 A 
ATOM     14  C   LIG    1       22.375 -19.358   5.182  0.00  0.00    +0.009 A 
ATOM     15  C   LIG    1       21.657 -18.172   5.022  0.00  0.00    +0.001 A 
ATOM     16  C   LIG    1       22.200 -17.128   4.291  0.00  0.00    +0.001 A 
ATOM     17  C   LIG    1       23.472 -17.261   3.734  0.00  0.00    +0.008 A 
ATOM     18  C   LIG    1       24.534 -20.600   4.923  0.00  0.00    +0.047 A 
ATOM     19  C   LIG    1       24.506 -22.967   4.190  0.00  0.00    +0.027 C 
BRANCH   8  20
ATOM     20  C   LIG    1       27.932 -20.989   6.206  0.00  0.00    +0.358 C 
BRANCH  20  21
ATOM     21  C   LIG    1       27.864 -20.091   7.450  0.00  0.00    +0.074 C 
BRANCH  21  22
ATOM     22  C   LIG    1       29.189 -20.015   8.219  0.00  0.00    +0.031 C 
BRANCH  22  23
ATOM     23  C   LIG    1       30.036 -21.263   7.957  0.00  0.00    +0.198 C 
BRANCH  23  24
ATOM     24  S   LIG    1       31.287 -21.488   9.207  0.00  0.00    +0.080 S 
ATOM     25  O   LIG    1       30.675 -22.111  10.379  0.00  0.00    -0.147 OA
ATOM     26  O   LIG    1       32.100 -20.316   9.288  0.00  0.00    -0.147 OA
BRANCH  24  27
ATOM     27  O   LIG    1       32.155 -22.605   8.451  0.00  0.00    -0.254 OA
ATOM     28  H   LIG    1       31.915 -23.502   8.805  0.00  0.00    +0.244 HD
ENDBRANCH  24  27
ENDBRANCH  23  24
ENDBRANCH  22  23
ENDBRANCH  21  22
ENDBRANCH  20  21
ENDBRANCH   8  20
ENDBRANCH   3   7
ENDBRANCH   1   4
BRANCH   2  29
ATOM     29  C   LIG    1       24.345 -27.186   5.734  0.00  0.00    +0.000 C 
ATOM     30  C   LIG    1       24.948 -28.387   5.837  0.00  0.00    +0.002 C 
BRANCH  30  31
ATOM     31  C   LIG    1       25.760 -28.853   6.948  0.00  0.00    +0.020 C 
ATOM     32  C   LIG    1       25.329 -29.636   7.964  0.00  0.00    +0.021 C 
ATOM     33  C   LIG    1       25.991 -29.549   9.401  0.00  0.00    +0.031 C 
ATOM     34  C   LIG    1       26.630 -28.165   9.664  0.00  0.00    +0.022 C 
ATOM     35  C   LIG    1       27.047 -30.647   9.591  0.00  0.00    +0.022 C 
ATOM     36  C   LIG    1       24.765 -29.793  10.280  0.00  0.00    -0.007 A 
ATOM     37  C   LIG    1       23.697 -30.181   9.443  0.00  0.00    +0.038 A 
ATOM     38  C   LIG    1       22.427 -30.423   9.943  0.00  0.00    +0.024 A 
ATOM     39  C   LIG    1       22.213 -30.274  11.308  0.00  0.00    +0.010 A 
ATOM     40  C   LIG    1       23.261 -29.916  12.175  0.00  0.00    -0.018 A 
ATOM     41  C   LIG    1       22.996 -29.783  13.546  0.00  0.00    +0.008 A 
ATOM     42  C   LIG    1       24.012 -29.479  14.448  0.00  0.00    +0.001 A 
ATOM     43  C   LIG    1       25.311 -29.313  13.987  0.00  0.00    +0.001 A 
ATOM     44  C   LIG    1       25.590 -29.420  12.622  0.00  0.00    +0.009 A 
ATOM     45  C   LIG    1       24.575 -29.699  11.678  0.00  0.00    -0.012 A 
ATOM     46  N   LIG    1       24.062 -30.277   8.055  0.00  0.00    -0.302 N 
BRANCH  46  47
ATOM     47  C   LIG    1       23.930 -31.724   7.692  0.00  0.00    +0.111 C 
BRANCH  47  48
ATOM     48  C   LIG    1       25.250 -32.489   7.570  0.00  0.00    +0.021 C 
BRANCH  48  49
ATOM     49  C   LIG    1       25.310 -33.612   6.519  0.00  0.00    +0.027 C 
BRANCH  49  50
ATOM     50  C   LIG    1       26.394 -33.267   5.491  0.00  0.00    +0.198 C 
BRANCH  50  51
ATOM     51  S   LIG    1       25.768 -32.935   3.859  0.00  0.00    +0.080 S 
ATOM     52  O   LIG    1       24.597 -33.775   3.591  0.00  0.00    -0.147 OA
ATOM     53  O   LIG    1       26.839 -32.790   2.911  0.00  0.00    -0.147 OA
BRANCH  51  54
ATOM     54  O   LIG    1       25.201 -31.445   4.154  0.00  0.00    -0.254 OA
ATOM     55  H   LIG    1       25.638 -31.085   4.957  0.00  0.00    +0.244 HD
ENDBRANCH  51  54
ENDBRANCH  50  51
ENDBRANCH  49  50
ENDBRANCH  48  49
ENDBRANCH  47  48
ENDBRANCH  46  47
ENDBRANCH  30  31
ENDBRANCH   2  29
TORSDOF 16
ENDMDL
MODEL 2
REMARK VINA RESULT:      -7.7      3.506     11.562
REMARK  Name = *****
REMARK                            x       y       z     vdW  Elec       q    Type
REMARK                         _______ _______ _______ _____ _____    ______ ____
ROOT
ATOM      1  C   LIG    1       25.236 -27.963   7.569  0.00  0.00    +0.000 C 
ATOM      2  C   LIG    1       25.474 -27.252   6.451  0.00  0.00    +0.000 C 
ENDROOT
BRANCH   1   4
ATOM      3  C   LIG    1       26.289 -29.442   9.341  0.00  0.00    +0.074 C 
ATOM      4  C   LIG    1       26.282 -28.728   8.206  0.00  0.00    +0.006 C 
BRANCH   3   7
ATOM      5  C   LIG    1       25.927 -28.115  12.180  0.00  0.00    +0.027 C 
ATOM      6  C   LIG    1       25.176 -29.375  11.798  0.00  0.00    +0.081 C 
ATOM      7  C   LIG    1       25.223 -29.814  10.313  0.00  0.00    +0.195 C 
ATOM      8  N   LIG    1       24.102 -30.430  10.018  0.00  0.00    -0.194 N 
ATOM      9  C   LIG    1       23.171 -30.262  11.081  0.00  0.00    +0.213 A 
ATOM     10  C   LIG    1       21.891 -30.770  11.208  0.00  0.00    +0.079 A 
ATOM     11  C   LIG    1       21.042 -30.145  12.121  0.00  0.00    +0.015 A 
ATOM     12  C   LIG    1       21.427 -28.945  12.749  0.00  0.00    -0.017 A 
ATOM     13  C   LIG    1       22.772 -28.495  12.667  0.00  0.00    -0.007 A 
ATOM     14  C   LIG    1       23.066 -27.218  13.197  0.00  0.00    +0.009 A 
ATOM     15  C   LIG    1       22.074 -26.406  13.748  0.00  0.00    +0.001 A 
ATOM     16  C   LIG    1       20.774 -26.877  13.853  0.00  0.00    +0.001 A 
ATOM     17  C   LIG    1       20.461 -28.154  13.389  0.00  0.00    +0.008 A 
ATOM     18  C   LIG    1       23.674 -29.311  11.963  0.00  0.00    +0.047 A 
ATOM     19  C   LIG    1       25.691 -30.585  12.630  0.00  0.00    +0.027 C 
BRANCH   8  20
ATOM     20  C   LIG    1       23.633 -30.986   8.718  0.00  0.00    +0.358 C 
BRANCH  20  21
ATOM     21  C   LIG    1       23.826 -32.509   8.716  0.00  0.00    +0.074 C 
BRANCH  21  22
ATOM     22  C   LIG    1       24.797 -32.999   7.635  0.00  0.00    +0.031 C 
BRANCH  22  23
ATOM     23  C   LIG    1       24.420 -32.419   6.269  0.00  0.00    +0.198 C 
BRANCH  23  24
ATOM     24  S   LIG    1       25.843 -31.790   5.401  0.00  0.00    +0.080 S 
ATOM     25  O   LIG    1       25.573 -30.415   4.987  0.00  0.00    -0.147 OA
ATOM     26  O   LIG    1       26.337 -32.787   4.503  0.00  0.00    -0.147 OA
BRANCH  24  27
ATOM     27  O   LIG    1       26.856 -31.742   6.644  0.00  0.00    -0.254 OA
ATOM     28  H   LIG    1       26.335 -31.704   7.489  0.00  0.00    +0.244 HD
ENDBRANCH  24  27
ENDBRANCH  23  24
ENDBRANCH  22  23
ENDBRANCH  21  22
ENDBRANCH  20  21
ENDBRANCH   8  20
ENDBRANCH   3   7
ENDBRANCH   1   4
BRANCH   2  29
ATOM     29  C   LIG    1       24.488 -26.438   5.764  0.00  0.00    +0.000 C 
ATOM     30  C   LIG    1       24.096 -25.191   6.092  0.00  0.00    +0.002 C 
BRANCH  30  31
ATOM     31  C   LIG    1       24.717 -24.321   7.075  0.00  0.00    +0.020 C 
ATOM     32  C   LIG    1       24.894 -22.986   6.946  0.00  0.00    +0.021 C 
ATOM     33  C   LIG    1       26.102 -22.249   7.659  0.00  0.00    +0.031 C 
ATOM     34  C   LIG    1       27.295 -23.199   7.914  0.00  0.00    +0.022 C 
ATOM     35  C   LIG    1       25.658 -21.613   8.985  0.00  0.00    +0.022 C 
ATOM     36  C   LIG    1       26.428 -21.185   6.611  0.00  0.00    -0.007 A 
ATOM     37  C   LIG    1       25.411 -21.210   5.632  0.00  0.00    +0.038 A 
ATOM     38  C   LIG    1       25.452 -20.391   4.515  0.00  0.00    +0.024 A 
ATOM     39  C   LIG    1       26.531 -19.528   4.365  0.00  0.00    +0.010 A 
ATOM     40  C   LIG    1       27.547 -19.457   5.335  0.00  0.00    -0.018 A 
ATOM     41  C   LIG    1       28.614 -18.567   5.141  0.00  0.00    +0.008 A 
ATOM     42  C   LIG    1       29.616 -18.427   6.097  0.00  0.00    +0.001 A 
ATOM     43  C   LIG    1       29.558 -19.173   7.266  0.00  0.00    +0.001 A 
ATOM     44  C   LIG    1       28.515 -20.082   7.466  0.00  0.00    +0.009 A 
ATOM     45  C   LIG    1       27.498 -20.268   6.502  0.00  0.00    -0.012 A 
ATOM     46  N   LIG    1       24.371 -22.162   5.911  0.00  0.00    -0.302 N 
BRANCH  46  47
ATOM     47  C   LIG    1       23.129 -21.360   6.153  0.00  0.00    +0.111 C 
BRANCH  47  48
ATOM     48  C   LIG    1       22.081 -21.427   5.038  0.00  0.00    +0.021 C 
BRANCH  48  49
ATOM     49  C   LIG    1       21.550 -20.088   4.500  0.00  0.00    +0.027 C 
BRANCH  49  50
ATOM     50  C   LIG    1       22.223 -18.946   5.271  0.00  0.00    +0.198 C 
BRANCH  50  51
ATOM     51  S   LIG    1       22.504 -17.481   4.302  0.00  0.00    +0.080 S 
ATOM     52  O   LIG    1       23.773 -17.595   3.579  0.00  0.00    -0.147 OA
ATOM     53  O   LIG    1       22.142 -16.297   5.032  0.00  0.00    -0.147 OA
BRANCH  51  54
ATOM     54  O   LIG    1       21.333 -17.730   3.207  0.00  0.00    -0.254 OA
ATOM     55  H   LIG    1       20.761 -16.934   3.158  0.00  0.00    +0.244 HD
ENDBRANCH  51  54
ENDBRANCH  50  51
ENDBRANCH  49  50
ENDBRANCH  48  49
ENDBRANCH  47  48
ENDBRANCH  46  47
ENDBRANCH  30  31
ENDBRANCH   2  29
TORSDOF 16
ENDMDL
MODEL 3
REMARK VINA RESULT:      -7.1      2.576      2.952
REMARK  Name = *****
REMARK                            x       y       z     vdW  Elec       q    Type
REMARK                         _______ _______ _______ _____ _____    ______ ____
ROOT
ATOM      1  C   LIG    1       25.453 -25.177   6.485  0.00  0.00    +0.000 C 
ATOM      2  C   LIG    1       24.537 -26.132   6.734  0.00  0.00    +0.000 C 
ENDROOT
BRANCH   1   4
ATOM      3  C   LIG    1       25.798 -22.775   7.226  0.00  0.00    +0.074 C 
ATOM      4  C   LIG    1       25.679 -24.098   7.417  0.00  0.00    +0.006 C 
BRANCH   3   7
ATOM      5  C   LIG    1       23.022 -22.040   5.921  0.00  0.00    +0.027 C 
ATOM      6  C   LIG    1       24.328 -21.738   5.215  0.00  0.00    +0.081 C 
ATOM      7  C   LIG    1       25.636 -21.904   6.028  0.00  0.00    +0.195 C 
ATOM      8  N   LIG    1       26.522 -21.043   5.585  0.00  0.00    -0.194 N 
ATOM      9  C   LIG    1       25.894 -20.124   4.699  0.00  0.00    +0.213 A 
ATOM     10  C   LIG    1       26.453 -19.084   3.980  0.00  0.00    +0.079 A 
ATOM     11  C   LIG    1       25.592 -18.090   3.515  0.00  0.00    +0.015 A 
ATOM     12  C   LIG    1       24.242 -18.070   3.918  0.00  0.00    -0.017 A 
ATOM     13  C   LIG    1       23.677 -19.191   4.582  0.00  0.00    -0.007 A 
ATOM     14  C   LIG    1       22.362 -19.059   5.084  0.00  0.00    +0.009 A 
ATOM     15  C   LIG    1       21.652 -17.863   4.971  0.00  0.00    +0.001 A 
ATOM     16  C   LIG    1       22.205 -16.791   4.287  0.00  0.00    +0.001 A 
ATOM     17  C   LIG    1       23.478 -16.907   3.732  0.00  0.00    +0.008 A 
ATOM     18  C   LIG    1       24.516 -20.300   4.784  0.00  0.00    +0.047 A 
ATOM     19  C   LIG    1       24.479 -22.633   3.951  0.00  0.00    +0.027 C 
BRANCH   8  20
ATOM     20  C   LIG    1       27.904 -20.763   6.067  0.00  0.00    +0.358 C 
BRANCH  20  21
ATOM     21  C   LIG    1       27.854 -20.358   7.548  0.00  0.00    +0.074 C 
BRANCH  21  22
ATOM     22  C   LIG    1       29.220 -20.418   8.242  0.00  0.00    +0.031 C 
BRANCH  22  23
ATOM     23  C   LIG    1       30.043 -19.169   7.921  0.00  0.00    +0.198 C 
BRANCH  23  24
ATOM     24  S   LIG    1       31.342 -18.907   9.114  0.00  0.00    +0.080 S 
ATOM     25  O   LIG    1       32.200 -20.089   9.143  0.00  0.00    -0.147 OA
ATOM     26  O   LIG    1       30.796 -18.316  10.295  0.00  0.00    -0.147 OA
BRANCH  24  27
ATOM     27  O   LIG    1       32.126 -17.745   8.333  0.00  0.00    -0.254 OA
ATOM     28  H   LIG    1       33.032 -17.640   8.727  0.00  0.00    +0.244 HD
ENDBRANCH  24  27
ENDBRANCH  23  24
ENDBRANCH  22  23
ENDBRANCH  21  22
ENDBRANCH  20  21
ENDBRANCH   8  20
ENDBRANCH   3   7
ENDBRANCH   1   4
BRANCH   2  29
ATOM     29  C   LIG    1       24.264 -27.262   5.865  0.00  0.00    +0.000 C 
ATOM     30  C   LIG    1       24.815 -28.490   5.936  0.00  0.00    +0.002 C 
BRANCH  30  31
ATOM     31  C   LIG    1       25.643 -29.004   7.013  0.00  0.00    +0.020 C 
ATOM     32  C   LIG    1       25.199 -29.702   8.084  0.00  0.00    +0.021 C 
ATOM     33  C   LIG    1       25.958 -29.639   9.473  0.00  0.00    +0.031 C 
ATOM     34  C   LIG    1       26.755 -28.324   9.642  0.00  0.00    +0.022 C 
ATOM     35  C   LIG    1       26.903 -30.838   9.642  0.00  0.00    +0.022 C 
ATOM     36  C   LIG    1       24.773 -29.721  10.434  0.00  0.00    -0.007 A 
ATOM     37  C   LIG    1       23.618 -30.019   9.680  0.00  0.00    +0.038 A 
ATOM     38  C   LIG    1       22.365 -30.107  10.265  0.00  0.00    +0.024 A 
ATOM     39  C   LIG    1       22.257 -29.891  11.633  0.00  0.00    +0.010 A 
ATOM     40  C   LIG    1       23.390 -29.619  12.421  0.00  0.00    -0.018 A 
ATOM     41  C   LIG    1       23.230 -29.413  13.799  0.00  0.00    +0.008 A 
ATOM     42  C   LIG    1       24.329 -29.191  14.624  0.00  0.00    +0.001 A 
ATOM     43  C   LIG    1       25.606 -29.180  14.080  0.00  0.00    +0.001 A 
ATOM     44  C   LIG    1       25.782 -29.362  12.705  0.00  0.00    +0.009 A 
ATOM     45  C   LIG    1       24.685 -29.561  11.836  0.00  0.00    -0.012 A 
ATOM     46  N   LIG    1       23.881 -30.200   8.278  0.00  0.00    -0.302 N 
BRANCH  46  47
ATOM     47  C   LIG    1       23.574 -31.635   7.981  0.00  0.00    +0.111 C 
BRANCH  47  48
ATOM     48  C   LIG    1       23.317 -32.515   9.208  0.00  0.00    +0.021 C 
BRANCH  48  49
ATOM     49  C   LIG    1       22.173 -33.538   9.104  0.00  0.00    +0.027 C 
BRANCH  49  50
ATOM     50  C   LIG    1       21.386 -33.530  10.421  0.00  0.00    +0.198 C 
BRANCH  50  51
ATOM     51  S   LIG    1       19.625 -33.386  10.213  0.00  0.00    +0.080 S 
ATOM     52  O   LIG    1       18.940 -33.825  11.432  0.00  0.00    -0.147 OA
ATOM     53  O   LIG    1       19.218 -33.825   8.906  0.00  0.00    -0.147 OA
BRANCH  51  54
ATOM     54  O   LIG    1       19.549 -31.766  10.206  0.00  0.00    -0.254 OA
ATOM     55  H   LIG    1       18.845 -31.473  10.824  0.00  0.00    +0.244 HD
ENDBRANCH  51  54
ENDBRANCH  50  51
ENDBRANCH  49  50
ENDBRANCH  48  49
ENDBRANCH  47  48
ENDBRANCH  46  47
ENDBRANCH  30  31
ENDBRANCH   2  29
TORSDOF 16
ENDMDL
MODEL 4
REMARK VINA RESULT:      -6.6      3.729      6.334
REMARK  Name = *****
REMARK                            x       y       z     vdW  Elec       q    Type
REMARK                         _______ _______ _______ _____ _____    ______ ____
ROOT
ATOM      1  C   LIG    1       25.587 -27.488   7.993  0.00  0.00    +0.000 C 
ATOM      2  C   LIG    1       25.820 -28.745   8.414  0.00  0.00    +0.000 C 
ENDROOT
BRANCH   1   4
ATOM      3  C   LIG    1       26.629 -25.442   6.915  0.00  0.00    +0.074 C 
ATOM      4  C   LIG    1       26.629 -26.700   7.379  0.00  0.00    +0.006 C 
BRANCH   3   7
ATOM      5  C   LIG    1       27.330 -22.366   6.902  0.00  0.00    +0.027 C 
ATOM      6  C   LIG    1       25.927 -22.853   7.205  0.00  0.00    +0.081 C 
ATOM      7  C   LIG    1       25.617 -24.348   6.948  0.00  0.00    +0.195 C 
ATOM      8  N   LIG    1       24.353 -24.467   6.614  0.00  0.00    -0.194 N 
ATOM      9  C   LIG    1       23.798 -23.178   6.380  0.00  0.00    +0.213 A 
ATOM     10  C   LIG    1       22.501 -22.835   6.047  0.00  0.00    +0.079 A 
ATOM     11  C   LIG    1       22.297 -21.578   5.476  0.00  0.00    +0.015 A 
ATOM     12  C   LIG    1       23.394 -20.778   5.102  0.00  0.00    -0.017 A 
ATOM     13  C   LIG    1       24.705 -21.115   5.532  0.00  0.00    -0.007 A 
ATOM     14  C   LIG    1       25.778 -20.357   5.011  0.00  0.00    +0.009 A 
ATOM     15  C   LIG    1       25.572 -19.338   4.080  0.00  0.00    +0.001 A 
ATOM     16  C   LIG    1       24.283 -18.998   3.700  0.00  0.00    +0.001 A 
ATOM     17  C   LIG    1       23.198 -19.691   4.237  0.00  0.00    +0.008 A 
ATOM     18  C   LIG    1       24.833 -22.249   6.352  0.00  0.00    +0.047 A 
ATOM     19  C   LIG    1       25.570 -22.578   8.694  0.00  0.00    +0.027 C 
BRANCH   8  20
ATOM     20  C   LIG    1       23.582 -25.678   6.214  0.00  0.00    +0.358 C 
BRANCH  20  21
ATOM     21  C   LIG    1       24.367 -26.451   5.145  0.00  0.00    +0.074 C 
BRANCH  21  22
ATOM     22  C   LIG    1       24.002 -27.939   5.078  0.00  0.00    +0.031 C 
BRANCH  22  23
ATOM     23  C   LIG    1       25.250 -28.789   4.824  0.00  0.00    +0.198 C 
BRANCH  23  24
ATOM     24  S   LIG    1       25.031 -30.468   5.380  0.00  0.00    +0.080 S 
ATOM     25  O   LIG    1       23.683 -30.612   5.925  0.00  0.00    -0.147 OA
ATOM     26  O   LIG    1       26.201 -30.897   6.081  0.00  0.00    -0.147 OA
BRANCH  24  27
ATOM     27  O   LIG    1       25.061 -31.181   3.944  0.00  0.00    -0.254 OA
ATOM     28  H   LIG    1       25.896 -30.925   3.469  0.00  0.00    +0.244 HD
ENDBRANCH  24  27
ENDBRANCH  23  24
ENDBRANCH  22  23
ENDBRANCH  21  22
ENDBRANCH  20  21
ENDBRANCH   8  20
ENDBRANCH   3   7
ENDBRANCH   1   4
BRANCH   2  29
ATOM     29  C   LIG    1       24.824 -29.612   9.017  0.00  0.00    +0.000 C 
ATOM     30  C   LIG    1       24.877 -30.180  10.239  0.00  0.00    +0.002 C 
BRANCH  30  31
ATOM     31  C   LIG    1       25.840 -29.887  11.285  0.00  0.00    +0.020 C 
ATOM     32  C   LIG    1       25.589 -29.180  12.411  0.00  0.00    +0.021 C 
ATOM     33  C   LIG    1       26.732 -28.347  13.125  0.00  0.00    +0.031 C 
ATOM     34  C   LIG    1       27.847 -27.924  12.140  0.00  0.00    +0.022 C 
ATOM     35  C   LIG    1       27.348 -29.136  14.290  0.00  0.00    +0.022 C 
ATOM     36  C   LIG    1       25.924 -27.150  13.626  0.00  0.00    -0.007 A 
ATOM     37  C   LIG    1       24.556 -27.430  13.419  0.00  0.00    +0.038 A 
ATOM     38  C   LIG    1       23.567 -26.508  13.725  0.00  0.00    +0.024 A 
ATOM     39  C   LIG    1       23.947 -25.278  14.247  0.00  0.00    +0.010 A 
ATOM     40  C   LIG    1       25.299 -24.976  14.492  0.00  0.00    -0.018 A 
ATOM     41  C   LIG    1       25.632 -23.722  15.024  0.00  0.00    +0.008 A 
ATOM     42  C   LIG    1       26.951 -23.398  15.329  0.00  0.00    +0.001 A 
ATOM     43  C   LIG    1       27.955 -24.333  15.112  0.00  0.00    +0.001 A 
ATOM     44  C   LIG    1       27.644 -25.579  14.562  0.00  0.00    +0.009 A 
ATOM     45  C   LIG    1       26.319 -25.927  14.214  0.00  0.00    -0.012 A 
ATOM     46  N   LIG    1       24.315 -28.732  12.859  0.00  0.00    -0.302 N 
BRANCH  46  47
ATOM     47  C   LIG    1       23.579 -29.505  13.909  0.00  0.00    +0.111 C 
BRANCH  47  48
ATOM     48  C   LIG    1       22.319 -30.228  13.425  0.00  0.00    +0.021 C 
BRANCH  48  49
ATOM     49  C   LIG    1       21.429 -29.478  12.419  0.00  0.00    +0.027 C 
BRANCH  49  50
ATOM     50  C   LIG    1       20.173 -30.317  12.153  0.00  0.00    +0.198 C 
BRANCH  50  51
ATOM     51  S   LIG    1       20.211 -31.215  10.618  0.00  0.00    +0.080 S 
ATOM     52  O   LIG    1       19.699 -32.574  10.819  0.00  0.00    -0.147 OA
ATOM     53  O   LIG    1       21.424 -30.955   9.893  0.00  0.00    -0.147 OA
BRANCH  51  54
ATOM     54  O   LIG    1       19.033 -30.391   9.867  0.00  0.00    -0.254 OA
ATOM     55  H   LIG    1       18.175 -30.846  10.016  0.00  0.00    +0.244 HD
ENDBRANCH  51  54
ENDBRANCH  50  51
ENDBRANCH  49  50
ENDBRANCH  48  49
ENDBRANCH  47  48
ENDBRANCH  46  47
ENDBRANCH  30  31
ENDBRANCH   2  29
TORSDOF 16
ENDMDL
MODEL 5
REMARK VINA RESULT:      -6.5      4.305     11.585
REMARK  Name = *****
REMARK                            x       y       z     vdW  Elec       q    Type
REMARK                         _______ _______ _______ _____ _____    ______ ____
ROOT
ATOM      1  C   LIG    1       24.736 -28.127   6.742  0.00  0.00    +0.000 C 
ATOM      2  C   LIG    1       24.551 -26.810   6.531  0.00  0.00    +0.000 C 
ENDROOT
BRANCH   1   4
ATOM      3  C   LIG    1       24.130 -30.088   8.233  0.00  0.00    +0.074 C 
ATOM      4  C   LIG    1       24.085 -28.808   7.836  0.00  0.00    +0.006 C 
BRANCH   3   7
ATOM      5  C   LIG    1       23.383 -31.931   5.784  0.00  0.00    +0.027 C 
ATOM      6  C   LIG    1       24.464 -32.329   6.768  0.00  0.00    +0.081 C 
ATOM      7  C   LIG    1       24.934 -31.261   7.787  0.00  0.00    +0.195 C 
ATOM      8  N   LIG    1       26.197 -31.472   8.071  0.00  0.00    -0.194 N 
ATOM      9  C   LIG    1       26.733 -32.439   7.175  0.00  0.00    +0.213 A 
ATOM     10  C   LIG    1       28.003 -32.984   7.135  0.00  0.00    +0.079 A 
ATOM     11  C   LIG    1       28.405 -33.587   5.943  0.00  0.00    +0.015 A 
ATOM     12  C   LIG    1       27.609 -33.482   4.786  0.00  0.00    -0.017 A 
ATOM     13  C   LIG    1       26.277 -32.996   4.876  0.00  0.00    -0.007 A 
ATOM     14  C   LIG    1       25.577 -32.783   3.667  0.00  0.00    +0.009 A 
ATOM     15  C   LIG    1       26.175 -33.003   2.425  0.00  0.00    +0.001 A 
ATOM     16  C   LIG    1       27.462 -33.513   2.357  0.00  0.00    +0.001 A 
ATOM     17  C   LIG    1       28.161 -33.786   3.532  0.00  0.00    +0.008 A 
ATOM     18  C   LIG    1       25.809 -32.658   6.157  0.00  0.00    +0.047 A 
ATOM     19  C   LIG    1       24.010 -33.562   7.601  0.00  0.00    +0.027 C 
BRANCH   8  20
ATOM     20  C   LIG    1       27.123 -30.695   8.943  0.00  0.00    +0.358 C 
BRANCH  20  21
ATOM     21  C   LIG    1       26.615 -30.742  10.392  0.00  0.00    +0.074 C 
BRANCH  21  22
ATOM     22  C   LIG    1       26.925 -29.468  11.187  0.00  0.00    +0.031 C 
BRANCH  22  23
ATOM     23  C   LIG    1       28.368 -29.490  11.699  0.00  0.00    +0.198 C 
BRANCH  23  24
ATOM     24  S   LIG    1       28.439 -29.453  13.480  0.00  0.00    +0.080 S 
ATOM     25  O   LIG    1       28.239 -30.808  13.988  0.00  0.00    -0.147 OA
ATOM     26  O   LIG    1       27.704 -28.327  13.965  0.00  0.00    -0.147 OA
BRANCH  24  27
ATOM     27  O   LIG    1       29.995 -29.093  13.631  0.00  0.00    -0.254 OA
ATOM     28  H   LIG    1       30.536 -29.914  13.487  0.00  0.00    +0.244 HD
ENDBRANCH  24  27
ENDBRANCH  23  24
ENDBRANCH  22  23
ENDBRANCH  21  22
ENDBRANCH  20  21
ENDBRANCH   8  20
ENDBRANCH   3   7
ENDBRANCH   1   4
BRANCH   2  29
ATOM     29  C   LIG    1       25.147 -26.056   5.443  0.00  0.00    +0.000 C 
ATOM     30  C   LIG    1       25.497 -24.754   5.456  0.00  0.00    +0.002 C 
BRANCH  30  31
ATOM     31  C   LIG    1       25.539 -23.883   6.618  0.00  0.00    +0.020 C 
ATOM     32  C   LIG    1       25.776 -22.552   6.595  0.00  0.00    +0.021 C 
ATOM     33  C   LIG    1       26.458 -21.822   7.825  0.00  0.00    +0.031 C 
ATOM     34  C   LIG    1       27.338 -22.783   8.657  0.00  0.00    +0.022 C 
ATOM     35  C   LIG    1       25.407 -21.169   8.735  0.00  0.00    +0.022 C 
ATOM     36  C   LIG    1       27.291 -20.771   7.090  0.00  0.00    -0.007 A 
ATOM     37  C   LIG    1       26.919 -20.793   5.728  0.00  0.00    +0.038 A 
ATOM     38  C   LIG    1       27.538 -19.985   4.788  0.00  0.00    +0.024 A 
ATOM     39  C   LIG    1       28.553 -19.136   5.211  0.00  0.00    +0.010 A 
ATOM     40  C   LIG    1       28.931 -19.068   6.564  0.00  0.00    -0.018 A 
ATOM     41  C   LIG    1       29.959 -18.192   6.942  0.00  0.00    +0.008 A 
ATOM     42  C   LIG    1       30.331 -18.055   8.276  0.00  0.00    +0.001 A 
ATOM     43  C   LIG    1       29.672 -18.790   9.252  0.00  0.00    +0.001 A 
ATOM     44  C   LIG    1       28.660 -19.684   8.891  0.00  0.00    +0.009 A 
ATOM     45  C   LIG    1       28.278 -19.867   7.543  0.00  0.00    -0.012 A 
ATOM     46  N   LIG    1       25.868 -21.731   5.436  0.00  0.00    -0.302 N 
BRANCH  46  47
ATOM     47  C   LIG    1       24.690 -20.912   5.006  0.00  0.00    +0.111 C 
BRANCH  47  48
ATOM     48  C   LIG    1       23.357 -21.663   4.954  0.00  0.00    +0.021 C 
BRANCH  48  49
ATOM     49  C   LIG    1       22.077 -20.819   5.073  0.00  0.00    +0.027 C 
BRANCH  49  50
ATOM     50  C   LIG    1       22.462 -19.403   5.518  0.00  0.00    +0.198 C 
BRANCH  50  51
ATOM     51  S   LIG    1       22.096 -18.141   4.319  0.00  0.00    +0.080 S 
ATOM     52  O   LIG    1       22.196 -16.816   4.939  0.00  0.00    -0.147 OA
ATOM     53  O   LIG    1       20.983 -18.516   3.491  0.00  0.00    -0.147 OA
BRANCH  51  54
ATOM     54  O   LIG    1       23.431 -18.321   3.415  0.00  0.00    -0.254 OA
ATOM     55  H   LIG    1       23.469 -19.242   3.075  0.00  0.00    +0.244 HD
ENDBRANCH  51  54
ENDBRANCH  50  51
ENDBRANCH  49  50
ENDBRANCH  48  49
ENDBRANCH  47  48
ENDBRANCH  46  47
ENDBRANCH  30  31
ENDBRANCH   2  29
TORSDOF 16
ENDMDL
MODEL 6
REMARK VINA RESULT:      -6.1      6.655      8.520
REMARK  Name = *****
REMARK                            x       y       z     vdW  Elec       q    Type
REMARK                         _______ _______ _______ _____ _____    ______ ____
ROOT
ATOM      1  C   LIG    1       26.402 -27.858  10.562  0.00  0.00    +0.000 C 
ATOM      2  C   LIG    1       26.702 -28.978   9.879  0.00  0.00    +0.000 C 
ENDROOT
BRANCH   1   4
ATOM      3  C   LIG    1       27.098 -27.077  12.873  0.00  0.00    +0.074 C 
ATOM      4  C   LIG    1       27.293 -27.336  11.572  0.00  0.00    +0.006 C 
BRANCH   3   7
ATOM      5  C   LIG    1       24.567 -25.208  13.102  0.00  0.00    +0.027 C 
ATOM      6  C   LIG    1       24.836 -26.298  14.120  0.00  0.00    +0.081 C 
ATOM      7  C   LIG    1       25.954 -27.319  13.797  0.00  0.00    +0.195 C 
ATOM      8  N   LIG    1       25.647 -28.472  14.344  0.00  0.00    -0.194 N 
ATOM      9  C   LIG    1       24.307 -28.431  14.822  0.00  0.00    +0.213 A 
ATOM     10  C   LIG    1       23.590 -29.403  15.495  0.00  0.00    +0.079 A 
ATOM     11  C   LIG    1       22.200 -29.290  15.494  0.00  0.00    +0.015 A 
ATOM     12  C   LIG    1       21.563 -28.323  14.692  0.00  0.00    -0.017 A 
ATOM     13  C   LIG    1       22.321 -27.288  14.082  0.00  0.00    -0.007 A 
ATOM     14  C   LIG    1       21.649 -26.432  13.180  0.00  0.00    +0.009 A 
ATOM     15  C   LIG    1       20.302 -26.613  12.863  0.00  0.00    +0.001 A 
ATOM     16  C   LIG    1       19.569 -27.605  13.495  0.00  0.00    +0.001 A 
ATOM     17  C   LIG    1       20.188 -28.432  14.432  0.00  0.00    +0.008 A 
ATOM     18  C   LIG    1       23.701 -27.274  14.342  0.00  0.00    +0.047 A 
ATOM     19  C   LIG    1       25.196 -25.672  15.499  0.00  0.00    +0.027 C 
BRANCH   8  20
ATOM     20  C   LIG    1       26.358 -29.780  14.278  0.00  0.00    +0.358 C 
BRANCH  20  21
ATOM     21  C   LIG    1       27.421 -29.837  15.385  0.00  0.00    +0.074 C 
BRANCH  21  22
ATOM     22  C   LIG    1       28.672 -30.630  14.988  0.00  0.00    +0.031 C 
BRANCH  22  23
ATOM     23  C   LIG    1       29.474 -29.874  13.925  0.00  0.00    +0.198 C 
BRANCH  23  24
ATOM     24  S   LIG    1       31.214 -29.840  14.309  0.00  0.00    +0.080 S 
ATOM     25  O   LIG    1       31.539 -31.007  15.126  0.00  0.00    -0.147 OA
ATOM     26  O   LIG    1       31.600 -28.511  14.668  0.00  0.00    -0.147 OA
BRANCH  24  27
ATOM     27  O   LIG    1       31.771 -30.103  12.828  0.00  0.00    -0.254 OA
ATOM     28  H   LIG    1       31.548 -29.325  12.252  0.00  0.00    +0.244 HD
ENDBRANCH  24  27
ENDBRANCH  23  24
ENDBRANCH  22  23
ENDBRANCH  21  22
ENDBRANCH  20  21
ENDBRANCH   8  20
ENDBRANCH   3   7
ENDBRANCH   1   4
BRANCH   2  29
ATOM     29  C   LIG    1       25.876 -29.554   8.834  0.00  0.00    +0.000 C 
ATOM     30  C   LIG    1       25.182 -30.709   8.893  0.00  0.00    +0.002 C 
BRANCH  30  31
ATOM     31  C   LIG    1       24.952 -31.517  10.077  0.00  0.00    +0.020 C 
ATOM     32  C   LIG    1       23.790 -32.132  10.397  0.00  0.00    +0.021 C 
ATOM     33  C   LIG    1       23.392 -32.393  11.908  0.00  0.00    +0.031 C 
ATOM     34  C   LIG    1       24.059 -31.381  12.869  0.00  0.00    +0.022 C 
ATOM     35  C   LIG    1       23.751 -33.823  12.337  0.00  0.00    +0.022 C 
ATOM     36  C   LIG    1       21.878 -32.197  11.828  0.00  0.00    -0.007 A 
ATOM     37  C   LIG    1       21.522 -32.091  10.466  0.00  0.00    +0.038 A 
ATOM     38  C   LIG    1       20.216 -31.854  10.069  0.00  0.00    +0.024 A 
ATOM     39  C   LIG    1       19.240 -31.716  11.048  0.00  0.00    +0.010 A 
ATOM     40  C   LIG    1       19.554 -31.843  12.413  0.00  0.00    -0.018 A 
ATOM     41  C   LIG    1       18.532 -31.699  13.364  0.00  0.00    +0.008 A 
ATOM     42  C   LIG    1       18.787 -31.866  14.722  0.00  0.00    +0.001 A 
ATOM     43  C   LIG    1       20.070 -32.187  15.146  0.00  0.00    +0.001 A 
ATOM     44  C   LIG    1       21.104 -32.312  14.214  0.00  0.00    +0.009 A 
ATOM     45  C   LIG    1       20.884 -32.120  12.831  0.00  0.00    -0.012 A 
ATOM     46  N   LIG    1       22.637 -32.239   9.570  0.00  0.00    -0.302 N 
BRANCH  46  47
ATOM     47  C   LIG    1       22.385 -33.498   8.800  0.00  0.00    +0.111 C 
BRANCH  47  48
ATOM     48  C   LIG    1       23.297 -33.716   7.590  0.00  0.00    +0.021 C 
BRANCH  48  49
ATOM     49  C   LIG    1       23.037 -32.837   6.354  0.00  0.00    +0.027 C 
BRANCH  49  50
ATOM     50  C   LIG    1       23.969 -33.290   5.224  0.00  0.00    +0.198 C 
BRANCH  50  51
ATOM     51  S   LIG    1       25.443 -32.306   5.060  0.00  0.00    +0.080 S 
ATOM     52  O   LIG    1       26.629 -33.143   5.261  0.00  0.00    -0.147 OA
ATOM     53  O   LIG    1       25.289 -31.029   5.702  0.00  0.00    -0.147 OA
BRANCH  51  54
ATOM     54  O   LIG    1       25.338 -32.041   3.463  0.00  0.00    -0.254 OA
ATOM     55  H   LIG    1       24.998 -32.851   3.023  0.00  0.00    +0.244 HD
ENDBRANCH  51  54
ENDBRANCH  50  51
ENDBRANCH  49  50
ENDBRANCH  48  49
ENDBRANCH  47  48
ENDBRANCH  46  47
ENDBRANCH  30  31
ENDBRANCH   2  29
TORSDOF 16
ENDMDL
MODEL 7
REMARK VINA RESULT:      -6.0      5.307      8.831
REMARK  Name = *****
REMARK                            x       y       z     vdW  Elec       q    Type
REMARK                         _______ _______ _______ _____ _____    ______ ____
ROOT
ATOM      1  C   LIG    1       25.378 -33.363  10.088  0.00  0.00    +0.000 C 
ATOM      2  C   LIG    1       24.145 -33.275   9.556  0.00  0.00    +0.000 C 
ENDROOT
BRANCH   1   4
ATOM      3  C   LIG    1       26.637 -31.861   8.478  0.00  0.00    +0.074 C 
ATOM      4  C   LIG    1       26.530 -32.828   9.401  0.00  0.00    +0.006 C 
BRANCH   3   7
ATOM      5  C   LIG    1       26.269 -28.879   9.439  0.00  0.00    +0.027 C 
ATOM      6  C   LIG    1       25.272 -29.534   8.505  0.00  0.00    +0.081 C 
ATOM      7  C   LIG    1       25.657 -30.903   7.892  0.00  0.00    +0.195 C 
ATOM      8  N   LIG    1       25.102 -31.009   6.708  0.00  0.00    -0.194 N 
ATOM      9  C   LIG    1       24.555 -29.753   6.323  0.00  0.00    +0.213 A 
ATOM     10  C   LIG    1       23.852 -29.420   5.180  0.00  0.00    +0.079 A 
ATOM     11  C   LIG    1       23.782 -28.069   4.840  0.00  0.00    +0.015 A 
ATOM     12  C   LIG    1       24.545 -27.116   5.543  0.00  0.00    -0.017 A 
ATOM     13  C   LIG    1       25.187 -27.470   6.759  0.00  0.00    -0.007 A 
ATOM     14  C   LIG    1       26.049 -26.515   7.344  0.00  0.00    +0.009 A 
ATOM     15  C   LIG    1       26.298 -25.283   6.738  0.00  0.00    +0.001 A 
ATOM     16  C   LIG    1       25.634 -24.940   5.570  0.00  0.00    +0.001 A 
ATOM     17  C   LIG    1       24.734 -25.838   4.996  0.00  0.00    +0.008 A 
ATOM     18  C   LIG    1       24.998 -28.785   7.219  0.00  0.00    +0.047 A 
ATOM     19  C   LIG    1       23.910 -29.743   9.228  0.00  0.00    +0.027 C 
BRANCH   8  20
ATOM     20  C   LIG    1       25.210 -32.098   5.696  0.00  0.00    +0.358 C 
BRANCH  20  21
ATOM     21  C   LIG    1       26.205 -33.157   6.194  0.00  0.00    +0.074 C 
BRANCH  21  22
ATOM     22  C   LIG    1       27.009 -33.815   5.066  0.00  0.00    +0.031 C 
BRANCH  22  23
ATOM     23  C   LIG    1       26.203 -33.825   3.765  0.00  0.00    +0.198 C 
BRANCH  23  24
ATOM     24  S   LIG    1       27.128 -33.131   2.408  0.00  0.00    +0.080 S 
ATOM     25  O   LIG    1       28.411 -33.822   2.310  0.00  0.00    -0.147 OA
ATOM     26  O   LIG    1       27.015 -31.706   2.430  0.00  0.00    -0.147 OA
BRANCH  24  27
ATOM     27  O   LIG    1       26.193 -33.653   1.214  0.00  0.00    -0.254 OA
ATOM     28  H   LIG    1       25.465 -32.995   1.057  0.00  0.00    +0.244 HD
ENDBRANCH  24  27
ENDBRANCH  23  24
ENDBRANCH  22  23
ENDBRANCH  21  22
ENDBRANCH  20  21
ENDBRANCH   8  20
ENDBRANCH   3   7
ENDBRANCH   1   4
BRANCH   2  29
ATOM     29  C   LIG    1       22.935 -33.763  10.190  0.00  0.00    +0.000 C 
ATOM     30  C   LIG    1       22.654 -33.763  11.509  0.00  0.00    +0.002 C 
BRANCH  30  31
ATOM     31  C   LIG    1       23.411 -33.095  12.552  0.00  0.00    +0.020 C 
ATOM     32  C   LIG    1       23.026 -31.980  13.214  0.00  0.00    +0.021 C 
ATOM     33  C   LIG    1       24.094 -30.962  13.793  0.00  0.00    +0.031 C 
ATOM     34  C   LIG    1       25.430 -31.017  13.017  0.00  0.00    +0.022 C 
ATOM     35  C   LIG    1       24.354 -31.221  15.284  0.00  0.00    +0.022 C 
ATOM     36  C   LIG    1       23.356 -29.641  13.575  0.00  0.00    -0.007 A 
ATOM     37  C   LIG    1       22.036 -29.939  13.175  0.00  0.00    +0.038 A 
ATOM     38  C   LIG    1       21.129 -28.943  12.849  0.00  0.00    +0.024 A 
ATOM     39  C   LIG    1       21.545 -27.619  12.920  0.00  0.00    +0.010 A 
ATOM     40  C   LIG    1       22.845 -27.285  13.340  0.00  0.00    -0.018 A 
ATOM     41  C   LIG    1       23.217 -25.934  13.399  0.00  0.00    +0.008 A 
ATOM     42  C   LIG    1       24.476 -25.555  13.856  0.00  0.00    +0.001 A 
ATOM     43  C   LIG    1       25.378 -26.526  14.270  0.00  0.00    +0.001 A 
ATOM     44  C   LIG    1       25.032 -27.878  14.197  0.00  0.00    +0.009 A 
ATOM     45  C   LIG    1       23.773 -28.297  13.710  0.00  0.00    -0.012 A 
ATOM     46  N   LIG    1       21.754 -31.348  13.132  0.00  0.00    -0.302 N 
BRANCH  46  47
ATOM     47  C   LIG    1       20.727 -31.597  14.194  0.00  0.00    +0.111 C 
BRANCH  47  48
ATOM     48  C   LIG    1       20.032 -32.960  14.123  0.00  0.00    +0.021 C 
BRANCH  48  49
ATOM     49  C   LIG    1       18.954 -33.135  13.040  0.00  0.00    +0.027 C 
BRANCH  49  50
ATOM     50  C   LIG    1       19.632 -33.119  11.664  0.00  0.00    +0.198 C 
BRANCH  50  51
ATOM     51  S   LIG    1       18.873 -32.014  10.494  0.00  0.00    +0.080 S 
ATOM     52  O   LIG    1       17.902 -32.743   9.673  0.00  0.00    -0.147 OA
ATOM     53  O   LIG    1       19.841 -31.119   9.921  0.00  0.00    -0.147 OA
BRANCH  51  54
ATOM     54  O   LIG    1       18.009 -31.147  11.559  0.00  0.00    -0.254 OA
ATOM     55  H   LIG    1       18.611 -30.787  12.246  0.00  0.00    +0.244 HD
ENDBRANCH  51  54
ENDBRANCH  50  51
ENDBRANCH  49  50
ENDBRANCH  48  49
ENDBRANCH  47  48
ENDBRANCH  46  47
ENDBRANCH  30  31
ENDBRANCH   2  29
TORSDOF 16
ENDMDL
MODEL 8
REMARK VINA RESULT:      -5.9      4.176     11.764
REMARK  Name = *****
REMARK                            x       y       z     vdW  Elec       q    Type
REMARK                         _______ _______ _______ _____ _____    ______ ____
ROOT
ATOM      1  C   LIG    1       25.375 -27.953   7.534  0.00  0.00    +0.000 C 
ATOM      2  C   LIG    1       25.453 -27.390   6.314  0.00  0.00    +0.000 C 
ENDROOT
BRANCH   1   4
ATOM      3  C   LIG    1       26.650 -29.293   9.271  0.00  0.00    +0.074 C 
ATOM      4  C   LIG    1       26.453 -28.759   8.056  0.00  0.00    +0.006 C 
BRANCH   3   7
ATOM      5  C   LIG    1       27.378 -27.903  12.008  0.00  0.00    +0.027 C 
ATOM      6  C   LIG    1       26.256 -28.917  11.914  0.00  0.00    +0.081 C 
ATOM      7  C   LIG    1       25.808 -29.360  10.499  0.00  0.00    +0.195 C 
ATOM      8  N   LIG    1       24.529 -29.655  10.532  0.00  0.00    -0.194 N 
ATOM      9  C   LIG    1       23.976 -29.238  11.775  0.00  0.00    +0.213 A 
ATOM     10  C   LIG    1       22.684 -29.383  12.247  0.00  0.00    +0.079 A 
ATOM     11  C   LIG    1       22.286 -28.549  13.292  0.00  0.00    +0.015 A 
ATOM     12  C   LIG    1       23.115 -27.493  13.718  0.00  0.00    -0.017 A 
ATOM     13  C   LIG    1       24.464 -27.420  13.277  0.00  0.00    -0.007 A 
ATOM     14  C   LIG    1       25.203 -26.267  13.625  0.00  0.00    +0.009 A 
ATOM     15  C   LIG    1       24.627 -25.215  14.340  0.00  0.00    +0.001 A 
ATOM     16  C   LIG    1       23.321 -25.320  14.794  0.00  0.00    +0.001 A 
ATOM     17  C   LIG    1       22.582 -26.469  14.515  0.00  0.00    +0.008 A 
ATOM     18  C   LIG    1       24.914 -28.452  12.436  0.00  0.00    +0.047 A 
ATOM     19  C   LIG    1       26.636 -30.216  12.682  0.00  0.00    +0.027 C 
BRANCH   8  20
ATOM     20  C   LIG    1       23.617 -30.071   9.430  0.00  0.00    +0.358 C 
BRANCH  20  21
ATOM     21  C   LIG    1       23.794 -31.573   9.163  0.00  0.00    +0.074 C 
BRANCH  21  22
ATOM     22  C   LIG    1       22.995 -32.461  10.123  0.00  0.00    +0.031 C 
BRANCH  22  23
ATOM     23  C   LIG    1       21.677 -31.785  10.511  0.00  0.00    +0.198 C 
BRANCH  23  24
ATOM     24  S   LIG    1       20.275 -32.841  10.199  0.00  0.00    +0.080 S 
ATOM     25  O   LIG    1       19.145 -32.014   9.782  0.00  0.00    -0.147 OA
ATOM     26  O   LIG    1       20.176 -33.825  11.231  0.00  0.00    -0.147 OA
BRANCH  24  27
ATOM     27  O   LIG    1       20.846 -33.588   8.899  0.00  0.00    -0.254 OA
ATOM     28  H   LIG    1       21.361 -34.389   9.181  0.00  0.00    +0.244 HD
ENDBRANCH  24  27
ENDBRANCH  23  24
ENDBRANCH  22  23
ENDBRANCH  21  22
ENDBRANCH  20  21
ENDBRANCH   8  20
ENDBRANCH   3   7
ENDBRANCH   1   4
BRANCH   2  29
ATOM     29  C   LIG    1       24.428 -26.548   5.726  0.00  0.00    +0.000 C 
ATOM     30  C   LIG    1       24.066 -25.312   6.126  0.00  0.00    +0.002 C 
BRANCH  30  31
ATOM     31  C   LIG    1       24.756 -24.483   7.099  0.00  0.00    +0.020 C 
ATOM     32  C   LIG    1       24.932 -23.145   7.009  0.00  0.00    +0.021 C 
ATOM     33  C   LIG    1       26.189 -22.440   7.668  0.00  0.00    +0.031 C 
ATOM     34  C   LIG    1       27.391 -23.403   7.807  0.00  0.00    +0.022 C 
ATOM     35  C   LIG    1       25.837 -21.854   9.044  0.00  0.00    +0.022 C 
ATOM     36  C   LIG    1       26.451 -21.338   6.642  0.00  0.00    -0.007 A 
ATOM     37  C   LIG    1       25.372 -21.322   5.732  0.00  0.00    +0.038 A 
ATOM     38  C   LIG    1       25.344 -20.461   4.646  0.00  0.00    +0.024 A 
ATOM     39  C   LIG    1       26.416 -19.597   4.458  0.00  0.00    +0.010 A 
ATOM     40  C   LIG    1       27.495 -19.566   5.360  0.00  0.00    -0.018 A 
ATOM     41  C   LIG    1       28.551 -18.673   5.130  0.00  0.00    +0.008 A 
ATOM     42  C   LIG    1       29.615 -18.574   6.022  0.00  0.00    +0.001 A 
ATOM     43  C   LIG    1       29.630 -19.364   7.164  0.00  0.00    +0.001 A 
ATOM     44  C   LIG    1       28.597 -20.275   7.398  0.00  0.00    +0.009 A 
ATOM     45  C   LIG    1       27.517 -20.421   6.497  0.00  0.00    -0.012 A 
ATOM     46  N   LIG    1       24.346 -22.280   6.043  0.00  0.00    -0.302 N 
BRANCH  46  47
ATOM     47  C   LIG    1       23.128 -21.483   6.396  0.00  0.00    +0.111 C 
BRANCH  47  48
ATOM     48  C   LIG    1       21.982 -21.561   5.385  0.00  0.00    +0.021 C 
BRANCH  48  49
ATOM     49  C   LIG    1       21.612 -20.260   4.651  0.00  0.00    +0.027 C 
BRANCH  49  50
ATOM     50  C   LIG    1       22.382 -19.099   5.290  0.00  0.00    +0.198 C 
BRANCH  50  51
ATOM     51  S   LIG    1       22.448 -17.632   4.285  0.00  0.00    +0.080 S 
ATOM     52  O   LIG    1       23.705 -17.596   3.533  0.00  0.00    -0.147 OA
ATOM     53  O   LIG    1       21.953 -16.488   5.002  0.00  0.00    -0.147 OA
BRANCH  51  54
ATOM     54  O   LIG    1       21.294 -18.054   3.226  0.00  0.00    -0.254 OA
ATOM     55  H   LIG    1       20.527 -17.449   3.326  0.00  0.00    +0.244 HD
ENDBRANCH  51  54
ENDBRANCH  50  51
ENDBRANCH  49  50
ENDBRANCH  48  49
ENDBRANCH  47  48
ENDBRANCH  46  47
ENDBRANCH  30  31
ENDBRANCH   2  29
TORSDOF 16
ENDMDL
