MODEL 1
REMARK VINA RESULT:      -2.7      0.000      0.000
REMARK  Name = *****
REMARK                            x       y       z     vdW  Elec       q    Type
REMARK                         _______ _______ _______ _____ _____    ______ ____
ROOT
ATOM      1  N   LIG    1       26.338 -18.574   4.512  0.00  0.00    -0.300 N 
ATOM      2  H   LIG    1       25.368 -18.882   4.528  0.00  0.00    +0.150 HD
ATOM      3  C   LIG    1       27.230 -19.320   5.260  0.00  0.00    +0.235 C 
ATOM      4  O   LIG    1       28.443 -19.145   5.177  0.00  0.00    -0.274 OA
ENDROOT
BRANCH   1  13
ATOM      5  C   LIG    1       24.474 -12.385   3.955  0.00  0.00    +0.042 C 
ATOM      6  C   LIG    1       24.988 -13.812   3.880  0.00  0.00    -0.034 C 
ATOM      7  C   LIG    1       23.806 -14.764   3.745  0.00  0.00    +0.103 C 
ATOM      8  S   LIG    1       24.154 -16.527   3.936  0.00  0.00    -0.131 S 
ATOM      9  C   LIG    1       25.763 -16.456   3.120  0.00  0.00    +0.169 C 
ATOM     10  N   LIG    1       26.593 -15.524   3.856  0.00  0.00    -0.249 N 
ATOM     11  C   LIG    1       27.613 -16.369   4.079  0.00  0.00    +0.244 C 
ATOM     12  O   LIG    1       28.685 -16.155   4.615  0.00  0.00    -0.273 OA
ATOM     13  CA  LIG    1       26.785 -17.570   3.517  0.00  0.00    +0.191 C 
ATOM     14  CA  LIG    1       26.294 -14.193   3.957  0.00  0.00    +0.122 C 
BRANCH  14  15
ATOM     15  C   LIG    1       27.406 -13.174   4.106  0.00  0.00    +0.351 C 
ATOM     16  O   LIG    1       27.793 -12.753   5.187  0.00  0.00    -0.244 OA
BRANCH  15  17
ATOM     17  OXT LIG    1       27.947 -12.689   2.973  0.00  0.00    -0.476 OA
ATOM     18  HXT LIG    1       28.286 -11.767   2.975  0.00  0.00    +0.295 HD
ENDBRANCH  15  17
ENDBRANCH  14  15
ENDBRANCH   1  13
BRANCH   3  19
ATOM     19  CA  LIG    1       26.575 -20.351   6.230  0.00  0.00    +0.168 C 
BRANCH  19  20
ATOM     20  C   LIG    1       25.147 -20.707   5.842  0.00  0.00    -0.022 A 
ATOM     21  C   LIG    1       24.139 -20.818   6.815  0.00  0.00    +0.009 A 
ATOM     22  C   LIG    1       22.824 -21.121   6.456  0.00  0.00    +0.045 A 
ATOM     23  C   LIG    1       22.496 -21.300   5.120  0.00  0.00    +0.117 A 
ATOM     24  C   LIG    1       23.470 -21.198   4.132  0.00  0.00    +0.045 A 
ATOM     25  C   LIG    1       24.792 -20.902   4.493  0.00  0.00    +0.009 A 
BRANCH  23  26
ATOM     26  O   LIG    1       21.195 -21.572   4.819  0.00  0.00    -0.507 OA
ATOM     27  H   LIG    1       20.971 -22.452   5.163  0.00  0.00    +0.292 HD
ENDBRANCH  23  26
ENDBRANCH  19  20
BRANCH  19  28
ATOM     28  N   LIG    1       27.422 -21.572   6.316  0.00  0.00    -0.316 NA
ATOM     29  H1  LIG    1       26.798 -22.379   6.351  0.00  0.00    +0.119 HD
ATOM     30  H2  LIG    1       27.914 -21.679   5.431  0.00  0.00    +0.119 HD
ENDBRANCH  19  28
ENDBRANCH   3  19
TORSDOF 7
ENDMDL
MODEL 2
REMARK VINA RESULT:      -1.7      2.279      7.598
REMARK  Name = *****
REMARK                            x       y       z     vdW  Elec       q    Type
REMARK                         _______ _______ _______ _____ _____    ______ ____
ROOT
ATOM      1  N   LIG    1       24.207 -16.264   3.298  0.00  0.00    -0.300 N 
ATOM      2  H   LIG    1       24.897 -15.766   2.740  0.00  0.00    +0.150 HD
ATOM      3  C   LIG    1       23.421 -15.492   4.134  0.00  0.00    +0.235 C 
ATOM      4  O   LIG    1       22.448 -15.962   4.718  0.00  0.00    -0.274 OA
ENDROOT
BRANCH   1  13
ATOM      5  C   LIG    1       26.305 -21.571   6.385  0.00  0.00    +0.042 C 
ATOM      6  C   LIG    1       25.757 -20.465   5.499  0.00  0.00    -0.034 C 
ATOM      7  C   LIG    1       26.917 -19.654   4.935  0.00  0.00    +0.103 C 
ATOM      8  S   LIG    1       26.497 -18.111   4.093  0.00  0.00    -0.131 S 
ATOM      9  C   LIG    1       24.979 -18.745   3.353  0.00  0.00    +0.169 C 
ATOM     10  N   LIG    1       24.111 -19.183   4.427  0.00  0.00    -0.249 N 
ATOM     11  C   LIG    1       23.048 -18.437   4.079  0.00  0.00    +0.244 C 
ATOM     12  O   LIG    1       21.936 -18.406   4.574  0.00  0.00    -0.273 OA
ATOM     13  CA  LIG    1       23.889 -17.682   3.000  0.00  0.00    +0.191 C 
ATOM     14  CA  LIG    1       24.439 -20.210   5.268  0.00  0.00    +0.122 C 
BRANCH  14  15
ATOM     15  C   LIG    1       23.350 -21.064   5.886  0.00  0.00    +0.351 C 
ATOM     16  O   LIG    1       23.346 -21.404   7.060  0.00  0.00    -0.244 OA
BRANCH  15  17
ATOM     17  OXT LIG    1       22.372 -21.494   5.067  0.00  0.00    -0.476 OA
ATOM     18  HXT LIG    1       22.061 -22.422   5.159  0.00  0.00    +0.295 HD
ENDBRANCH  15  17
ENDBRANCH  14  15
ENDBRANCH   1  13
BRANCH   3  19
ATOM     19  CA  LIG    1       23.892 -14.015   4.300  0.00  0.00    +0.168 C 
BRANCH  19  20
ATOM     20  C   LIG    1       25.391 -13.842   4.093  0.00  0.00    -0.022 A 
ATOM     21  C   LIG    1       25.960 -13.933   2.812  0.00  0.00    +0.009 A 
ATOM     22  C   LIG    1       27.331 -13.751   2.620  0.00  0.00    +0.045 A 
ATOM     23  C   LIG    1       28.147 -13.457   3.703  0.00  0.00    +0.117 A 
ATOM     24  C   LIG    1       27.616 -13.360   4.984  0.00  0.00    +0.045 A 
ATOM     25  C   LIG    1       26.241 -13.552   5.179  0.00  0.00    +0.009 A 
BRANCH  23  26
ATOM     26  O   LIG    1       29.475 -13.265   3.461  0.00  0.00    -0.507 OA
ATOM     27  H   LIG    1       29.887 -12.888   4.255  0.00  0.00    +0.292 HD
ENDBRANCH  23  26
ENDBRANCH  19  20
BRANCH  19  28
ATOM     28  N   LIG    1       23.125 -13.133   3.379  0.00  0.00    -0.316 NA
ATOM     29  H1  LIG    1       22.756 -13.717   2.627  0.00  0.00    +0.119 HD
ATOM     30  H2  LIG    1       22.293 -12.808   3.870  0.00  0.00    +0.119 HD
ENDBRANCH  19  28
ENDBRANCH   3  19
TORSDOF 7
ENDMDL
