MODEL 1
REMARK VINA RESULT:      -7.9      0.000      0.000
REMARK  Name = *****
REMARK                            x       y       z     vdW  Elec       q    Type
REMARK                         _______ _______ _______ _____ _____    ______ ____
ROOT
ATOM      1  C   LIG    1       26.372 -29.279   9.578  0.00  0.00    -0.000 C 
ATOM      2  C   LIG    1       26.662 -29.142  10.884  0.00  0.00    -0.066 C 
ATOM      3  C   LIG    1       26.376 -30.175  11.981  0.00  0.00    +0.021 C 
ATOM      4  C   LIG    1       25.715 -31.512  11.625  0.00  0.00    +0.009 C 
ATOM      5  C   LIG    1       25.000 -31.921  12.906  0.00  0.00    +0.005 C 
ATOM      6  C   LIG    1       24.331 -30.614  13.388  0.00  0.00    +0.002 C 
ATOM      7  C   LIG    1       25.487 -29.563  13.139  0.00  0.00    -0.022 C 
ATOM      8  C   LIG    1       26.336 -29.489  14.438  0.00  0.00    +0.012 C 
ATOM      9  C   LIG    1       25.040 -28.127  12.789  0.00  0.00    +0.008 C 
ATOM     10  C   LIG    1       26.176 -27.190  12.355  0.00  0.00    +0.005 C 
ATOM     11  C   LIG    1       27.236 -27.888  11.507  0.00  0.00    +0.031 C 
ENDROOT
BRANCH   1  15
ATOM     12  C   LIG    1       25.884 -25.576   7.109  0.00  0.00    +0.012 C 
ATOM     13  C   LIG    1       25.781 -26.843   6.661  0.00  0.00    -0.051 C 
ATOM     14  C   LIG    1       25.610 -27.982   7.572  0.00  0.00    -0.042 C 
ATOM     15  C   LIG    1       26.478 -28.233   8.569  0.00  0.00    +0.004 C 
ATOM     16  C   LIG    1       24.384 -28.796   7.239  0.00  0.00    +0.066 C 
ATOM     17  C   LIG    1       24.367 -29.210   5.762  0.00  0.00    +0.119 C 
ATOM     18  C   LIG    1       24.481 -27.991   4.845  0.00  0.00    +0.036 C 
ATOM     19  C   LIG    1       25.723 -27.167   5.185  0.00  0.00    +0.037 C 
BRANCH  17  20
ATOM     20  O   LIG    1       23.165 -29.919   5.466  0.00  0.00    -0.392 OA
ATOM     21  H   LIG    1       23.349 -30.869   5.551  0.00  0.00    +0.210 HD
ENDBRANCH  17  20
ENDBRANCH   1  15
BRANCH   6  22
ATOM     22  C   LIG    1       22.937 -30.414  12.704  0.00  0.00    +0.012 C 
ATOM     23  C   LIG    1       22.998 -30.189  11.181  0.00  0.00    +0.012 C 
BRANCH  22  24
ATOM     24  C   LIG    1       22.237 -29.172  13.251  0.00  0.00    -0.027 C 
ATOM     25  C   LIG    1       21.225 -28.522  12.649  0.00  0.00    -0.027 C 
BRANCH  25  26
ATOM     26  C   LIG    1       20.669 -27.161  13.053  0.00  0.00    +0.011 C 
ATOM     27  C   LIG    1       21.814 -26.207  13.440  0.00  0.00    +0.012 C 
BRANCH  26  28
ATOM     28  C   LIG    1       19.555 -27.208  14.140  0.00  0.00    -0.011 C 
ATOM     29  C   LIG    1       18.851 -28.571  14.211  0.00  0.00    +0.008 C 
ATOM     30  C   LIG    1       18.481 -26.131  13.914  0.00  0.00    +0.008 C 
ENDBRANCH  26  28
ENDBRANCH  25  26
ENDBRANCH  22  24
ENDBRANCH   6  22
TORSDOF 6
ENDMDL
MODEL 2
REMARK VINA RESULT:      -7.8      5.332      9.725
REMARK  Name = *****
REMARK                            x       y       z     vdW  Elec       q    Type
REMARK                         _______ _______ _______ _____ _____    ______ ____
ROOT
ATOM      1  C   LIG    1       26.605 -20.559   7.398  0.00  0.00    -0.000 C 
ATOM      2  C   LIG    1       25.477 -20.514   6.668  0.00  0.00    -0.066 C 
ATOM      3  C   LIG    1       24.286 -21.472   6.792  0.00  0.00    +0.021 C 
ATOM      4  C   LIG    1       24.311 -22.598   7.833  0.00  0.00    +0.009 C 
ATOM      5  C   LIG    1       23.403 -23.666   7.240  0.00  0.00    +0.005 C 
ATOM      6  C   LIG    1       23.820 -23.721   5.753  0.00  0.00    +0.002 C 
ATOM      7  C   LIG    1       23.965 -22.182   5.414  0.00  0.00    -0.022 C 
ATOM      8  C   LIG    1       22.583 -21.686   4.905  0.00  0.00    +0.012 C 
ATOM      9  C   LIG    1       25.017 -21.815   4.346  0.00  0.00    +0.008 C 
ATOM     10  C   LIG    1       25.275 -20.310   4.192  0.00  0.00    +0.005 C 
ATOM     11  C   LIG    1       25.238 -19.557   5.519  0.00  0.00    +0.031 C 
ENDROOT
BRANCH   1  15
ATOM     12  C   LIG    1       30.376 -18.794   5.752  0.00  0.00    +0.012 C 
ATOM     13  C   LIG    1       30.215 -19.295   6.993  0.00  0.00    -0.051 C 
ATOM     14  C   LIG    1       29.079 -20.157   7.346  0.00  0.00    -0.042 C 
ATOM     15  C   LIG    1       27.805 -19.767   7.162  0.00  0.00    +0.004 C 
ATOM     16  C   LIG    1       29.527 -21.476   7.926  0.00  0.00    +0.066 C 
ATOM     17  C   LIG    1       30.505 -21.277   9.090  0.00  0.00    +0.119 C 
ATOM     18  C   LIG    1       31.705 -20.429   8.665  0.00  0.00    +0.036 C 
ATOM     19  C   LIG    1       31.249 -19.094   8.077  0.00  0.00    +0.037 C 
BRANCH  17  20
ATOM     20  O   LIG    1       30.959 -22.540   9.570  0.00  0.00    -0.392 OA
ATOM     21  H   LIG    1       30.235 -23.179   9.464  0.00  0.00    +0.210 HD
ENDBRANCH  17  20
ENDBRANCH   1  15
BRANCH   6  22
ATOM     22  C   LIG    1       25.040 -24.681   5.549  0.00  0.00    +0.012 C 
ATOM     23  C   LIG    1       25.018 -25.470   4.226  0.00  0.00    +0.012 C 
BRANCH  22  24
ATOM     24  C   LIG    1       25.076 -25.750   6.638  0.00  0.00    -0.027 C 
ATOM     25  C   LIG    1       25.269 -27.066   6.430  0.00  0.00    -0.027 C 
BRANCH  25  26
ATOM     26  C   LIG    1       25.080 -28.173   7.461  0.00  0.00    +0.011 C 
ATOM     27  C   LIG    1       26.267 -28.199   8.443  0.00  0.00    +0.012 C 
BRANCH  26  28
ATOM     28  C   LIG    1       24.787 -29.580   6.861  0.00  0.00    -0.011 C 
ATOM     29  C   LIG    1       25.507 -30.708   7.613  0.00  0.00    +0.008 C 
ATOM     30  C   LIG    1       25.187 -29.669   5.378  0.00  0.00    +0.008 C 
ENDBRANCH  26  28
ENDBRANCH  25  26
ENDBRANCH  22  24
ENDBRANCH   6  22
TORSDOF 6
ENDMDL
MODEL 3
REMARK VINA RESULT:      -7.5      1.516      3.008
REMARK  Name = *****
REMARK                            x       y       z     vdW  Elec       q    Type
REMARK                         _______ _______ _______ _____ _____    ______ ____
ROOT
ATOM      1  C   LIG    1       25.980 -29.149   9.938  0.00  0.00    -0.000 C 
ATOM      2  C   LIG    1       26.448 -28.971  11.187  0.00  0.00    -0.066 C 
ATOM      3  C   LIG    1       26.040 -29.782  12.423  0.00  0.00    +0.021 C 
ATOM      4  C   LIG    1       25.024 -30.923  12.293  0.00  0.00    +0.009 C 
ATOM      5  C   LIG    1       24.385 -31.004  13.673  0.00  0.00    +0.005 C 
ATOM      6  C   LIG    1       24.131 -29.527  14.049  0.00  0.00    +0.002 C 
ATOM      7  C   LIG    1       25.478 -28.849  13.571  0.00  0.00    -0.022 C 
ATOM      8  C   LIG    1       26.466 -28.880  14.771  0.00  0.00    +0.012 C 
ATOM      9  C   LIG    1       25.372 -27.386  13.090  0.00  0.00    +0.008 C 
ATOM     10  C   LIG    1       26.649 -26.829  12.445  0.00  0.00    +0.005 C 
ATOM     11  C   LIG    1       27.390 -27.861  11.598  0.00  0.00    +0.031 C 
ENDROOT
BRANCH   1  15
ATOM     12  C   LIG    1       25.869 -25.865   6.896  0.00  0.00    +0.012 C 
ATOM     13  C   LIG    1       25.795 -27.185   6.636  0.00  0.00    -0.051 C 
ATOM     14  C   LIG    1       25.493 -28.172   7.681  0.00  0.00    -0.042 C 
ATOM     15  C   LIG    1       26.229 -28.270   8.803  0.00  0.00    +0.004 C 
ATOM     16  C   LIG    1       24.300 -29.026   7.327  0.00  0.00    +0.066 C 
ATOM     17  C   LIG    1       24.453 -29.661   5.939  0.00  0.00    +0.119 C 
ATOM     18  C   LIG    1       24.702 -28.595   4.870  0.00  0.00    +0.036 C 
ATOM     19  C   LIG    1       25.910 -27.731   5.231  0.00  0.00    +0.037 C 
BRANCH  17  20
ATOM     20  O   LIG    1       23.282 -30.404   5.609  0.00  0.00    -0.392 OA
ATOM     21  H   LIG    1       22.582 -30.154   6.234  0.00  0.00    +0.210 HD
ENDBRANCH  17  20
ENDBRANCH   1  15
BRANCH   6  22
ATOM     22  C   LIG    1       22.763 -29.030  13.473  0.00  0.00    +0.012 C 
ATOM     23  C   LIG    1       21.541 -29.367  14.348  0.00  0.00    +0.012 C 
BRANCH  22  24
ATOM     24  C   LIG    1       22.470 -29.690  12.128  0.00  0.00    -0.027 C 
ATOM     25  C   LIG    1       21.244 -29.990  11.659  0.00  0.00    -0.027 C 
BRANCH  25  26
ATOM     26  C   LIG    1       20.937 -30.849  10.438  0.00  0.00    +0.011 C 
ATOM     27  C   LIG    1       19.442 -31.219  10.404  0.00  0.00    +0.012 C 
BRANCH  26  28
ATOM     28  C   LIG    1       21.852 -32.098  10.273  0.00  0.00    -0.011 C 
ATOM     29  C   LIG    1       22.997 -31.870   9.276  0.00  0.00    +0.008 C 
ATOM     30  C   LIG    1       21.062 -33.336   9.812  0.00  0.00    +0.008 C 
ENDBRANCH  26  28
ENDBRANCH  25  26
ENDBRANCH  22  24
ENDBRANCH   6  22
TORSDOF 6
ENDMDL
MODEL 4
REMARK VINA RESULT:      -7.5      3.166      7.728
REMARK  Name = *****
REMARK                            x       y       z     vdW  Elec       q    Type
REMARK                         _______ _______ _______ _____ _____    ______ ____
ROOT
ATOM      1  C   LIG    1       22.611 -30.594  10.176  0.00  0.00    -0.000 C 
ATOM      2  C   LIG    1       23.619 -31.182   9.510  0.00  0.00    -0.066 C 
ATOM      3  C   LIG    1       24.954 -30.526   9.135  0.00  0.00    +0.021 C 
ATOM      4  C   LIG    1       25.236 -29.074   9.538  0.00  0.00    +0.009 C 
ATOM      5  C   LIG    1       26.223 -28.586   8.486  0.00  0.00    +0.005 C 
ATOM      6  C   LIG    1       25.642 -29.121   7.158  0.00  0.00    +0.002 C 
ATOM      7  C   LIG    1       25.214 -30.586   7.575  0.00  0.00    -0.022 C 
ATOM      8  C   LIG    1       26.426 -31.519   7.303  0.00  0.00    +0.012 C 
ATOM      9  C   LIG    1       23.994 -31.176   6.835  0.00  0.00    +0.008 C 
ATOM     10  C   LIG    1       23.482 -32.507   7.403  0.00  0.00    +0.005 C 
ATOM     11  C   LIG    1       23.561 -32.578   8.926  0.00  0.00    +0.031 C 
ENDROOT
BRANCH   1  15
ATOM     12  C   LIG    1       18.202 -31.374  10.226  0.00  0.00    +0.012 C 
ATOM     13  C   LIG    1       19.007 -31.326  11.305  0.00  0.00    -0.051 C 
ATOM     14  C   LIG    1       20.350 -30.733  11.252  0.00  0.00    -0.042 C 
ATOM     15  C   LIG    1       21.280 -31.154  10.375  0.00  0.00    +0.004 C 
ATOM     16  C   LIG    1       20.531 -29.644  12.280  0.00  0.00    +0.066 C 
ATOM     17  C   LIG    1       20.151 -30.127  13.686  0.00  0.00    +0.119 C 
ATOM     18  C   LIG    1       18.724 -30.677  13.713  0.00  0.00    +0.036 C 
ATOM     19  C   LIG    1       18.543 -31.779  12.671  0.00  0.00    +0.037 C 
BRANCH  17  20
ATOM     20  O   LIG    1       20.268 -29.057  14.620  0.00  0.00    -0.392 OA
ATOM     21  H   LIG    1       20.439 -29.441  15.496  0.00  0.00    +0.210 HD
ENDBRANCH  17  20
ENDBRANCH   1  15
BRANCH   6  22
ATOM     22  C   LIG    1       24.575 -28.133   6.577  0.00  0.00    +0.012 C 
ATOM     23  C   LIG    1       24.270 -28.330   5.080  0.00  0.00    +0.012 C 
BRANCH  22  24
ATOM     24  C   LIG    1       25.055 -26.689   6.690  0.00  0.00    -0.027 C 
ATOM     25  C   LIG    1       24.376 -25.608   6.263  0.00  0.00    -0.027 C 
BRANCH  25  26
ATOM     26  C   LIG    1       24.926 -24.191   6.152  0.00  0.00    +0.011 C 
ATOM     27  C   LIG    1       26.172 -24.028   7.044  0.00  0.00    +0.012 C 
BRANCH  26  28
ATOM     28  C   LIG    1       23.880 -23.064   6.399  0.00  0.00    -0.011 C 
ATOM     29  C   LIG    1       24.293 -22.106   7.526  0.00  0.00    +0.008 C 
ATOM     30  C   LIG    1       22.492 -23.631   6.745  0.00  0.00    +0.008 C 
ENDBRANCH  26  28
ENDBRANCH  25  26
ENDBRANCH  22  24
ENDBRANCH   6  22
TORSDOF 6
ENDMDL
MODEL 5
REMARK VINA RESULT:      -7.5      2.806      6.985
REMARK  Name = *****
REMARK                            x       y       z     vdW  Elec       q    Type
REMARK                         _______ _______ _______ _____ _____    ______ ____
ROOT
ATOM      1  C   LIG    1       25.425 -29.165  11.723  0.00  0.00    -0.000 C 
ATOM      2  C   LIG    1       25.407 -30.507  11.646  0.00  0.00    -0.066 C 
ATOM      3  C   LIG    1       26.040 -31.353  10.534  0.00  0.00    +0.021 C 
ATOM      4  C   LIG    1       26.789 -30.671   9.382  0.00  0.00    +0.009 C 
ATOM      5  C   LIG    1       26.656 -31.653   8.226  0.00  0.00    +0.005 C 
ATOM      6  C   LIG    1       25.176 -32.094   8.285  0.00  0.00    +0.002 C 
ATOM      7  C   LIG    1       24.974 -32.295   9.841  0.00  0.00    -0.022 C 
ATOM      8  C   LIG    1       25.322 -33.773  10.168  0.00  0.00    +0.012 C 
ATOM      9  C   LIG    1       23.556 -32.017  10.386  0.00  0.00    +0.008 C 
ATOM     10  C   LIG    1       23.446 -32.021  11.917  0.00  0.00    +0.005 C 
ATOM     11  C   LIG    1       24.663 -31.410  12.606  0.00  0.00    +0.031 C 
ENDROOT
BRANCH   1  15
ATOM     12  C   LIG    1       22.751 -26.168  13.703  0.00  0.00    +0.012 C 
ATOM     13  C   LIG    1       24.062 -26.346  13.957  0.00  0.00    -0.051 C 
ATOM     14  C   LIG    1       24.941 -27.090  13.046  0.00  0.00    -0.042 C 
ATOM     15  C   LIG    1       24.676 -28.357  12.676  0.00  0.00    +0.004 C 
ATOM     16  C   LIG    1       26.133 -26.273  12.612  0.00  0.00    +0.066 C 
ATOM     17  C   LIG    1       26.884 -25.690  13.815  0.00  0.00    +0.119 C 
ATOM     18  C   LIG    1       25.949 -24.868  14.704  0.00  0.00    +0.036 C 
ATOM     19  C   LIG    1       24.742 -25.697  15.142  0.00  0.00    +0.037 C 
BRANCH  17  20
ATOM     20  O   LIG    1       27.962 -24.869  13.369  0.00  0.00    -0.392 OA
ATOM     21  H   LIG    1       27.671 -23.943  13.412  0.00  0.00    +0.210 HD
ENDBRANCH  17  20
ENDBRANCH   1  15
BRANCH   6  22
ATOM     22  C   LIG    1       24.263 -31.091   7.504  0.00  0.00    +0.012 C 
ATOM     23  C   LIG    1       23.855 -31.561   6.095  0.00  0.00    +0.012 C 
BRANCH  22  24
ATOM     24  C   LIG    1       24.984 -29.765   7.277  0.00  0.00    -0.027 C 
ATOM     25  C   LIG    1       24.497 -28.724   6.575  0.00  0.00    -0.027 C 
BRANCH  25  26
ATOM     26  C   LIG    1       25.281 -27.491   6.141  0.00  0.00    +0.011 C 
ATOM     27  C   LIG    1       26.120 -26.949   7.313  0.00  0.00    +0.012 C 
BRANCH  26  28
ATOM     28  C   LIG    1       24.424 -26.376   5.472  0.00  0.00    -0.011 C 
ATOM     29  C   LIG    1       25.183 -25.626   4.369  0.00  0.00    +0.008 C 
ATOM     30  C   LIG    1       23.925 -25.340   6.493  0.00  0.00    +0.008 C 
ENDBRANCH  26  28
ENDBRANCH  25  26
ENDBRANCH  22  24
ENDBRANCH   6  22
TORSDOF 6
ENDMDL
MODEL 6
REMARK VINA RESULT:      -7.4      2.145      4.029
REMARK  Name = *****
REMARK                            x       y       z     vdW  Elec       q    Type
REMARK                         _______ _______ _______ _____ _____    ______ ____
ROOT
ATOM      1  C   LIG    1       24.376 -29.443   7.384  0.00  0.00    -0.000 C 
ATOM      2  C   LIG    1       24.559 -30.694   7.842  0.00  0.00    -0.066 C 
ATOM      3  C   LIG    1       23.962 -31.276   9.129  0.00  0.00    +0.021 C 
ATOM      4  C   LIG    1       23.053 -30.414  10.014  0.00  0.00    +0.009 C 
ATOM      5  C   LIG    1       23.229 -31.005  11.406  0.00  0.00    +0.005 C 
ATOM      6  C   LIG    1       24.753 -31.231  11.522  0.00  0.00    +0.002 C 
ATOM      7  C   LIG    1       25.088 -31.827  10.095  0.00  0.00    -0.022 C 
ATOM      8  C   LIG    1       24.953 -33.372  10.194  0.00  0.00    +0.012 C 
ATOM      9  C   LIG    1       26.493 -31.514   9.538  0.00  0.00    +0.008 C 
ATOM     10  C   LIG    1       26.710 -31.930   8.076  0.00  0.00    +0.005 C 
ATOM     11  C   LIG    1       25.477 -31.715   7.204  0.00  0.00    +0.031 C 
ENDROOT
BRANCH   1  15
ATOM     12  C   LIG    1       27.360 -27.426   4.724  0.00  0.00    +0.012 C 
ATOM     13  C   LIG    1       26.088 -27.030   4.925  0.00  0.00    -0.051 C 
ATOM     14  C   LIG    1       25.286 -27.522   6.053  0.00  0.00    -0.042 C 
ATOM     15  C   LIG    1       25.082 -28.836   6.263  0.00  0.00    +0.004 C 
ATOM     16  C   LIG    1       24.742 -26.396   6.897  0.00  0.00    +0.066 C 
ATOM     17  C   LIG    1       23.995 -25.363   6.045  0.00  0.00    +0.119 C 
ATOM     18  C   LIG    1       24.885 -24.827   4.922  0.00  0.00    +0.036 C 
ATOM     19  C   LIG    1       25.435 -25.969   4.069  0.00  0.00    +0.037 C 
BRANCH  17  20
ATOM     20  O   LIG    1       23.554 -24.281   6.862  0.00  0.00    -0.392 OA
ATOM     21  H   LIG    1       22.803 -23.855   6.416  0.00  0.00    +0.210 HD
ENDBRANCH  17  20
ENDBRANCH   1  15
BRANCH   6  22
ATOM     22  C   LIG    1       25.475 -29.930  12.011  0.00  0.00    +0.012 C 
ATOM     23  C   LIG    1       26.728 -30.180  12.872  0.00  0.00    +0.012 C 
BRANCH  22  24
ATOM     24  C   LIG    1       24.553 -29.100  12.900  0.00  0.00    -0.027 C 
ATOM     25  C   LIG    1       24.226 -27.811  12.693  0.00  0.00    -0.027 C 
BRANCH  25  26
ATOM     26  C   LIG    1       23.502 -26.901  13.678  0.00  0.00    +0.011 C 
ATOM     27  C   LIG    1       22.047 -26.672  13.228  0.00  0.00    +0.012 C 
BRANCH  26  28
ATOM     28  C   LIG    1       24.235 -25.562  13.988  0.00  0.00    -0.011 C 
ATOM     29  C   LIG    1       25.657 -25.516  13.413  0.00  0.00    +0.008 C 
ATOM     30  C   LIG    1       24.326 -25.291  15.500  0.00  0.00    +0.008 C 
ENDBRANCH  26  28
ENDBRANCH  25  26
ENDBRANCH  22  24
ENDBRANCH   6  22
TORSDOF 6
ENDMDL
MODEL 7
REMARK VINA RESULT:      -7.1      2.582      7.627
REMARK  Name = *****
REMARK                            x       y       z     vdW  Elec       q    Type
REMARK                         _______ _______ _______ _____ _____    ______ ____
ROOT
ATOM      1  C   LIG    1       22.981 -30.324  11.797  0.00  0.00    -0.000 C 
ATOM      2  C   LIG    1       23.956 -31.162  11.407  0.00  0.00    -0.066 C 
ATOM      3  C   LIG    1       25.240 -30.766  10.666  0.00  0.00    +0.021 C 
ATOM      4  C   LIG    1       25.505 -29.295  10.321  0.00  0.00    +0.009 C 
ATOM      5  C   LIG    1       26.399 -29.363   9.091  0.00  0.00    +0.005 C 
ATOM      6  C   LIG    1       25.740 -30.453   8.216  0.00  0.00    +0.002 C 
ATOM      7  C   LIG    1       25.389 -31.550   9.300  0.00  0.00    -0.022 C 
ATOM      8  C   LIG    1       26.607 -32.510   9.402  0.00  0.00    +0.012 C 
ATOM      9  C   LIG    1       24.138 -32.410   9.019  0.00  0.00    +0.008 C 
ATOM     10  C   LIG    1       23.710 -33.318  10.181  0.00  0.00    +0.005 C 
ATOM     11  C   LIG    1       23.900 -32.668  11.549  0.00  0.00    +0.031 C 
ENDROOT
BRANCH   1  15
ATOM     12  C   LIG    1       18.631 -31.167  12.443  0.00  0.00    +0.012 C 
ATOM     13  C   LIG    1       19.414 -30.410  13.236  0.00  0.00    -0.051 C 
ATOM     14  C   LIG    1       20.717 -29.900  12.789  0.00  0.00    -0.042 C 
ATOM     15  C   LIG    1       21.686 -30.717  12.338  0.00  0.00    +0.004 C 
ATOM     16  C   LIG    1       20.811 -28.399  12.913  0.00  0.00    +0.066 C 
ATOM     17  C   LIG    1       20.441 -27.925  14.324  0.00  0.00    +0.119 C 
ATOM     18  C   LIG    1       19.051 -28.423  14.726  0.00  0.00    +0.036 C 
ATOM     19  C   LIG    1       18.958 -29.943  14.599  0.00  0.00    +0.037 C 
BRANCH  17  20
ATOM     20  O   LIG    1       20.474 -26.501  14.387  0.00  0.00    -0.392 OA
ATOM     21  H   LIG    1       19.593 -26.170  14.145  0.00  0.00    +0.210 HD
ENDBRANCH  17  20
ENDBRANCH   1  15
BRANCH   6  22
ATOM     22  C   LIG    1       24.604 -29.846   7.326  0.00  0.00    +0.012 C 
ATOM     23  C   LIG    1       24.405 -30.554   5.972  0.00  0.00    +0.012 C 
BRANCH  22  24
ATOM     24  C   LIG    1       24.916 -28.396   6.964  0.00  0.00    -0.027 C 
ATOM     25  C   LIG    1       24.142 -27.602   6.201  0.00  0.00    -0.027 C 
BRANCH  25  26
ATOM     26  C   LIG    1       24.537 -26.241   5.638  0.00  0.00    +0.011 C 
ATOM     27  C   LIG    1       25.840 -26.355   4.824  0.00  0.00    +0.012 C 
BRANCH  26  28
ATOM     28  C   LIG    1       24.603 -25.095   6.690  0.00  0.00    -0.011 C 
ATOM     29  C   LIG    1       23.386 -24.161   6.628  0.00  0.00    +0.008 C 
ATOM     30  C   LIG    1       25.868 -24.235   6.527  0.00  0.00    +0.008 C 
ENDBRANCH  26  28
ENDBRANCH  25  26
ENDBRANCH  22  24
ENDBRANCH   6  22
TORSDOF 6
ENDMDL
MODEL 8
REMARK VINA RESULT:      -7.1      8.344     12.048
REMARK  Name = *****
REMARK                            x       y       z     vdW  Elec       q    Type
REMARK                         _______ _______ _______ _____ _____    ______ ____
ROOT
ATOM      1  C   LIG    1       27.365 -20.100   6.338  0.00  0.00    -0.000 C 
ATOM      2  C   LIG    1       26.445 -20.999   6.729  0.00  0.00    -0.066 C 
ATOM      3  C   LIG    1       25.371 -21.633   5.835  0.00  0.00    +0.021 C 
ATOM      4  C   LIG    1       25.293 -21.265   4.349  0.00  0.00    +0.009 C 
ATOM      5  C   LIG    1       23.830 -21.490   3.993  0.00  0.00    +0.005 C 
ATOM      6  C   LIG    1       23.061 -20.869   5.181  0.00  0.00    +0.002 C 
ATOM      7  C   LIG    1       23.917 -21.383   6.407  0.00  0.00    -0.022 C 
ATOM      8  C   LIG    1       23.314 -22.743   6.858  0.00  0.00    +0.012 C 
ATOM      9  C   LIG    1       23.962 -20.459   7.643  0.00  0.00    +0.008 C 
ATOM     10  C   LIG    1       24.960 -20.887   8.727  0.00  0.00    +0.005 C 
ATOM     11  C   LIG    1       26.253 -21.464   8.157  0.00  0.00    +0.031 C 
ENDROOT
BRANCH   1  15
ATOM     12  C   LIG    1       30.710 -17.679   8.071  0.00  0.00    +0.012 C 
ATOM     13  C   LIG    1       30.329 -18.905   8.480  0.00  0.00    -0.051 C 
ATOM     14  C   LIG    1       29.470 -19.771   7.660  0.00  0.00    -0.042 C 
ATOM     15  C   LIG    1       28.265 -19.366   7.218  0.00  0.00    +0.004 C 
ATOM     16  C   LIG    1       30.101 -21.117   7.405  0.00  0.00    +0.066 C 
ATOM     17  C   LIG    1       30.544 -21.789   8.711  0.00  0.00    +0.119 C 
ATOM     18  C   LIG    1       31.487 -20.883   9.504  0.00  0.00    +0.036 C 
ATOM     19  C   LIG    1       30.848 -19.519   9.761  0.00  0.00    +0.037 C 
BRANCH  17  20
ATOM     20  O   LIG    1       31.195 -23.026   8.430  0.00  0.00    -0.392 OA
ATOM     21  H   LIG    1       30.928 -23.666   9.109  0.00  0.00    +0.210 HD
ENDBRANCH  17  20
ENDBRANCH   1  15
BRANCH   6  22
ATOM     22  C   LIG    1       22.850 -19.332   4.968  0.00  0.00    +0.012 C 
ATOM     23  C   LIG    1       21.738 -18.973   3.964  0.00  0.00    +0.012 C 
BRANCH  22  24
ATOM     24  C   LIG    1       24.110 -18.686   4.399  0.00  0.00    -0.027 C 
ATOM     25  C   LIG    1       24.200 -17.420   3.951  0.00  0.00    -0.027 C 
BRANCH  25  26
ATOM     26  C   LIG    1       25.368 -16.826   3.173  0.00  0.00    +0.011 C 
ATOM     27  C   LIG    1       26.683 -17.528   3.562  0.00  0.00    +0.012 C 
BRANCH  26  28
ATOM     28  C   LIG    1       25.487 -15.276   3.256  0.00  0.00    -0.011 C 
ATOM     29  C   LIG    1       26.854 -14.812   3.778  0.00  0.00    +0.008 C 
ATOM     30  C   LIG    1       24.402 -14.661   4.158  0.00  0.00    +0.008 C 
ENDBRANCH  26  28
ENDBRANCH  25  26
ENDBRANCH  22  24
ENDBRANCH   6  22
TORSDOF 6
ENDMDL
MODEL 9
REMARK VINA RESULT:      -6.7      2.466      6.937
REMARK  Name = *****
REMARK                            x       y       z     vdW  Elec       q    Type
REMARK                         _______ _______ _______ _____ _____    ______ ____
ROOT
ATOM      1  C   LIG    1       24.031 -30.363  12.978  0.00  0.00    -0.000 C 
ATOM      2  C   LIG    1       23.342 -31.175  12.158  0.00  0.00    -0.066 C 
ATOM      3  C   LIG    1       23.909 -32.389  11.411  0.00  0.00    +0.021 C 
ATOM      4  C   LIG    1       25.383 -32.777  11.581  0.00  0.00    +0.009 C 
ATOM      5  C   LIG    1       25.727 -33.489  10.280  0.00  0.00    +0.005 C 
ATOM      6  C   LIG    1       25.084 -32.601   9.191  0.00  0.00    +0.002 C 
ATOM      7  C   LIG    1       23.685 -32.267   9.849  0.00  0.00    -0.022 C 
ATOM      8  C   LIG    1       22.685 -33.369   9.398  0.00  0.00    +0.012 C 
ATOM      9  C   LIG    1       23.069 -30.899   9.485  0.00  0.00    +0.008 C 
ATOM     10  C   LIG    1       21.820 -30.523  10.295  0.00  0.00    +0.005 C 
ATOM     11  C   LIG    1       21.899 -30.963  11.754  0.00  0.00    +0.031 C 
ENDROOT
BRANCH   1  15
ATOM     12  C   LIG    1       22.156 -26.352  13.652  0.00  0.00    +0.012 C 
ATOM     13  C   LIG    1       23.435 -26.682  13.923  0.00  0.00    -0.051 C 
ATOM     14  C   LIG    1       24.066 -27.886  13.366  0.00  0.00    -0.042 C 
ATOM     15  C   LIG    1       23.542 -29.112  13.544  0.00  0.00    +0.004 C 
ATOM     16  C   LIG    1       25.331 -27.565  12.609  0.00  0.00    +0.066 C 
ATOM     17  C   LIG    1       26.297 -26.727  13.456  0.00  0.00    +0.119 C 
ATOM     18  C   LIG    1       25.622 -25.451  13.963  0.00  0.00    +0.036 C 
ATOM     19  C   LIG    1       24.340 -25.778  14.728  0.00  0.00    +0.037 C 
BRANCH  17  20
ATOM     20  O   LIG    1       27.450 -26.385  12.690  0.00  0.00    -0.392 OA
ATOM     21  H   LIG    1       27.182 -26.316  11.759  0.00  0.00    +0.210 HD
ENDBRANCH  17  20
ENDBRANCH   1  15
BRANCH   6  22
ATOM     22  C   LIG    1       26.048 -31.437   8.779  0.00  0.00    +0.012 C 
ATOM     23  C   LIG    1       26.381 -30.450   9.915  0.00  0.00    +0.012 C 
BRANCH  22  24
ATOM     24  C   LIG    1       25.420 -30.575   7.687  0.00  0.00    -0.027 C 
ATOM     25  C   LIG    1       25.395 -29.229   7.678  0.00  0.00    -0.027 C 
BRANCH  25  26
ATOM     26  C   LIG    1       24.581 -28.355   6.730  0.00  0.00    +0.011 C 
ATOM     27  C   LIG    1       24.168 -29.158   5.482  0.00  0.00    +0.012 C 
BRANCH  26  28
ATOM     28  C   LIG    1       25.251 -27.000   6.357  0.00  0.00    -0.011 C 
ATOM     29  C   LIG    1       24.231 -25.872   6.145  0.00  0.00    +0.008 C 
ATOM     30  C   LIG    1       26.106 -27.110   5.083  0.00  0.00    +0.008 C 
ENDBRANCH  26  28
ENDBRANCH  25  26
ENDBRANCH  22  24
ENDBRANCH   6  22
TORSDOF 6
ENDMDL
