MODEL 1
REMARK VINA RESULT:      -5.8      0.000      0.000
REMARK  Name = *****
REMARK                            x       y       z     vdW  Elec       q    Type
REMARK                         _______ _______ _______ _____ _____    ______ ____
ROOT
ATOM      1  C   LIG    1       26.725 -28.608  14.169  0.00  0.00    +0.033 A 
ATOM      2  C   LIG    1       26.354 -29.332  12.999  0.00  0.00    -0.011 A 
ATOM      3  C   LIG    1       26.656 -28.830  11.603  0.00  0.00    +0.046 C 
ATOM      4  C   LIG    1       25.626 -29.266  10.552  0.00  0.00    +0.031 C 
ATOM      5  C   LIG    1       25.414 -30.748  10.572  0.00  0.00    +0.044 C 
ATOM      6  C   LIG    1       25.462 -31.426  11.901  0.00  0.00    +0.197 C 
ATOM      7  O   LIG    1       25.368 -32.651  11.962  0.00  0.00    -0.287 OA
ATOM      8  C   LIG    1       25.135 -31.458   9.458  0.00  0.00    +0.141 C 
ATOM      9  C   LIG    1       24.976 -30.828   8.092  0.00  0.00    +0.190 C 
ATOM     10  C   LIG    1       25.139 -29.283   8.043  0.00  0.00    +0.061 C 
ATOM     11  C   LIG    1       25.682 -28.788   6.648  0.00  0.00    +0.129 C 
ATOM     12  C   LIG    1       25.301 -29.736   5.499  0.00  0.00    +0.127 C 
ATOM     13  C   LIG    1       25.494 -31.067   5.635  0.00  0.00    +0.121 C 
ATOM     14  C   LIG    1       25.920 -31.420   7.021  0.00  0.00    +0.210 C 
ATOM     15  O   LIG    1       27.009 -31.937   7.249  0.00  0.00    -0.288 OA
ATOM     16  C   LIG    1       26.073 -28.782   9.163  0.00  0.00    +0.018 C 
ATOM     17  C   LIG    1       25.674 -30.578  13.110  0.00  0.00    +0.068 A 
ATOM     18  C   LIG    1       25.242 -31.040  14.357  0.00  0.00    +0.128 A 
ATOM     19  C   LIG    1       25.531 -30.315  15.500  0.00  0.00    +0.048 A 
ATOM     20  C   LIG    1       26.270 -29.135  15.400  0.00  0.00    +0.027 A 
ENDROOT
BRANCH  13  21
ATOM     21  C   LIG    1       25.224 -32.123   4.636  0.00  0.00    +0.248 C 
ATOM     22  O   LIG    1       26.029 -32.434   3.761  0.00  0.00    -0.270 OA
ATOM     23  N   LIG    1       24.042 -32.784   4.752  0.00  0.00    -0.325 N 
ATOM     24  H   LIG    1       23.378 -32.536   5.479  0.00  0.00    +0.145 HD
ATOM     25  H   LIG    1       23.826 -33.522   4.099  0.00  0.00    +0.145 HD
ENDBRANCH  13  21
BRANCH   1  27
ATOM     26  C   LIG    1       28.571 -27.230  15.100  0.00  0.00    +0.129 C 
ATOM     27  N   LIG    1       27.464 -27.412  14.156  0.00  0.00    -0.336 N 
ATOM     28  C   LIG    1       26.807 -26.156  13.783  0.00  0.00    +0.129 C 
ENDBRANCH   1  27
BRANCH  11  29
ATOM     29  N   LIG    1       25.493 -27.339   6.447  0.00  0.00    -0.298 NA
ATOM     30  C   LIG    1       26.585 -26.637   5.785  0.00  0.00    +0.105 C 
ATOM     31  C   LIG    1       24.159 -26.859   6.130  0.00  0.00    +0.105 C 
ENDBRANCH  11  29
BRANCH   8  32
ATOM     32  O   LIG    1       24.825 -32.813   9.480  0.00  0.00    -0.507 OA
ATOM     33  H   LIG    1       25.554 -33.284   9.951  0.00  0.00    +0.292 HD
ENDBRANCH   8  32
BRANCH   9  34
ATOM     34  O   LIG    1       23.617 -31.126   7.702  0.00  0.00    -0.373 OA
ATOM     35  H   LIG    1       23.702 -31.642   6.872  0.00  0.00    +0.211 HD
ENDBRANCH   9  34
BRANCH  12  36
ATOM     36  O   LIG    1       24.806 -29.189   4.327  0.00  0.00    -0.509 OA
ATOM     37  H   LIG    1       25.206 -28.307   4.236  0.00  0.00    +0.292 HD
ENDBRANCH  12  36
BRANCH  18  38
ATOM     38  O   LIG    1       24.490 -32.174  14.472  0.00  0.00    -0.506 OA
ATOM     39  H   LIG    1       23.976 -32.317  13.661  0.00  0.00    +0.292 HD
ENDBRANCH  18  38
TORSDOF 7
ENDMDL
MODEL 2
REMARK VINA RESULT:      -5.3      2.871      4.191
REMARK  Name = *****
REMARK                            x       y       z     vdW  Elec       q    Type
REMARK                         _______ _______ _______ _____ _____    ______ ____
ROOT
ATOM      1  C   LIG    1       25.945 -26.897  14.516  0.00  0.00    +0.033 A 
ATOM      2  C   LIG    1       26.017 -27.888  13.495  0.00  0.00    -0.011 A 
ATOM      3  C   LIG    1       24.811 -28.306  12.681  0.00  0.00    +0.046 C 
ATOM      4  C   LIG    1       24.855 -29.768  12.215  0.00  0.00    +0.031 C 
ATOM      5  C   LIG    1       26.135 -30.080  11.504  0.00  0.00    +0.044 C 
ATOM      6  C   LIG    1       27.374 -29.415  12.006  0.00  0.00    +0.197 C 
ATOM      7  O   LIG    1       28.436 -29.581  11.411  0.00  0.00    -0.287 OA
ATOM      8  C   LIG    1       26.204 -30.962  10.485  0.00  0.00    +0.141 C 
ATOM      9  C   LIG    1       25.010 -31.744   9.983  0.00  0.00    +0.190 C 
ATOM     10  C   LIG    1       23.674 -31.483  10.733  0.00  0.00    +0.061 C 
ATOM     11  C   LIG    1       22.420 -31.696   9.802  0.00  0.00    +0.129 C 
ATOM     12  C   LIG    1       22.690 -32.706   8.675  0.00  0.00    +0.127 C 
ATOM     13  C   LIG    1       23.815 -32.600   7.934  0.00  0.00    +0.121 C 
ATOM     14  C   LIG    1       24.731 -31.553   8.475  0.00  0.00    +0.210 C 
ATOM     15  O   LIG    1       25.033 -30.559   7.822  0.00  0.00    -0.288 OA
ATOM     16  C   LIG    1       23.634 -30.060  11.328  0.00  0.00    +0.018 C 
ATOM     17  C   LIG    1       27.255 -28.528  13.200  0.00  0.00    +0.068 A 
ATOM     18  C   LIG    1       28.380 -28.293  13.996  0.00  0.00    +0.128 A 
ATOM     19  C   LIG    1       28.312 -27.387  15.039  0.00  0.00    +0.048 A 
ATOM     20  C   LIG    1       27.122 -26.697  15.276  0.00  0.00    +0.027 A 
ENDROOT
BRANCH  13  21
ATOM     21  C   LIG    1       24.227 -33.448   6.795  0.00  0.00    +0.248 C 
ATOM     22  O   LIG    1       23.443 -33.825   5.927  0.00  0.00    -0.270 OA
ATOM     23  N   LIG    1       25.547 -33.765   6.717  0.00  0.00    -0.325 N 
ATOM     24  H   LIG    1       26.199 -33.448   7.428  0.00  0.00    +0.145 HD
ATOM     25  H   LIG    1       25.872 -34.330   5.947  0.00  0.00    +0.145 HD
ENDBRANCH  13  21
BRANCH   1  27
ATOM     26  C   LIG    1       24.894 -24.732  15.132  0.00  0.00    +0.129 C 
ATOM     27  N   LIG    1       24.788 -26.160  14.821  0.00  0.00    -0.336 N 
ATOM     28  C   LIG    1       23.665 -26.819  15.496  0.00  0.00    +0.129 C 
ENDBRANCH   1  27
BRANCH  11  29
ATOM     29  N   LIG    1       21.163 -31.822  10.563  0.00  0.00    -0.298 NA
ATOM     30  C   LIG    1       21.231 -32.611  11.786  0.00  0.00    +0.105 C 
ATOM     31  C   LIG    1       20.272 -30.674  10.610  0.00  0.00    +0.105 C 
ENDBRANCH  11  29
BRANCH   8  32
ATOM     32  O   LIG    1       27.402 -31.344   9.893  0.00  0.00    -0.507 OA
ATOM     33  H   LIG    1       28.028 -30.582   9.952  0.00  0.00    +0.292 HD
ENDBRANCH   8  32
BRANCH   9  34
ATOM     34  O   LIG    1       25.357 -33.130  10.200  0.00  0.00    -0.373 OA
ATOM     35  H   LIG    1       24.827 -33.627   9.541  0.00  0.00    +0.211 HD
ENDBRANCH   9  34
BRANCH  12  36
ATOM     36  O   LIG    1       21.740 -33.682   8.420  0.00  0.00    -0.509 OA
ATOM     37  H   LIG    1       22.209 -34.433   8.019  0.00  0.00    +0.292 HD
ENDBRANCH  12  36
BRANCH  18  38
ATOM     38  O   LIG    1       29.543 -28.982  13.800  0.00  0.00    -0.506 OA
ATOM     39  H   LIG    1       29.726 -29.065  12.852  0.00  0.00    +0.292 HD
ENDBRANCH  18  38
TORSDOF 7
ENDMDL
MODEL 3
REMARK VINA RESULT:      -5.2      4.857      7.349
REMARK  Name = *****
REMARK                            x       y       z     vdW  Elec       q    Type
REMARK                         _______ _______ _______ _____ _____    ______ ____
ROOT
ATOM      1  C   LIG    1       18.179 -30.501  13.297  0.00  0.00    +0.033 A 
ATOM      2  C   LIG    1       19.538 -30.532  12.868  0.00  0.00    -0.011 A 
ATOM      3  C   LIG    1       20.638 -29.792  13.600  0.00  0.00    +0.046 C 
ATOM      4  C   LIG    1       21.780 -29.322  12.688  0.00  0.00    +0.031 C 
ATOM      5  C   LIG    1       22.325 -30.448  11.865  0.00  0.00    +0.044 C 
ATOM      6  C   LIG    1       21.353 -31.472  11.381  0.00  0.00    +0.197 C 
ATOM      7  O   LIG    1       21.761 -32.454  10.765  0.00  0.00    -0.287 OA
ATOM      8  C   LIG    1       23.626 -30.529  11.514  0.00  0.00    +0.141 C 
ATOM      9  C   LIG    1       24.652 -29.481  11.886  0.00  0.00    +0.190 C 
ATOM     10  C   LIG    1       24.110 -28.271  12.699  0.00  0.00    +0.061 C 
ATOM     11  C   LIG    1       25.211 -27.648  13.640  0.00  0.00    +0.129 C 
ATOM     12  C   LIG    1       26.634 -27.866  13.104  0.00  0.00    +0.127 C 
ATOM     13  C   LIG    1       27.013 -29.094  12.683  0.00  0.00    +0.121 C 
ATOM     14  C   LIG    1       25.863 -30.045  12.663  0.00  0.00    +0.210 C 
ATOM     15  O   LIG    1       25.844 -31.049  13.367  0.00  0.00    -0.288 OA
ATOM     16  C   LIG    1       22.880 -28.667  13.540  0.00  0.00    +0.018 C 
ATOM     17  C   LIG    1       19.911 -31.278  11.714  0.00  0.00    +0.068 A 
ATOM     18  C   LIG    1       18.934 -31.875  10.911  0.00  0.00    +0.128 A 
ATOM     19  C   LIG    1       17.601 -31.796  11.272  0.00  0.00    +0.048 A 
ATOM     20  C   LIG    1       17.243 -31.136  12.448  0.00  0.00    +0.027 A 
ENDROOT
BRANCH  13  21
ATOM     21  C   LIG    1       28.340 -29.502  12.172  0.00  0.00    +0.248 C 
ATOM     22  O   LIG    1       28.518 -29.901  11.024  0.00  0.00    -0.270 OA
ATOM     23  N   LIG    1       29.388 -29.371  13.028  0.00  0.00    -0.325 N 
ATOM     24  H   LIG    1       29.246 -29.034  13.975  0.00  0.00    +0.145 HD
ATOM     25  H   LIG    1       30.313 -29.624  12.714  0.00  0.00    +0.145 HD
ENDBRANCH  13  21
BRANCH   1  27
ATOM     26  C   LIG    1       17.024 -30.622  15.493  0.00  0.00    +0.129 C 
ATOM     27  N   LIG    1       17.734 -29.857  14.465  0.00  0.00    -0.336 N 
ATOM     28  C   LIG    1       17.331 -28.448  14.408  0.00  0.00    +0.129 C 
ENDBRANCH   1  27
BRANCH  11  29
ATOM     29  N   LIG    1       24.847 -26.305  14.127  0.00  0.00    -0.298 NA
ATOM     30  C   LIG    1       23.589 -25.763  13.630  0.00  0.00    +0.105 C 
ATOM     31  C   LIG    1       25.176 -25.960  15.499  0.00  0.00    +0.105 C 
ENDBRANCH  11  29
BRANCH   8  32
ATOM     32  O   LIG    1       24.121 -31.505  10.658  0.00  0.00    -0.507 OA
ATOM     33  H   LIG    1       23.689 -32.363  10.891  0.00  0.00    +0.292 HD
ENDBRANCH   8  32
BRANCH   9  34
ATOM     34  O   LIG    1       25.131 -28.967  10.624  0.00  0.00    -0.373 OA
ATOM     35  H   LIG    1       25.386 -29.762  10.110  0.00  0.00    +0.211 HD
ENDBRANCH   9  34
BRANCH  12  36
ATOM     36  O   LIG    1       27.513 -26.796  13.108  0.00  0.00    -0.509 OA
ATOM     37  H   LIG    1       27.668 -26.561  14.038  0.00  0.00    +0.292 HD
ENDBRANCH  12  36
BRANCH  18  38
ATOM     38  O   LIG    1       19.262 -32.497   9.741  0.00  0.00    -0.506 OA
ATOM     39  H   LIG    1       18.664 -32.212   9.032  0.00  0.00    +0.292 HD
ENDBRANCH  18  38
TORSDOF 7
ENDMDL
MODEL 4
REMARK VINA RESULT:      -5.1      3.577      4.054
REMARK  Name = *****
REMARK                            x       y       z     vdW  Elec       q    Type
REMARK                         _______ _______ _______ _____ _____    ______ ____
ROOT
ATOM      1  C   LIG    1       20.602 -28.925  13.776  0.00  0.00    +0.033 A 
ATOM      2  C   LIG    1       21.391 -29.813  12.987  0.00  0.00    -0.011 A 
ATOM      3  C   LIG    1       22.385 -29.320  11.957  0.00  0.00    +0.046 C 
ATOM      4  C   LIG    1       22.568 -30.274  10.769  0.00  0.00    +0.031 C 
ATOM      5  C   LIG    1       22.889 -31.664  11.223  0.00  0.00    +0.044 C 
ATOM      6  C   LIG    1       22.228 -32.142  12.473  0.00  0.00    +0.197 C 
ATOM      7  O   LIG    1       22.515 -33.248  12.928  0.00  0.00    -0.287 OA
ATOM      8  C   LIG    1       23.695 -32.490  10.523  0.00  0.00    +0.141 C 
ATOM      9  C   LIG    1       24.325 -32.110   9.202  0.00  0.00    +0.190 C 
ATOM     10  C   LIG    1       23.972 -30.691   8.673  0.00  0.00    +0.061 C 
ATOM     11  C   LIG    1       25.125 -30.086   7.784  0.00  0.00    +0.129 C 
ATOM     12  C   LIG    1       25.964 -31.171   7.092  0.00  0.00    +0.127 C 
ATOM     13  C   LIG    1       26.422 -32.224   7.806  0.00  0.00    +0.121 C 
ATOM     14  C   LIG    1       25.866 -32.230   9.190  0.00  0.00    +0.210 C 
ATOM     15  O   LIG    1       26.589 -32.129  10.176  0.00  0.00    -0.288 OA
ATOM     16  C   LIG    1       23.658 -29.724   9.833  0.00  0.00    +0.018 C 
ATOM     17  C   LIG    1       21.268 -31.222  13.151  0.00  0.00    +0.068 A 
ATOM     18  C   LIG    1       20.278 -31.754  13.984  0.00  0.00    +0.128 A 
ATOM     19  C   LIG    1       19.454 -30.909  14.704  0.00  0.00    +0.048 A 
ATOM     20  C   LIG    1       19.630 -29.527  14.609  0.00  0.00    +0.027 A 
ENDROOT
BRANCH  13  21
ATOM     21  C   LIG    1       27.267 -33.338   7.325  0.00  0.00    +0.248 C 
ATOM     22  O   LIG    1       27.189 -33.791   6.186  0.00  0.00    -0.270 OA
ATOM     23  N   LIG    1       28.188 -33.825   8.199  0.00  0.00    -0.325 N 
ATOM     24  H   LIG    1       28.261 -33.448   9.139  0.00  0.00    +0.145 HD
ATOM     25  H   LIG    1       28.794 -34.576   7.906  0.00  0.00    +0.145 HD
ENDBRANCH  13  21
BRANCH   1  27
ATOM     26  C   LIG    1       21.781 -26.858  14.490  0.00  0.00    +0.129 C 
ATOM     27  N   LIG    1       20.714 -27.525  13.737  0.00  0.00    -0.336 N 
ATOM     28  C   LIG    1       19.508 -26.704  13.590  0.00  0.00    +0.129 C 
ENDBRANCH   1  27
BRANCH  11  29
ATOM     29  N   LIG    1       24.676 -28.933   6.981  0.00  0.00    -0.298 NA
ATOM     30  C   LIG    1       25.609 -27.819   6.883  0.00  0.00    +0.105 C 
ATOM     31  C   LIG    1       23.887 -29.194   5.789  0.00  0.00    +0.105 C 
ENDBRANCH  11  29
BRANCH   8  32
ATOM     32  O   LIG    1       23.910 -33.817  10.875  0.00  0.00    -0.507 OA
ATOM     33  H   LIG    1       23.032 -34.225  11.075  0.00  0.00    +0.292 HD
ENDBRANCH   8  32
BRANCH   9  34
ATOM     34  O   LIG    1       23.797 -33.062   8.252  0.00  0.00    -0.373 OA
ATOM     35  H   LIG    1       22.980 -32.644   7.906  0.00  0.00    +0.211 HD
ENDBRANCH   9  34
BRANCH  12  36
ATOM     36  O   LIG    1       26.267 -31.016   5.749  0.00  0.00    -0.509 OA
ATOM     37  H   LIG    1       26.769 -31.803   5.480  0.00  0.00    +0.292 HD
ENDBRANCH  12  36
BRANCH  18  38
ATOM     38  O   LIG    1       20.070 -33.101  14.065  0.00  0.00    -0.506 OA
ATOM     39  H   LIG    1       20.647 -33.488  14.742  0.00  0.00    +0.292 HD
ENDBRANCH  18  38
TORSDOF 7
ENDMDL
MODEL 5
REMARK VINA RESULT:      -5.1      5.293      8.024
REMARK  Name = *****
REMARK                            x       y       z     vdW  Elec       q    Type
REMARK                         _______ _______ _______ _____ _____    ______ ____
ROOT
ATOM      1  C   LIG    1       25.942 -30.319   9.356  0.00  0.00    +0.033 A 
ATOM      2  C   LIG    1       24.878 -30.241  10.302  0.00  0.00    -0.011 A 
ATOM      3  C   LIG    1       23.630 -31.090  10.192  0.00  0.00    +0.046 C 
ATOM      4  C   LIG    1       22.372 -30.419  10.761  0.00  0.00    +0.031 C 
ATOM      5  C   LIG    1       22.592 -29.939  12.163  0.00  0.00    +0.044 C 
ATOM      6  C   LIG    1       23.945 -29.403  12.496  0.00  0.00    +0.197 C 
ATOM      7  O   LIG    1       24.197 -29.066  13.651  0.00  0.00    -0.287 OA
ATOM      8  C   LIG    1       21.611 -29.930  13.090  0.00  0.00    +0.141 C 
ATOM      9  C   LIG    1       20.193 -30.368  12.801  0.00  0.00    +0.190 C 
ATOM     10  C   LIG    1       19.916 -30.825  11.341  0.00  0.00    +0.061 C 
ATOM     11  C   LIG    1       18.760 -31.894  11.263  0.00  0.00    +0.129 C 
ATOM     12  C   LIG    1       17.755 -31.758  12.417  0.00  0.00    +0.127 C 
ATOM     13  C   LIG    1       18.203 -31.640  13.687  0.00  0.00    +0.121 C 
ATOM     14  C   LIG    1       19.688 -31.493  13.733  0.00  0.00    +0.210 C 
ATOM     15  O   LIG    1       20.401 -32.321  14.290  0.00  0.00    -0.288 OA
ATOM     16  C   LIG    1       21.188 -31.396  10.682  0.00  0.00    +0.018 C 
ATOM     17  C   LIG    1       24.960 -29.343  11.404  0.00  0.00    +0.068 A 
ATOM     18  C   LIG    1       26.017 -28.433  11.498  0.00  0.00    +0.128 A 
ATOM     19  C   LIG    1       27.025 -28.444  10.550  0.00  0.00    +0.048 A 
ATOM     20  C   LIG    1       26.988 -29.380   9.515  0.00  0.00    +0.027 A 
ENDROOT
BRANCH  13  21
ATOM     21  C   LIG    1       17.395 -31.535  14.922  0.00  0.00    +0.248 C 
ATOM     22  O   LIG    1       16.888 -32.510  15.471  0.00  0.00    -0.270 OA
ATOM     23  N   LIG    1       17.271 -30.295  15.465  0.00  0.00    -0.325 N 
ATOM     24  H   LIG    1       17.696 -29.488  15.019  0.00  0.00    +0.145 HD
ATOM     25  H   LIG    1       16.740 -30.183  16.315  0.00  0.00    +0.145 HD
ENDBRANCH  13  21
BRANCH   1  27
ATOM     26  C   LIG    1       27.025 -32.256   8.240  0.00  0.00    +0.129 C 
ATOM     27  N   LIG    1       25.981 -31.228   8.285  0.00  0.00    -0.336 N 
ATOM     28  C   LIG    1       25.525 -30.806   6.957  0.00  0.00    +0.129 C 
ENDBRANCH   1  27
BRANCH  11  29
ATOM     29  N   LIG    1       18.233 -32.061   9.896  0.00  0.00    -0.298 NA
ATOM     30  C   LIG    1       17.650 -33.360   9.588  0.00  0.00    +0.105 C 
ATOM     31  C   LIG    1       17.585 -30.922   9.267  0.00  0.00    +0.105 C 
ENDBRANCH  11  29
BRANCH   8  32
ATOM     32  O   LIG    1       21.772 -29.383  14.358  0.00  0.00    -0.507 OA
ATOM     33  H   LIG    1       22.387 -29.967  14.865  0.00  0.00    +0.292 HD
ENDBRANCH   8  32
BRANCH   9  34
ATOM     34  O   LIG    1       19.386 -29.195  13.041  0.00  0.00    -0.373 OA
ATOM     35  H   LIG    1       18.499 -29.423  12.688  0.00  0.00    +0.211 HD
ENDBRANCH   9  34
BRANCH  12  36
ATOM     36  O   LIG    1       16.402 -31.805  12.125  0.00  0.00    -0.509 OA
ATOM     37  H   LIG    1       16.325 -31.978  11.171  0.00  0.00    +0.292 HD
ENDBRANCH  12  36
BRANCH  18  38
ATOM     38  O   LIG    1       26.054 -27.489  12.484  0.00  0.00    -0.506 OA
ATOM     39  H   LIG    1       26.806 -27.652  13.075  0.00  0.00    +0.292 HD
ENDBRANCH  18  38
TORSDOF 7
ENDMDL
MODEL 6
REMARK VINA RESULT:      -5.0      4.579      6.817
REMARK  Name = *****
REMARK                            x       y       z     vdW  Elec       q    Type
REMARK                         _______ _______ _______ _____ _____    ______ ____
ROOT
ATOM      1  C   LIG    1       25.678 -27.425  13.036  0.00  0.00    +0.033 A 
ATOM      2  C   LIG    1       24.822 -28.356  12.378  0.00  0.00    -0.011 A 
ATOM      3  C   LIG    1       23.443 -28.700  12.897  0.00  0.00    +0.046 C 
ATOM      4  C   LIG    1       22.998 -30.132  12.573  0.00  0.00    +0.031 C 
ATOM      5  C   LIG    1       23.127 -30.430  11.111  0.00  0.00    +0.044 C 
ATOM      6  C   LIG    1       24.286 -29.823  10.391  0.00  0.00    +0.197 C 
ATOM      7  O   LIG    1       24.395 -29.977   9.177  0.00  0.00    -0.287 OA
ATOM      8  C   LIG    1       22.279 -31.253  10.459  0.00  0.00    +0.141 C 
ATOM      9  C   LIG    1       21.140 -31.978  11.140  0.00  0.00    +0.190 C 
ATOM     10  C   LIG    1       21.006 -31.731  12.669  0.00  0.00    +0.061 C 
ATOM     11  C   LIG    1       19.515 -31.863  13.163  0.00  0.00    +0.129 C 
ATOM     12  C   LIG    1       18.686 -32.810  12.282  0.00  0.00    +0.127 C 
ATOM     13  C   LIG    1       18.728 -32.685  10.936  0.00  0.00    +0.121 C 
ATOM     14  C   LIG    1       19.757 -31.693  10.511  0.00  0.00    +0.210 C 
ATOM     15  O   LIG    1       19.455 -30.669   9.906  0.00  0.00    -0.288 OA
ATOM     16  C   LIG    1       21.557 -30.345  13.063  0.00  0.00    +0.018 C 
ATOM     17  C   LIG    1       25.249 -29.005  11.184  0.00  0.00    +0.068 A 
ATOM     18  C   LIG    1       26.558 -28.842  10.719  0.00  0.00    +0.128 A 
ATOM     19  C   LIG    1       27.427 -27.996  11.385  0.00  0.00    +0.048 A 
ATOM     20  C   LIG    1       26.983 -27.295  12.508  0.00  0.00    +0.027 A 
ENDROOT
BRANCH  13  21
ATOM     21  C   LIG    1       17.979 -33.475   9.935  0.00  0.00    +0.248 C 
ATOM     22  O   LIG    1       16.812 -33.824  10.098  0.00  0.00    -0.270 OA
ATOM     23  N   LIG    1       18.631 -33.767   8.778  0.00  0.00    -0.325 N 
ATOM     24  H   LIG    1       19.592 -33.472   8.636  0.00  0.00    +0.145 HD
ATOM     25  H   LIG    1       18.150 -34.291   8.063  0.00  0.00    +0.145 HD
ENDBRANCH  13  21
BRANCH   1  27
ATOM     26  C   LIG    1       24.807 -25.314  14.016  0.00  0.00    +0.129 C 
ATOM     27  N   LIG    1       25.311 -26.682  14.172  0.00  0.00    -0.336 N 
ATOM     28  C   LIG    1       26.012 -26.901  15.441  0.00  0.00    +0.129 C 
ENDBRANCH   1  27
BRANCH  11  29
ATOM     29  N   LIG    1       19.413 -32.004  14.627  0.00  0.00    -0.298 NA
ATOM     30  C   LIG    1       20.351 -32.931  15.248  0.00  0.00    +0.105 C 
ATOM     31  C   LIG    1       19.094 -30.822  15.410  0.00  0.00    +0.105 C 
ENDBRANCH  11  29
BRANCH   8  32
ATOM     32  O   LIG    1       22.455 -31.626   9.131  0.00  0.00    -0.507 OA
ATOM     33  H   LIG    1       21.996 -32.490   8.994  0.00  0.00    +0.292 HD
ENDBRANCH   8  32
BRANCH   9  34
ATOM     34  O   LIG    1       21.431 -33.381  10.958  0.00  0.00    -0.373 OA
ATOM     35  H   LIG    1       21.635 -33.473  10.003  0.00  0.00    +0.211 HD
ENDBRANCH   9  34
BRANCH  12  36
ATOM     36  O   LIG    1       17.875 -33.748  12.900  0.00  0.00    -0.509 OA
ATOM     37  H   LIG    1       18.199 -34.624  12.629  0.00  0.00    +0.292 HD
ENDBRANCH  12  36
BRANCH  18  38
ATOM     38  O   LIG    1       27.020 -29.543   9.643  0.00  0.00    -0.506 OA
ATOM     39  H   LIG    1       26.651 -30.440   9.646  0.00  0.00    +0.292 HD
ENDBRANCH  18  38
TORSDOF 7
ENDMDL
MODEL 7
REMARK VINA RESULT:      -4.7      4.280      5.675
REMARK  Name = *****
REMARK                            x       y       z     vdW  Elec       q    Type
REMARK                         _______ _______ _______ _____ _____    ______ ____
ROOT
ATOM      1  C   LIG    1       27.713 -26.281  14.929  0.00  0.00    +0.033 A 
ATOM      2  C   LIG    1       26.960 -27.320  14.306  0.00  0.00    -0.011 A 
ATOM      3  C   LIG    1       25.537 -27.120  13.831  0.00  0.00    +0.046 C 
ATOM      4  C   LIG    1       24.680 -28.392  13.890  0.00  0.00    +0.031 C 
ATOM      5  C   LIG    1       25.342 -29.535  13.185  0.00  0.00    +0.044 C 
ATOM      6  C   LIG    1       26.829 -29.627  13.283  0.00  0.00    +0.197 C 
ATOM      7  O   LIG    1       27.425 -30.504  12.661  0.00  0.00    -0.287 OA
ATOM      8  C   LIG    1       24.645 -30.486  12.528  0.00  0.00    +0.141 C 
ATOM      9  C   LIG    1       23.134 -30.512  12.466  0.00  0.00    +0.190 C 
ATOM     10  C   LIG    1       22.411 -29.367  13.231  0.00  0.00    +0.061 C 
ATOM     11  C   LIG    1       21.022 -29.004  12.581  0.00  0.00    +0.129 C 
ATOM     12  C   LIG    1       20.389 -30.195  11.844  0.00  0.00    +0.127 C 
ATOM     13  C   LIG    1       21.135 -30.927  10.985  0.00  0.00    +0.121 C 
ATOM     14  C   LIG    1       22.571 -30.523  11.027  0.00  0.00    +0.210 C 
ATOM     15  O   LIG    1       23.140 -30.060  10.043  0.00  0.00    -0.288 OA
ATOM     16  C   LIG    1       23.289 -28.101  13.304  0.00  0.00    +0.018 C 
ATOM     17  C   LIG    1       27.539 -28.606  14.107  0.00  0.00    +0.068 A 
ATOM     18  C   LIG    1       28.797 -28.906  14.639  0.00  0.00    +0.128 A 
ATOM     19  C   LIG    1       29.514 -27.931  15.309  0.00  0.00    +0.048 A 
ATOM     20  C   LIG    1       28.983 -26.646  15.432  0.00  0.00    +0.027 A 
ENDROOT
BRANCH  13  21
ATOM     21  C   LIG    1       20.697 -32.076  10.165  0.00  0.00    +0.248 C 
ATOM     22  O   LIG    1       19.514 -32.318   9.934  0.00  0.00    -0.270 OA
ATOM     23  N   LIG    1       21.677 -32.849   9.625  0.00  0.00    -0.325 N 
ATOM     24  H   LIG    1       22.655 -32.647   9.807  0.00  0.00    +0.145 HD
ATOM     25  H   LIG    1       21.420 -33.634   9.047  0.00  0.00    +0.145 HD
ENDBRANCH  13  21
BRANCH   1  27
ATOM     26  C   LIG    1       26.145 -24.470  14.270  0.00  0.00    +0.129 C 
ATOM     27  N   LIG    1       27.251 -24.964  15.095  0.00  0.00    -0.336 N 
ATOM     28  C   LIG    1       28.189 -23.912  15.500  0.00  0.00    +0.129 C 
ENDBRANCH   1  27
BRANCH  11  29
ATOM     29  N   LIG    1       20.166 -28.207  13.479  0.00  0.00    -0.298 NA
ATOM     30  C   LIG    1       20.140 -28.623  14.875  0.00  0.00    +0.105 C 
ATOM     31  C   LIG    1       20.084 -26.774  13.254  0.00  0.00    +0.105 C 
ENDBRANCH  11  29
BRANCH   8  32
ATOM     32  O   LIG    1       25.239 -31.610  11.968  0.00  0.00    -0.507 OA
ATOM     33  H   LIG    1       26.213 -31.552  12.127  0.00  0.00    +0.292 HD
ENDBRANCH   8  32
BRANCH   9  34
ATOM     34  O   LIG    1       22.758 -31.753  13.102  0.00  0.00    -0.373 OA
ATOM     35  H   LIG    1       22.083 -31.499  13.767  0.00  0.00    +0.211 HD
ENDBRANCH   9  34
BRANCH  12  36
ATOM     36  O   LIG    1       19.046 -30.462  12.049  0.00  0.00    -0.509 OA
ATOM     37  H   LIG    1       18.826 -31.239  11.508  0.00  0.00    +0.292 HD
ENDBRANCH  12  36
BRANCH  18  38
ATOM     38  O   LIG    1       29.319 -30.165  14.557  0.00  0.00    -0.506 OA
ATOM     39  H   LIG    1       28.874 -30.666  13.856  0.00  0.00    +0.292 HD
ENDBRANCH  18  38
TORSDOF 7
ENDMDL
MODEL 8
REMARK VINA RESULT:      -4.5      1.914      7.500
REMARK  Name = *****
REMARK                            x       y       z     vdW  Elec       q    Type
REMARK                         _______ _______ _______ _____ _____    ______ ____
ROOT
ATOM      1  C   LIG    1       24.947 -27.880   6.134  0.00  0.00    +0.033 A 
ATOM      2  C   LIG    1       24.808 -28.843   7.176  0.00  0.00    -0.011 A 
ATOM      3  C   LIG    1       25.068 -28.510   8.629  0.00  0.00    +0.046 C 
ATOM      4  C   LIG    1       25.586 -29.697   9.453  0.00  0.00    +0.031 C 
ATOM      5  C   LIG    1       24.698 -30.895   9.311  0.00  0.00    +0.044 C 
ATOM      6  C   LIG    1       24.072 -31.125   7.976  0.00  0.00    +0.197 C 
ATOM      7  O   LIG    1       23.277 -32.051   7.829  0.00  0.00    -0.287 OA
ATOM      8  C   LIG    1       24.498 -31.774  10.315  0.00  0.00    +0.141 C 
ATOM      9  C   LIG    1       25.172 -31.660  11.664  0.00  0.00    +0.190 C 
ATOM     10  C   LIG    1       26.142 -30.456  11.830  0.00  0.00    +0.061 C 
ATOM     11  C   LIG    1       26.226 -29.964  13.325  0.00  0.00    +0.129 C 
ATOM     12  C   LIG    1       25.935 -31.089  14.331  0.00  0.00    +0.127 C 
ATOM     13  C   LIG    1       24.855 -31.883  14.156  0.00  0.00    +0.121 C 
ATOM     14  C   LIG    1       24.183 -31.615  12.851  0.00  0.00    +0.210 C 
ATOM     15  O   LIG    1       23.029 -31.203  12.792  0.00  0.00    -0.288 OA
ATOM     16  C   LIG    1       25.730 -29.277  10.925  0.00  0.00    +0.018 C 
ATOM     17  C   LIG    1       24.408 -30.176   6.874  0.00  0.00    +0.068 A 
ATOM     18  C   LIG    1       24.281 -30.593   5.545  0.00  0.00    +0.128 A 
ATOM     19  C   LIG    1       24.482 -29.691   4.516  0.00  0.00    +0.048 A 
ATOM     20  C   LIG    1       24.792 -28.363   4.813  0.00  0.00    +0.027 A 
ENDROOT
BRANCH  13  21
ATOM     21  C   LIG    1       24.396 -32.985  15.030  0.00  0.00    +0.248 C 
ATOM     22  O   LIG    1       25.159 -33.825  15.500  0.00  0.00    -0.270 OA
ATOM     23  N   LIG    1       23.072 -33.007  15.337  0.00  0.00    -0.325 N 
ATOM     24  H   LIG    1       22.439 -32.310  14.957  0.00  0.00    +0.145 HD
ATOM     25  H   LIG    1       22.720 -33.733  15.942  0.00  0.00    +0.145 HD
ENDBRANCH  13  21
BRANCH   1  27
ATOM     26  C   LIG    1       24.236 -25.500   6.136  0.00  0.00    +0.129 C 
ATOM     27  N   LIG    1       25.260 -26.527   6.347  0.00  0.00    -0.336 N 
ATOM     28  C   LIG    1       26.622 -26.047   6.091  0.00  0.00    +0.129 C 
ENDBRANCH   1  27
BRANCH  11  29
ATOM     29  N   LIG    1       27.391 -29.094  13.571  0.00  0.00    -0.298 NA
ATOM     30  C   LIG    1       28.604 -29.423  12.833  0.00  0.00    +0.105 C 
ATOM     31  C   LIG    1       27.155 -27.676  13.782  0.00  0.00    +0.105 C 
ENDBRANCH  11  29
BRANCH   8  32
ATOM     32  O   LIG    1       23.768 -32.947  10.161  0.00  0.00    -0.507 OA
ATOM     33  H   LIG    1       24.353 -33.705  10.408  0.00  0.00    +0.292 HD
ENDBRANCH   8  32
BRANCH   9  34
ATOM     34  O   LIG    1       25.961 -32.863  11.788  0.00  0.00    -0.373 OA
ATOM     35  H   LIG    1       25.713 -33.407  11.010  0.00  0.00    +0.211 HD
ENDBRANCH   9  34
BRANCH  12  36
ATOM     36  O   LIG    1       26.773 -31.231  15.425  0.00  0.00    -0.509 OA
ATOM     37  H   LIG    1       27.337 -30.440  15.453  0.00  0.00    +0.292 HD
ENDBRANCH  12  36
BRANCH  18  38
ATOM     38  O   LIG    1       24.011 -31.895   5.234  0.00  0.00    -0.506 OA
ATOM     39  H   LIG    1       23.089 -31.985   4.946  0.00  0.00    +0.292 HD
ENDBRANCH  18  38
TORSDOF 7
ENDMDL
MODEL 9
REMARK VINA RESULT:      -4.3      3.149      7.964
REMARK  Name = *****
REMARK                            x       y       z     vdW  Elec       q    Type
REMARK                         _______ _______ _______ _____ _____    ______ ____
ROOT
ATOM      1  C   LIG    1       22.601 -33.363   8.244  0.00  0.00    +0.033 A 
ATOM      2  C   LIG    1       23.576 -32.537   8.875  0.00  0.00    -0.011 A 
ATOM      3  C   LIG    1       23.402 -32.001  10.280  0.00  0.00    +0.046 C 
ATOM      4  C   LIG    1       24.078 -30.643  10.512  0.00  0.00    +0.031 C 
ATOM      5  C   LIG    1       25.519 -30.668  10.106  0.00  0.00    +0.044 C 
ATOM      6  C   LIG    1       25.876 -31.488   8.911  0.00  0.00    +0.197 C 
ATOM      7  O   LIG    1       27.055 -31.601   8.581  0.00  0.00    -0.287 OA
ATOM      8  C   LIG    1       26.466 -29.947  10.741  0.00  0.00    +0.141 C 
ATOM      9  C   LIG    1       26.166 -29.021  11.899  0.00  0.00    +0.190 C 
ATOM     10  C   LIG    1       24.670 -28.931  12.316  0.00  0.00    +0.061 C 
ATOM     11  C   LIG    1       24.500 -28.600  13.848  0.00  0.00    +0.129 C 
ATOM     12  C   LIG    1       25.689 -27.806  14.413  0.00  0.00    +0.127 C 
ATOM     13  C   LIG    1       26.952 -28.214  14.155  0.00  0.00    +0.121 C 
ATOM     14  C   LIG    1       26.975 -29.340  13.177  0.00  0.00    +0.210 C 
ATOM     15  O   LIG    1       27.415 -30.446  13.475  0.00  0.00    -0.288 OA
ATOM     16  C   LIG    1       23.918 -30.236  11.986  0.00  0.00    +0.018 C 
ATOM     17  C   LIG    1       24.772 -32.184   8.186  0.00  0.00    +0.068 A 
ATOM     18  C   LIG    1       24.942 -32.527   6.842  0.00  0.00    +0.128 A 
ATOM     19  C   LIG    1       23.973 -33.269   6.190  0.00  0.00    +0.048 A 
ATOM     20  C   LIG    1       22.839 -33.688   6.888  0.00  0.00    +0.027 A 
ENDROOT
BRANCH  13  21
ATOM     21  C   LIG    1       28.211 -27.605  14.638  0.00  0.00    +0.248 C 
ATOM     22  O   LIG    1       28.239 -26.582  15.317  0.00  0.00    -0.270 OA
ATOM     23  N   LIG    1       29.361 -28.262  14.331  0.00  0.00    -0.325 N 
ATOM     24  H   LIG    1       29.341 -29.112  13.777  0.00  0.00    +0.145 HD
ATOM     25  H   LIG    1       30.240 -27.888  14.654  0.00  0.00    +0.145 HD
ENDBRANCH  13  21
BRANCH   1  27
ATOM     26  C   LIG    1       20.147 -33.746   8.172  0.00  0.00    +0.129 C 
ATOM     27  N   LIG    1       21.432 -33.825   8.874  0.00  0.00    -0.336 N 
ATOM     28  C   LIG    1       21.304 -33.724  10.331  0.00  0.00    +0.129 C 
ENDBRANCH   1  27
BRANCH  11  29
ATOM     29  N   LIG    1       23.137 -28.147  14.182  0.00  0.00    -0.298 NA
ATOM     30  C   LIG    1       22.521 -27.222  13.240  0.00  0.00    +0.105 C 
ATOM     31  C   LIG    1       22.232 -29.098  14.805  0.00  0.00    +0.105 C 
ENDBRANCH  11  29
BRANCH   8  32
ATOM     32  O   LIG    1       27.784 -29.874  10.305  0.00  0.00    -0.507 OA
ATOM     33  H   LIG    1       28.034 -30.759   9.944  0.00  0.00    +0.292 HD
ENDBRANCH   8  32
BRANCH   9  34
ATOM     34  O   LIG    1       26.559 -27.710  11.438  0.00  0.00    -0.373 OA
ATOM     35  H   LIG    1       25.718 -27.266  11.198  0.00  0.00    +0.211 HD
ENDBRANCH   9  34
BRANCH  12  36
ATOM     36  O   LIG    1       25.428 -26.708  15.215  0.00  0.00    -0.509 OA
ATOM     37  H   LIG    1       24.992 -26.045  14.653  0.00  0.00    +0.292 HD
ENDBRANCH  12  36
BRANCH  18  38
ATOM     38  O   LIG    1       26.029 -32.100   6.133  0.00  0.00    -0.506 OA
ATOM     39  H   LIG    1       26.795 -32.663   6.326  0.00  0.00    +0.292 HD
ENDBRANCH  18  38
TORSDOF 7
ENDMDL
