MODEL 1
REMARK VINA RESULT:     -10.2      0.000      0.000
REMARK  Name = *****
REMARK                            x       y       z     vdW  Elec       q    Type
REMARK                         _______ _______ _______ _____ _____    ______ ____
ROOT
ATOM      1  P   LIG    1       24.403 -28.842   6.084  0.00  0.00    +0.483 P 
ATOM      2  O   LIG    1       25.645 -29.259   5.365  0.00  0.00    -0.227 OA
ENDROOT
BRANCH   1   3
ATOM      3  O   LIG    1       23.177 -29.631   5.427  0.00  0.00    -0.302 OA
ATOM      4  H   LIG    1       23.302 -29.639   4.455  0.00  0.00    +0.222 HD
ENDBRANCH   1   3
BRANCH   1   5
ATOM      5  O   LIG    1       24.016 -27.314   5.880  0.00  0.00    -0.186 OA
BRANCH   5   6
ATOM      6  P   LIG    1       25.116 -26.165   5.969  0.00  0.00    +0.483 P 
ATOM      7  O   LIG    1       26.027 -26.245   7.146  0.00  0.00    -0.227 OA
BRANCH   6   8
ATOM      8  O   LIG    1       25.860 -26.290   4.561  0.00  0.00    -0.302 OA
ATOM      9  H   LIG    1       25.851 -27.193   4.181  0.00  0.00    +0.222 HD
ENDBRANCH   6   8
BRANCH   6  10
ATOM     10  O   LIG    1       24.315 -24.776   5.763  0.00  0.00    -0.284 OA
BRANCH  10  11
ATOM     11  C   LIG    1       25.154 -23.623   5.691  0.00  0.00    +0.206 C 
BRANCH  11  12
ATOM     12  C   LIG    1       24.365 -22.314   5.717  0.00  0.00    +0.178 C 
ATOM     13  C   LIG    1       24.497 -21.441   4.479  0.00  0.00    +0.178 C 
ATOM     14  C   LIG    1       25.777 -20.654   4.736  0.00  0.00    +0.195 C 
ATOM     15  C   LIG    1       25.761 -20.479   6.259  0.00  0.00    +0.253 C 
ATOM     16  O   LIG    1       24.819 -21.454   6.784  0.00  0.00    -0.346 OA
BRANCH  15  17
ATOM     17  N   LIG    1       27.077 -20.653   6.865  0.00  0.00    -0.285 N 
ATOM     18  C   LIG    1       28.225 -19.975   6.556  0.00  0.00    +0.167 A 
ATOM     19  N   LIG    1       28.389 -19.014   5.637  0.00  0.00    -0.216 NA
ATOM     20  C   LIG    1       29.651 -18.569   5.598  0.00  0.00    +0.225 A 
ATOM     21  N   LIG    1       30.691 -18.971   6.352  0.00  0.00    -0.219 NA
ATOM     22  C   LIG    1       30.477 -19.927   7.287  0.00  0.00    +0.147 A 
ATOM     23  C   LIG    1       29.190 -20.479   7.409  0.00  0.00    +0.147 A 
ATOM     24  N   LIG    1       28.657 -21.460   8.222  0.00  0.00    -0.231 NA
ATOM     25  C   LIG    1       27.389 -21.539   7.870  0.00  0.00    +0.203 A 
BRANCH  22  26
ATOM     26  N   LIG    1       31.557 -20.328   8.061  0.00  0.00    -0.341 N 
ATOM     27  H   LIG    1       31.989 -19.557   8.559  0.00  0.00    +0.144 HD
ATOM     28  H   LIG    1       31.334 -21.159   8.593  0.00  0.00    +0.144 HD
ENDBRANCH  22  26
ENDBRANCH  15  17
BRANCH  14  29
ATOM     29  O   LIG    1       25.771 -19.407   4.038  0.00  0.00    -0.385 OA
ATOM     30  H   LIG    1       25.799 -18.711   4.733  0.00  0.00    +0.210 HD
ENDBRANCH  14  29
BRANCH  13  31
ATOM     31  O   LIG    1       23.419 -20.483   4.416  0.00  0.00    -0.386 OA
ATOM     32  H   LIG    1       22.939 -20.505   5.267  0.00  0.00    +0.210 HD
ENDBRANCH  13  31
ENDBRANCH  11  12
ENDBRANCH  10  11
ENDBRANCH   6  10
ENDBRANCH   5   6
ENDBRANCH   1   5
BRANCH   1  33
ATOM     33  O   LIG    1       24.337 -29.210   7.642  0.00  0.00    -0.284 OA
BRANCH  33  34
ATOM     34  C   LIG    1       24.860 -30.458   8.058  0.00  0.00    +0.206 C 
BRANCH  34  35
ATOM     35  C   LIG    1       25.865 -30.326   9.204  0.00  0.00    +0.172 C 
BRANCH  35  36
ATOM     36  O   LIG    1       27.102 -30.918   8.768  0.00  0.00    -0.387 OA
ATOM     37  H   LIG    1       26.849 -31.598   8.109  0.00  0.00    +0.210 HD
ENDBRANCH  35  36
BRANCH  35  38
ATOM     38  C   LIG    1       26.179 -28.890   9.660  0.00  0.00    +0.175 C 
BRANCH  38  39
ATOM     39  O   LIG    1       26.997 -28.278   8.636  0.00  0.00    -0.387 OA
ATOM     40  H   LIG    1       27.843 -28.754   8.586  0.00  0.00    +0.210 HD
ENDBRANCH  38  39
BRANCH  38  41
ATOM     41  C   LIG    1       26.769 -28.706  11.067  0.00  0.00    +0.165 C 
BRANCH  41  42
ATOM     42  O   LIG    1       28.113 -29.199  11.034  0.00  0.00    -0.387 OA
ATOM     43  H   LIG    1       28.484 -29.039  10.146  0.00  0.00    +0.210 HD
ENDBRANCH  41  42
BRANCH  41  44
ATOM     44  C   LIG    1       25.934 -29.249  12.264  0.00  0.00    +0.158 C 
BRANCH  44  62
ATOM     45  C   LIG    1       26.353 -23.394  15.491  0.00  0.00    +0.044 C 
ATOM     46  C   LIG    1       26.012 -24.715  14.858  0.00  0.00    -0.045 A 
ATOM     47  C   LIG    1       26.997 -25.670  14.572  0.00  0.00    -0.045 A 
ATOM     48  C   LIG    1       28.460 -25.378  14.786  0.00  0.00    +0.044 C 
ATOM     49  C   LIG    1       26.627 -26.897  13.981  0.00  0.00    +0.031 A 
ATOM     50  C   LIG    1       25.313 -27.165  13.563  0.00  0.00    +0.069 A 
ATOM     51  C   LIG    1       24.326 -26.205  13.898  0.00  0.00    +0.089 A 
ATOM     52  N   LIG    1       22.958 -26.381  13.618  0.00  0.00    -0.237 NA
ATOM     53  C   LIG    1       22.577 -27.467  13.025  0.00  0.00    +0.171 A 
ATOM     54  C   LIG    1       23.573 -28.508  12.562  0.00  0.00    +0.171 A 
ATOM     55  N   LIG    1       23.121 -29.529  11.905  0.00  0.00    -0.173 NA
ATOM     56  C   LIG    1       21.793 -29.730  11.660  0.00  0.00    +0.350 C 
ATOM     57  O   LIG    1       21.399 -30.530  10.823  0.00  0.00    -0.245 OA
ATOM     58  N   LIG    1       20.869 -29.002  12.343  0.00  0.00    -0.272 N 
ATOM     59  H   LIG    1       19.928 -29.174  12.048  0.00  0.00    +0.173 HD
ATOM     60  C   LIG    1       21.129 -27.733  12.747  0.00  0.00    +0.282 C 
ATOM     61  O   LIG    1       20.263 -26.863  12.819  0.00  0.00    -0.265 OA
ATOM     62  N   LIG    1       24.931 -28.297  12.800  0.00  0.00    -0.320 N 
ATOM     63  C   LIG    1       24.683 -25.009  14.537  0.00  0.00    +0.033 A 
ENDBRANCH  44  62
ENDBRANCH  41  44
ENDBRANCH  38  41
ENDBRANCH  35  38
ENDBRANCH  34  35
ENDBRANCH  33  34
ENDBRANCH   1  33
TORSDOF 21
ENDMDL
MODEL 2
REMARK VINA RESULT:     -10.0      2.080      3.632
REMARK  Name = *****
REMARK                            x       y       z     vdW  Elec       q    Type
REMARK                         _______ _______ _______ _____ _____    ______ ____
ROOT
ATOM      1  P   LIG    1       24.751 -27.930   5.835  0.00  0.00    +0.483 P 
ATOM      2  O   LIG    1       25.841 -27.789   4.822  0.00  0.00    -0.227 OA
ENDROOT
BRANCH   1   3
ATOM      3  O   LIG    1       23.607 -28.840   5.188  0.00  0.00    -0.302 OA
ATOM      4  H   LIG    1       23.367 -28.460   4.318  0.00  0.00    +0.222 HD
ENDBRANCH   1   3
BRANCH   1   5
ATOM      5  O   LIG    1       24.002 -26.571   6.175  0.00  0.00    -0.186 OA
BRANCH   5   6
ATOM      6  P   LIG    1       24.749 -25.168   6.073  0.00  0.00    +0.483 P 
ATOM      7  O   LIG    1       26.086 -25.108   6.730  0.00  0.00    -0.227 OA
BRANCH   6   8
ATOM      8  O   LIG    1       24.787 -24.911   4.497  0.00  0.00    -0.302 OA
ATOM      9  H   LIG    1       23.909 -24.738   4.097  0.00  0.00    +0.222 HD
ENDBRANCH   6   8
BRANCH   6  10
ATOM     10  O   LIG    1       23.664 -24.060   6.531  0.00  0.00    -0.284 OA
BRANCH  10  11
ATOM     11  C   LIG    1       24.218 -22.969   7.267  0.00  0.00    +0.206 C 
BRANCH  11  12
ATOM     12  C   LIG    1       23.842 -21.608   6.682  0.00  0.00    +0.178 C 
ATOM     13  C   LIG    1       24.035 -21.460   5.181  0.00  0.00    +0.178 C 
ATOM     14  C   LIG    1       25.508 -21.088   5.049  0.00  0.00    +0.195 C 
ATOM     15  C   LIG    1       25.760 -20.267   6.319  0.00  0.00    +0.253 C 
ATOM     16  O   LIG    1       24.666 -20.559   7.232  0.00  0.00    -0.346 OA
BRANCH  15  17
ATOM     17  N   LIG    1       27.046 -20.561   6.940  0.00  0.00    -0.285 N 
ATOM     18  C   LIG    1       28.252 -19.979   6.661  0.00  0.00    +0.167 A 
ATOM     19  N   LIG    1       28.512 -19.021   5.761  0.00  0.00    -0.216 NA
ATOM     20  C   LIG    1       29.808 -18.684   5.748  0.00  0.00    +0.225 A 
ATOM     21  N   LIG    1       30.798 -19.185   6.511  0.00  0.00    -0.219 NA
ATOM     22  C   LIG    1       30.488 -20.134   7.425  0.00  0.00    +0.147 A 
ATOM     23  C   LIG    1       29.157 -20.576   7.519  0.00  0.00    +0.147 A 
ATOM     24  N   LIG    1       28.530 -21.521   8.307  0.00  0.00    -0.231 NA
ATOM     25  C   LIG    1       27.265 -21.487   7.935  0.00  0.00    +0.203 A 
BRANCH  22  26
ATOM     26  N   LIG    1       31.518 -20.637   8.208  0.00  0.00    -0.341 N 
ATOM     27  H   LIG    1       32.212 -19.936   8.440  0.00  0.00    +0.144 HD
ATOM     28  H   LIG    1       31.155 -21.202   8.966  0.00  0.00    +0.144 HD
ENDBRANCH  22  26
ENDBRANCH  15  17
BRANCH  14  29
ATOM     29  O   LIG    1       25.753 -20.344   3.854  0.00  0.00    -0.385 OA
ATOM     30  H   LIG    1       26.630 -20.646   3.526  0.00  0.00    +0.210 HD
ENDBRANCH  14  29
BRANCH  13  31
ATOM     31  O   LIG    1       23.273 -20.342   4.678  0.00  0.00    -0.386 OA
ATOM     32  H   LIG    1       22.336 -20.476   4.922  0.00  0.00    +0.210 HD
ENDBRANCH  13  31
ENDBRANCH  11  12
ENDBRANCH  10  11
ENDBRANCH   6  10
ENDBRANCH   5   6
ENDBRANCH   1   5
BRANCH   1  33
ATOM     33  O   LIG    1       25.150 -28.679   7.195  0.00  0.00    -0.284 OA
BRANCH  33  34
ATOM     34  C   LIG    1       24.523 -29.914   7.487  0.00  0.00    +0.206 C 
BRANCH  34  35
ATOM     35  C   LIG    1       25.435 -30.873   8.255  0.00  0.00    +0.172 C 
BRANCH  35  36
ATOM     36  O   LIG    1       26.528 -31.223   7.387  0.00  0.00    -0.387 OA
ATOM     37  H   LIG    1       27.283 -30.671   7.679  0.00  0.00    +0.210 HD
ENDBRANCH  35  36
BRANCH  35  38
ATOM     38  C   LIG    1       26.043 -30.322   9.558  0.00  0.00    +0.175 C 
BRANCH  38  39
ATOM     39  O   LIG    1       27.104 -29.410   9.191  0.00  0.00    -0.387 OA
ATOM     40  H   LIG    1       27.721 -29.332   9.938  0.00  0.00    +0.210 HD
ENDBRANCH  38  39
BRANCH  38  41
ATOM     41  C   LIG    1       26.489 -31.341  10.618  0.00  0.00    +0.165 C 
BRANCH  41  42
ATOM     42  O   LIG    1       26.495 -32.630   9.995  0.00  0.00    -0.387 OA
ATOM     43  H   LIG    1       27.420 -32.904   9.849  0.00  0.00    +0.210 HD
ENDBRANCH  41  42
BRANCH  41  44
ATOM     44  C   LIG    1       25.747 -31.312  11.987  0.00  0.00    +0.158 C 
BRANCH  44  62
ATOM     45  C   LIG    1       20.741 -27.023  13.178  0.00  0.00    +0.044 C 
ATOM     46  C   LIG    1       22.021 -27.778  12.947  0.00  0.00    -0.045 A 
ATOM     47  C   LIG    1       22.064 -28.931  12.152  0.00  0.00    -0.045 A 
ATOM     48  C   LIG    1       20.809 -29.532  11.574  0.00  0.00    +0.044 C 
ATOM     49  C   LIG    1       23.291 -29.601  11.962  0.00  0.00    +0.031 A 
ATOM     50  C   LIG    1       24.467 -29.223  12.630  0.00  0.00    +0.069 A 
ATOM     51  C   LIG    1       24.413 -28.032  13.397  0.00  0.00    +0.089 A 
ATOM     52  N   LIG    1       25.535 -27.490  14.050  0.00  0.00    -0.237 NA
ATOM     53  C   LIG    1       26.672 -28.102  13.952  0.00  0.00    +0.171 A 
ATOM     54  C   LIG    1       26.801 -29.419  13.219  0.00  0.00    +0.171 A 
ATOM     55  N   LIG    1       27.954 -30.009  13.233  0.00  0.00    -0.173 NA
ATOM     56  C   LIG    1       29.059 -29.475  13.831  0.00  0.00    +0.350 C 
ATOM     57  O   LIG    1       30.054 -30.141  14.076  0.00  0.00    -0.245 OA
ATOM     58  N   LIG    1       29.054 -28.165  14.195  0.00  0.00    -0.272 N 
ATOM     59  H   LIG    1       29.881 -27.882  14.682  0.00  0.00    +0.173 HD
ATOM     60  C   LIG    1       27.911 -27.544  14.583  0.00  0.00    +0.282 C 
ATOM     61  O   LIG    1       27.889 -26.646  15.423  0.00  0.00    -0.265 OA
ATOM     62  N   LIG    1       25.670 -29.972  12.620  0.00  0.00    -0.320 N 
ATOM     63  C   LIG    1       23.207 -27.331  13.541  0.00  0.00    +0.033 A 
ENDBRANCH  44  62
ENDBRANCH  41  44
ENDBRANCH  38  41
ENDBRANCH  35  38
ENDBRANCH  34  35
ENDBRANCH  33  34
ENDBRANCH   1  33
TORSDOF 21
ENDMDL
MODEL 3
REMARK VINA RESULT:     -10.0      2.167     10.459
REMARK  Name = *****
REMARK                            x       y       z     vdW  Elec       q    Type
REMARK                         _______ _______ _______ _____ _____    ______ ____
ROOT
ATOM      1  P   LIG    1       25.211 -26.348   5.609  0.00  0.00    +0.483 P 
ATOM      2  O   LIG    1       26.274 -26.711   4.623  0.00  0.00    -0.227 OA
ENDROOT
BRANCH   1   3
ATOM      3  O   LIG    1       25.900 -26.255   7.049  0.00  0.00    -0.302 OA
ATOM      4  H   LIG    1       26.710 -25.711   6.967  0.00  0.00    +0.222 HD
ENDBRANCH   1   3
BRANCH   1   5
ATOM      5  O   LIG    1       24.095 -27.462   5.799  0.00  0.00    -0.186 OA
BRANCH   5   6
ATOM      6  P   LIG    1       24.451 -28.894   6.399  0.00  0.00    +0.483 P 
ATOM      7  O   LIG    1       23.457 -29.969   6.118  0.00  0.00    -0.227 OA
BRANCH   6   8
ATOM      8  O   LIG    1       25.900 -29.173   5.788  0.00  0.00    -0.302 OA
ATOM      9  H   LIG    1       26.066 -28.728   4.930  0.00  0.00    +0.222 HD
ENDBRANCH   6   8
BRANCH   6  10
ATOM     10  O   LIG    1       24.825 -28.637   7.951  0.00  0.00    -0.284 OA
BRANCH  10  11
ATOM     11  C   LIG    1       25.621 -29.667   8.538  0.00  0.00    +0.206 C 
BRANCH  11  12
ATOM     12  C   LIG    1       26.638 -29.128   9.544  0.00  0.00    +0.178 C 
ATOM     13  C   LIG    1       27.316 -30.172  10.417  0.00  0.00    +0.178 C 
ATOM     14  C   LIG    1       26.326 -30.376  11.558  0.00  0.00    +0.195 C 
ATOM     15  C   LIG    1       25.707 -28.982  11.716  0.00  0.00    +0.253 C 
ATOM     16  O   LIG    1       26.011 -28.247  10.498  0.00  0.00    -0.346 OA
BRANCH  15  17
ATOM     17  N   LIG    1       24.268 -29.021  11.952  0.00  0.00    -0.285 N 
ATOM     18  C   LIG    1       23.519 -28.109  12.643  0.00  0.00    +0.167 A 
ATOM     19  N   LIG    1       23.940 -26.992  13.250  0.00  0.00    -0.216 NA
ATOM     20  C   LIG    1       22.935 -26.331  13.837  0.00  0.00    +0.225 A 
ATOM     21  N   LIG    1       21.631 -26.666  13.861  0.00  0.00    -0.219 NA
ATOM     22  C   LIG    1       21.243 -27.790  13.214  0.00  0.00    +0.147 A 
ATOM     23  C   LIG    1       22.218 -28.573  12.572  0.00  0.00    +0.147 A 
ATOM     24  N   LIG    1       22.161 -29.757  11.864  0.00  0.00    -0.231 NA
ATOM     25  C   LIG    1       23.407 -29.997  11.506  0.00  0.00    +0.203 A 
BRANCH  22  26
ATOM     26  N   LIG    1       19.895 -28.120  13.244  0.00  0.00    -0.341 N 
ATOM     27  H   LIG    1       19.294 -27.306  13.317  0.00  0.00    +0.144 HD
ATOM     28  H   LIG    1       19.672 -28.800  12.528  0.00  0.00    +0.144 HD
ENDBRANCH  22  26
ENDBRANCH  15  17
BRANCH  14  29
ATOM     29  O   LIG    1       26.982 -30.826  12.745  0.00  0.00    -0.385 OA
ATOM     30  H   LIG    1       27.247 -30.011  13.228  0.00  0.00    +0.210 HD
ENDBRANCH  14  29
BRANCH  13  31
ATOM     31  O   LIG    1       28.525 -29.639  11.000  0.00  0.00    -0.386 OA
ATOM     32  H   LIG    1       29.216 -29.621  10.309  0.00  0.00    +0.210 HD
ENDBRANCH  13  31
ENDBRANCH  11  12
ENDBRANCH  10  11
ENDBRANCH   6  10
ENDBRANCH   5   6
ENDBRANCH   1   5
BRANCH   1  33
ATOM     33  O   LIG    1       24.515 -24.920   5.395  0.00  0.00    -0.284 OA
BRANCH  33  34
ATOM     34  C   LIG    1       23.952 -24.274   6.522  0.00  0.00    +0.206 C 
BRANCH  34  35
ATOM     35  C   LIG    1       24.124 -22.754   6.480  0.00  0.00    +0.172 C 
BRANCH  35  36
ATOM     36  O   LIG    1       22.923 -22.197   5.917  0.00  0.00    -0.387 OA
ATOM     37  H   LIG    1       23.211 -21.698   5.124  0.00  0.00    +0.210 HD
ENDBRANCH  35  36
BRANCH  35  38
ATOM     38  C   LIG    1       24.358 -22.066   7.836  0.00  0.00    +0.175 C 
BRANCH  38  39
ATOM     39  O   LIG    1       23.732 -20.764   7.776  0.00  0.00    -0.387 OA
ATOM     40  H   LIG    1       23.842 -20.324   8.636  0.00  0.00    +0.210 HD
ENDBRANCH  38  39
BRANCH  38  41
ATOM     41  C   LIG    1       25.802 -21.998   8.357  0.00  0.00    +0.165 C 
BRANCH  41  42
ATOM     42  O   LIG    1       25.979 -20.709   8.955  0.00  0.00    -0.387 OA
ATOM     43  H   LIG    1       26.011 -20.037   8.248  0.00  0.00    +0.210 HD
ENDBRANCH  41  42
BRANCH  41  44
ATOM     44  C   LIG    1       26.935 -22.386   7.362  0.00  0.00    +0.158 C 
BRANCH  44  62
ATOM     45  C   LIG    1       25.900 -17.302   3.125  0.00  0.00    +0.044 C 
ATOM     46  C   LIG    1       26.388 -18.389   4.044  0.00  0.00    -0.045 A 
ATOM     47  C   LIG    1       25.639 -19.551   4.274  0.00  0.00    -0.045 A 
ATOM     48  C   LIG    1       24.258 -19.722   3.694  0.00  0.00    +0.044 C 
ATOM     49  C   LIG    1       26.140 -20.543   5.141  0.00  0.00    +0.031 A 
ATOM     50  C   LIG    1       27.323 -20.370   5.880  0.00  0.00    +0.069 A 
ATOM     51  C   LIG    1       28.086 -19.208   5.603  0.00  0.00    +0.089 A 
ATOM     52  N   LIG    1       29.331 -18.947   6.204  0.00  0.00    -0.237 NA
ATOM     53  C   LIG    1       29.806 -19.803   7.052  0.00  0.00    +0.171 A 
ATOM     54  C   LIG    1       29.023 -21.029   7.464  0.00  0.00    +0.171 A 
ATOM     55  N   LIG    1       29.531 -21.796   8.376  0.00  0.00    -0.173 NA
ATOM     56  C   LIG    1       30.755 -21.574   8.940  0.00  0.00    +0.350 C 
ATOM     57  O   LIG    1       31.107 -22.127   9.972  0.00  0.00    -0.245 OA
ATOM     58  N   LIG    1       31.609 -20.690   8.357  0.00  0.00    -0.272 N 
ATOM     59  H   LIG    1       32.452 -20.547   8.878  0.00  0.00    +0.173 HD
ATOM     60  C   LIG    1       31.150 -19.604   7.685  0.00  0.00    +0.282 C 
ATOM     61  O   LIG    1       31.755 -18.533   7.651  0.00  0.00    -0.265 OA
ATOM     62  N   LIG    1       27.767 -21.250   6.898  0.00  0.00    -0.320 N 
ATOM     63  C   LIG    1       27.617 -18.246   4.697  0.00  0.00    +0.033 A 
ENDBRANCH  44  62
ENDBRANCH  41  44
ENDBRANCH  38  41
ENDBRANCH  35  38
ENDBRANCH  34  35
ENDBRANCH  33  34
ENDBRANCH   1  33
TORSDOF 21
ENDMDL
MODEL 4
REMARK VINA RESULT:      -9.8      2.128     10.132
REMARK  Name = *****
REMARK                            x       y       z     vdW  Elec       q    Type
REMARK                         _______ _______ _______ _____ _____    ______ ____
ROOT
ATOM      1  P   LIG    1       25.469 -26.417   6.083  0.00  0.00    +0.483 P 
ATOM      2  O   LIG    1       25.928 -26.284   4.666  0.00  0.00    -0.227 OA
ENDROOT
BRANCH   1   3
ATOM      3  O   LIG    1       26.654 -27.100   6.911  0.00  0.00    -0.302 OA
ATOM      4  H   LIG    1       27.504 -26.857   6.489  0.00  0.00    +0.222 HD
ENDBRANCH   1   3
BRANCH   1   5
ATOM      5  O   LIG    1       24.251 -27.419   6.278  0.00  0.00    -0.186 OA
BRANCH   5   6
ATOM      6  P   LIG    1       24.470 -28.996   6.270  0.00  0.00    +0.483 P 
ATOM      7  O   LIG    1       23.315 -29.798   5.775  0.00  0.00    -0.227 OA
BRANCH   6   8
ATOM      8  O   LIG    1       25.796 -29.157   5.395  0.00  0.00    -0.302 OA
ATOM      9  H   LIG    1       26.517 -29.645   5.845  0.00  0.00    +0.222 HD
ENDBRANCH   6   8
BRANCH   6  10
ATOM     10  O   LIG    1       25.034 -29.366   7.740  0.00  0.00    -0.284 OA
BRANCH  10  11
ATOM     11  C   LIG    1       25.610 -30.669   7.833  0.00  0.00    +0.206 C 
BRANCH  11  12
ATOM     12  C   LIG    1       24.880 -31.571   8.829  0.00  0.00    +0.178 C 
ATOM     13  C   LIG    1       23.433 -31.201   9.114  0.00  0.00    +0.178 C 
ATOM     14  C   LIG    1       23.548 -30.132  10.195  0.00  0.00    +0.195 C 
ATOM     15  C   LIG    1       24.787 -30.582  10.978  0.00  0.00    +0.253 C 
ATOM     16  O   LIG    1       25.502 -31.521  10.130  0.00  0.00    -0.346 OA
BRANCH  15  17
ATOM     17  N   LIG    1       25.650 -29.471  11.363  0.00  0.00    -0.285 N 
ATOM     18  C   LIG    1       25.341 -28.437  12.204  0.00  0.00    +0.167 A 
ATOM     19  N   LIG    1       24.187 -28.219  12.848  0.00  0.00    -0.216 NA
ATOM     20  C   LIG    1       24.228 -27.105  13.588  0.00  0.00    +0.225 A 
ATOM     21  N   LIG    1       25.258 -26.250  13.734  0.00  0.00    -0.219 NA
ATOM     22  C   LIG    1       26.415 -26.519  13.085  0.00  0.00    +0.147 A 
ATOM     23  C   LIG    1       26.483 -27.659  12.266  0.00  0.00    +0.147 A 
ATOM     24  N   LIG    1       27.478 -28.191  11.470  0.00  0.00    -0.231 NA
ATOM     25  C   LIG    1       26.946 -29.277  10.943  0.00  0.00    +0.203 A 
BRANCH  22  26
ATOM     26  N   LIG    1       27.470 -25.631  13.250  0.00  0.00    -0.341 N 
ATOM     27  H   LIG    1       27.282 -24.720  12.847  0.00  0.00    +0.144 HD
ATOM     28  H   LIG    1       27.821 -25.658  14.199  0.00  0.00    +0.144 HD
ENDBRANCH  22  26
ENDBRANCH  15  17
BRANCH  14  29
ATOM     29  O   LIG    1       22.372 -30.081  11.005  0.00  0.00    -0.385 OA
ATOM     30  H   LIG    1       22.042 -29.157  10.940  0.00  0.00    +0.210 HD
ENDBRANCH  14  29
BRANCH  13  31
ATOM     31  O   LIG    1       22.729 -32.317   9.698  0.00  0.00    -0.386 OA
ATOM     32  H   LIG    1       23.284 -32.690  10.411  0.00  0.00    +0.210 HD
ENDBRANCH  13  31
ENDBRANCH  11  12
ENDBRANCH  10  11
ENDBRANCH   6  10
ENDBRANCH   5   6
ENDBRANCH   1   5
BRANCH   1  33
ATOM     33  O   LIG    1       25.167 -25.046   6.854  0.00  0.00    -0.284 OA
BRANCH  33  34
ATOM     34  C   LIG    1       23.951 -24.376   6.577  0.00  0.00    +0.206 C 
BRANCH  34  35
ATOM     35  C   LIG    1       24.130 -22.863   6.430  0.00  0.00    +0.172 C 
BRANCH  35  36
ATOM     36  O   LIG    1       22.960 -22.350   5.769  0.00  0.00    -0.387 OA
ATOM     37  H   LIG    1       23.267 -22.047   4.888  0.00  0.00    +0.210 HD
ENDBRANCH  35  36
BRANCH  35  38
ATOM     38  C   LIG    1       24.299 -22.076   7.741  0.00  0.00    +0.175 C 
BRANCH  38  39
ATOM     39  O   LIG    1       23.584 -20.827   7.593  0.00  0.00    -0.387 OA
ATOM     40  H   LIG    1       22.645 -20.979   7.790  0.00  0.00    +0.210 HD
ENDBRANCH  38  39
BRANCH  38  41
ATOM     41  C   LIG    1       25.729 -21.872   8.267  0.00  0.00    +0.165 C 
BRANCH  41  42
ATOM     42  O   LIG    1       25.822 -20.523   8.739  0.00  0.00    -0.387 OA
ATOM     43  H   LIG    1       25.543 -20.498   9.674  0.00  0.00    +0.210 HD
ENDBRANCH  41  42
BRANCH  41  44
ATOM     44  C   LIG    1       26.897 -22.287   7.325  0.00  0.00    +0.158 C 
BRANCH  44  62
ATOM     45  C   LIG    1       25.957 -17.215   3.052  0.00  0.00    +0.044 C 
ATOM     46  C   LIG    1       26.425 -18.302   3.981  0.00  0.00    -0.045 A 
ATOM     47  C   LIG    1       25.660 -19.454   4.210  0.00  0.00    -0.045 A 
ATOM     48  C   LIG    1       24.283 -19.611   3.620  0.00  0.00    +0.044 C 
ATOM     49  C   LIG    1       26.143 -20.447   5.088  0.00  0.00    +0.031 A 
ATOM     50  C   LIG    1       27.322 -20.283   5.835  0.00  0.00    +0.069 A 
ATOM     51  C   LIG    1       28.100 -19.132   5.558  0.00  0.00    +0.089 A 
ATOM     52  N   LIG    1       29.343 -18.883   6.168  0.00  0.00    -0.237 NA
ATOM     53  C   LIG    1       29.802 -19.739   7.025  0.00  0.00    +0.171 A 
ATOM     54  C   LIG    1       29.000 -20.954   7.437  0.00  0.00    +0.171 A 
ATOM     55  N   LIG    1       29.492 -21.721   8.357  0.00  0.00    -0.173 NA
ATOM     56  C   LIG    1       30.714 -21.511   8.930  0.00  0.00    +0.350 C 
ATOM     57  O   LIG    1       31.051 -22.062   9.968  0.00  0.00    -0.245 OA
ATOM     58  N   LIG    1       31.583 -20.640   8.350  0.00  0.00    -0.272 N 
ATOM     59  H   LIG    1       32.423 -20.504   8.876  0.00  0.00    +0.173 HD
ATOM     60  C   LIG    1       31.142 -19.552   7.668  0.00  0.00    +0.282 C 
ATOM     61  O   LIG    1       31.760 -18.489   7.632  0.00  0.00    -0.265 OA
ATOM     62  N   LIG    1       27.747 -21.163   6.862  0.00  0.00    -0.320 N 
ATOM     63  C   LIG    1       27.650 -18.170   4.643  0.00  0.00    +0.033 A 
ENDBRANCH  44  62
ENDBRANCH  41  44
ENDBRANCH  38  41
ENDBRANCH  35  38
ENDBRANCH  34  35
ENDBRANCH  33  34
ENDBRANCH   1  33
TORSDOF 21
ENDMDL
MODEL 5
REMARK VINA RESULT:      -9.6      1.472      2.302
REMARK  Name = *****
REMARK                            x       y       z     vdW  Elec       q    Type
REMARK                         _______ _______ _______ _____ _____    ______ ____
ROOT
ATOM      1  P   LIG    1       24.775 -27.966   5.959  0.00  0.00    +0.483 P 
ATOM      2  O   LIG    1       25.890 -27.916   4.964  0.00  0.00    -0.227 OA
ENDROOT
BRANCH   1   3
ATOM      3  O   LIG    1       23.666 -28.967   5.389  0.00  0.00    -0.302 OA
ATOM      4  H   LIG    1       22.836 -28.823   5.890  0.00  0.00    +0.222 HD
ENDBRANCH   1   3
BRANCH   1   5
ATOM      5  O   LIG    1       23.991 -26.594   6.125  0.00  0.00    -0.186 OA
BRANCH   5   6
ATOM      6  P   LIG    1       24.749 -25.195   6.044  0.00  0.00    +0.483 P 
ATOM      7  O   LIG    1       26.092 -25.159   6.690  0.00  0.00    -0.227 OA
BRANCH   6   8
ATOM      8  O   LIG    1       24.775 -24.908   4.473  0.00  0.00    -0.302 OA
ATOM      9  H   LIG    1       24.539 -23.988   4.229  0.00  0.00    +0.222 HD
ENDBRANCH   6   8
BRANCH   6  10
ATOM     10  O   LIG    1       23.677 -24.088   6.534  0.00  0.00    -0.284 OA
BRANCH  10  11
ATOM     11  C   LIG    1       24.252 -22.996   7.250  0.00  0.00    +0.206 C 
BRANCH  11  12
ATOM     12  C   LIG    1       23.863 -21.636   6.670  0.00  0.00    +0.178 C 
ATOM     13  C   LIG    1       24.072 -21.474   5.172  0.00  0.00    +0.178 C 
ATOM     14  C   LIG    1       25.540 -21.081   5.060  0.00  0.00    +0.195 C 
ATOM     15  C   LIG    1       25.766 -20.265   6.339  0.00  0.00    +0.253 C 
ATOM     16  O   LIG    1       24.665 -20.579   7.237  0.00  0.00    -0.346 OA
BRANCH  15  17
ATOM     17  N   LIG    1       27.048 -20.545   6.974  0.00  0.00    -0.285 N 
ATOM     18  C   LIG    1       28.258 -19.977   6.680  0.00  0.00    +0.167 A 
ATOM     19  N   LIG    1       28.525 -19.050   5.750  0.00  0.00    -0.216 NA
ATOM     20  C   LIG    1       29.822 -18.720   5.730  0.00  0.00    +0.225 A 
ATOM     21  N   LIG    1       30.807 -19.201   6.512  0.00  0.00    -0.219 NA
ATOM     22  C   LIG    1       30.490 -20.118   7.455  0.00  0.00    +0.147 A 
ATOM     23  C   LIG    1       29.158 -20.551   7.559  0.00  0.00    +0.147 A 
ATOM     24  N   LIG    1       28.524 -21.467   8.375  0.00  0.00    -0.231 NA
ATOM     25  C   LIG    1       27.260 -21.439   7.998  0.00  0.00    +0.203 A 
BRANCH  22  26
ATOM     26  N   LIG    1       31.516 -20.601   8.258  0.00  0.00    -0.341 N 
ATOM     27  H   LIG    1       32.419 -20.573   7.798  0.00  0.00    +0.144 HD
ATOM     28  H   LIG    1       31.457 -20.216   9.192  0.00  0.00    +0.144 HD
ENDBRANCH  22  26
ENDBRANCH  15  17
BRANCH  14  29
ATOM     29  O   LIG    1       25.789 -20.325   3.873  0.00  0.00    -0.385 OA
ATOM     30  H   LIG    1       25.610 -19.388   4.111  0.00  0.00    +0.210 HD
ENDBRANCH  14  29
BRANCH  13  31
ATOM     31  O   LIG    1       23.299 -20.365   4.668  0.00  0.00    -0.386 OA
ATOM     32  H   LIG    1       23.588 -20.180   3.753  0.00  0.00    +0.210 HD
ENDBRANCH  13  31
ENDBRANCH  11  12
ENDBRANCH  10  11
ENDBRANCH   6  10
ENDBRANCH   5   6
ENDBRANCH   1   5
BRANCH   1  33
ATOM     33  O   LIG    1       25.150 -28.550   7.403  0.00  0.00    -0.284 OA
BRANCH  33  34
ATOM     34  C   LIG    1       24.961 -29.934   7.635  0.00  0.00    +0.206 C 
BRANCH  34  35
ATOM     35  C   LIG    1       23.673 -30.235   8.404  0.00  0.00    +0.172 C 
BRANCH  35  36
ATOM     36  O   LIG    1       23.275 -31.578   8.076  0.00  0.00    -0.387 OA
ATOM     37  H   LIG    1       22.455 -31.488   7.546  0.00  0.00    +0.210 HD
ENDBRANCH  35  36
BRANCH  35  38
ATOM     38  C   LIG    1       23.769 -30.146   9.937  0.00  0.00    +0.175 C 
BRANCH  38  39
ATOM     39  O   LIG    1       25.106 -30.549  10.312  0.00  0.00    -0.387 OA
ATOM     40  H   LIG    1       25.657 -29.754  10.409  0.00  0.00    +0.210 HD
ENDBRANCH  38  39
BRANCH  38  41
ATOM     41  C   LIG    1       22.689 -30.867  10.758  0.00  0.00    +0.165 C 
BRANCH  41  42
ATOM     42  O   LIG    1       21.416 -30.450  10.250  0.00  0.00    -0.387 OA
ATOM     43  H   LIG    1       21.472 -30.387   9.278  0.00  0.00    +0.210 HD
ENDBRANCH  41  42
BRANCH  41  44
ATOM     44  C   LIG    1       22.801 -30.781  12.309  0.00  0.00    +0.158 C 
BRANCH  44  62
ATOM     45  C   LIG    1       25.548 -24.816  13.625  0.00  0.00    +0.044 C 
ATOM     46  C   LIG    1       24.743 -26.080  13.498  0.00  0.00    -0.045 A 
ATOM     47  C   LIG    1       25.337 -27.299  13.143  0.00  0.00    -0.045 A 
ATOM     48  C   LIG    1       26.794 -27.381  12.767  0.00  0.00    +0.044 C 
ATOM     49  C   LIG    1       24.541 -28.458  13.040  0.00  0.00    +0.031 A 
ATOM     50  C   LIG    1       23.143 -28.426  13.175  0.00  0.00    +0.069 A 
ATOM     51  C   LIG    1       22.567 -27.194  13.574  0.00  0.00    +0.089 A 
ATOM     52  N   LIG    1       21.192 -27.038  13.829  0.00  0.00    -0.237 NA
ATOM     53  C   LIG    1       20.411 -28.062  13.693  0.00  0.00    +0.171 A 
ATOM     54  C   LIG    1       20.930 -29.393  13.195  0.00  0.00    +0.171 A 
ATOM     55  N   LIG    1       20.073 -30.347  13.010  0.00  0.00    -0.173 NA
ATOM     56  C   LIG    1       18.743 -30.220  13.289  0.00  0.00    +0.350 C 
ATOM     57  O   LIG    1       17.909 -31.007  12.866  0.00  0.00    -0.245 OA
ATOM     58  N   LIG    1       18.315 -29.169  14.040  0.00  0.00    -0.272 N 
ATOM     59  H   LIG    1       17.320 -29.126  14.136  0.00  0.00    +0.173 HD
ATOM     60  C   LIG    1       18.947 -27.969  14.000  0.00  0.00    +0.282 C 
ATOM     61  O   LIG    1       18.360 -26.898  14.142  0.00  0.00    -0.265 OA
ATOM     62  N   LIG    1       22.287 -29.520  12.897  0.00  0.00    -0.320 N 
ATOM     63  C   LIG    1       23.364 -26.052  13.733  0.00  0.00    +0.033 A 
ENDBRANCH  44  62
ENDBRANCH  41  44
ENDBRANCH  38  41
ENDBRANCH  35  38
ENDBRANCH  34  35
ENDBRANCH  33  34
ENDBRANCH   1  33
TORSDOF 21
ENDMDL
MODEL 6
REMARK VINA RESULT:      -9.6      1.588      2.379
REMARK  Name = *****
REMARK                            x       y       z     vdW  Elec       q    Type
REMARK                         _______ _______ _______ _____ _____    ______ ____
ROOT
ATOM      1  P   LIG    1       25.540 -27.455   6.345  0.00  0.00    +0.483 P 
ATOM      2  O   LIG    1       26.046 -27.718   7.727  0.00  0.00    -0.227 OA
ENDROOT
BRANCH   1   3
ATOM      3  O   LIG    1       26.764 -26.892   5.483  0.00  0.00    -0.302 OA
ATOM      4  H   LIG    1       27.320 -27.650   5.207  0.00  0.00    +0.222 HD
ENDBRANCH   1   3
BRANCH   1   5
ATOM      5  O   LIG    1       24.458 -26.294   6.260  0.00  0.00    -0.186 OA
BRANCH   5   6
ATOM      6  P   LIG    1       24.885 -24.787   5.975  0.00  0.00    +0.483 P 
ATOM      7  O   LIG    1       26.201 -24.378   6.544  0.00  0.00    -0.227 OA
BRANCH   6   8
ATOM      8  O   LIG    1       24.812 -24.704   4.382  0.00  0.00    -0.302 OA
ATOM      9  H   LIG    1       23.900 -24.655   4.024  0.00  0.00    +0.222 HD
ENDBRANCH   6   8
BRANCH   6  10
ATOM     10  O   LIG    1       23.606 -23.885   6.382  0.00  0.00    -0.284 OA
BRANCH  10  11
ATOM     11  C   LIG    1       23.912 -22.796   7.251  0.00  0.00    +0.206 C 
BRANCH  11  12
ATOM     12  C   LIG    1       23.637 -21.434   6.615  0.00  0.00    +0.178 C 
ATOM     13  C   LIG    1       23.892 -21.342   5.119  0.00  0.00    +0.178 C 
ATOM     14  C   LIG    1       25.387 -21.059   5.032  0.00  0.00    +0.195 C 
ATOM     15  C   LIG    1       25.641 -20.215   6.287  0.00  0.00    +0.253 C 
ATOM     16  O   LIG    1       24.500 -20.417   7.167  0.00  0.00    -0.346 OA
BRANCH  15  17
ATOM     17  N   LIG    1       26.885 -20.564   6.965  0.00  0.00    -0.285 N 
ATOM     18  C   LIG    1       28.131 -20.057   6.717  0.00  0.00    +0.167 A 
ATOM     19  N   LIG    1       28.477 -19.139   5.804  0.00  0.00    -0.216 NA
ATOM     20  C   LIG    1       29.790 -18.876   5.832  0.00  0.00    +0.225 A 
ATOM     21  N   LIG    1       30.721 -19.410   6.644  0.00  0.00    -0.219 NA
ATOM     22  C   LIG    1       30.325 -20.315   7.569  0.00  0.00    +0.147 A 
ATOM     23  C   LIG    1       28.969 -20.680   7.623  0.00  0.00    +0.147 A 
ATOM     24  N   LIG    1       28.261 -21.568   8.410  0.00  0.00    -0.231 NA
ATOM     25  C   LIG    1       27.015 -21.473   7.989  0.00  0.00    +0.203 A 
BRANCH  22  26
ATOM     26  N   LIG    1       31.296 -20.854   8.404  0.00  0.00    -0.341 N 
ATOM     27  H   LIG    1       31.040 -21.766   8.764  0.00  0.00    +0.144 HD
ATOM     28  H   LIG    1       32.218 -20.754   7.998  0.00  0.00    +0.144 HD
ENDBRANCH  22  26
ENDBRANCH  15  17
BRANCH  14  29
ATOM     29  O   LIG    1       25.718 -20.366   3.827  0.00  0.00    -0.385 OA
ATOM     30  H   LIG    1       24.899 -20.370   3.283  0.00  0.00    +0.210 HD
ENDBRANCH  14  29
BRANCH  13  31
ATOM     31  O   LIG    1       23.214 -20.198   4.557  0.00  0.00    -0.386 OA
ATOM     32  H   LIG    1       22.617 -19.830   5.239  0.00  0.00    +0.210 HD
ENDBRANCH  13  31
ENDBRANCH  11  12
ENDBRANCH  10  11
ENDBRANCH   6  10
ENDBRANCH   5   6
ENDBRANCH   1   5
BRANCH   1  33
ATOM     33  O   LIG    1       25.022 -28.735   5.532  0.00  0.00    -0.284 OA
BRANCH  33  34
ATOM     34  C   LIG    1       24.103 -29.605   6.169  0.00  0.00    +0.206 C 
BRANCH  34  35
ATOM     35  C   LIG    1       24.644 -31.029   6.317  0.00  0.00    +0.172 C 
BRANCH  35  36
ATOM     36  O   LIG    1       26.044 -30.998   5.988  0.00  0.00    -0.387 OA
ATOM     37  H   LIG    1       26.514 -30.933   6.846  0.00  0.00    +0.210 HD
ENDBRANCH  35  36
BRANCH  35  38
ATOM     38  C   LIG    1       24.515 -31.653   7.717  0.00  0.00    +0.175 C 
BRANCH  38  39
ATOM     39  O   LIG    1       23.127 -32.017   7.905  0.00  0.00    -0.387 OA
ATOM     40  H   LIG    1       22.613 -31.210   8.073  0.00  0.00    +0.210 HD
ENDBRANCH  38  39
BRANCH  38  41
ATOM     41  C   LIG    1       25.075 -30.854   8.905  0.00  0.00    +0.165 C 
BRANCH  41  42
ATOM     42  O   LIG    1       26.454 -30.588   8.627  0.00  0.00    -0.387 OA
ATOM     43  H   LIG    1       26.516 -29.766   8.106  0.00  0.00    +0.210 HD
ENDBRANCH  41  42
BRANCH  41  44
ATOM     44  C   LIG    1       24.823 -31.430  10.329  0.00  0.00    +0.158 C 
BRANCH  44  62
ATOM     45  C   LIG    1       27.949 -27.246  14.524  0.00  0.00    +0.044 C 
ATOM     46  C   LIG    1       27.037 -28.146  13.736  0.00  0.00    -0.045 A 
ATOM     47  C   LIG    1       27.533 -29.215  12.978  0.00  0.00    -0.045 A 
ATOM     48  C   LIG    1       29.014 -29.451  12.829  0.00  0.00    +0.044 C 
ATOM     49  C   LIG    1       26.637 -30.034  12.259  0.00  0.00    +0.031 A 
ATOM     50  C   LIG    1       25.262 -29.758  12.181  0.00  0.00    +0.069 A 
ATOM     51  C   LIG    1       24.775 -28.698  12.986  0.00  0.00    +0.089 A 
ATOM     52  N   LIG    1       23.410 -28.365  13.072  0.00  0.00    -0.237 NA
ATOM     53  C   LIG    1       22.555 -29.053  12.385  0.00  0.00    +0.171 A 
ATOM     54  C   LIG    1       22.996 -30.148  11.440  0.00  0.00    +0.171 A 
ATOM     55  N   LIG    1       22.088 -30.737  10.728  0.00  0.00    -0.173 NA
ATOM     56  C   LIG    1       20.758 -30.449  10.830  0.00  0.00    +0.350 C 
ATOM     57  O   LIG    1       19.948 -30.799   9.983  0.00  0.00    -0.245 OA
ATOM     58  N   LIG    1       20.310 -29.725  11.890  0.00  0.00    -0.272 N 
ATOM     59  H   LIG    1       19.333 -29.510  11.844  0.00  0.00    +0.173 HD
ATOM     60  C   LIG    1       21.085 -28.777  12.476  0.00  0.00    +0.282 C 
ATOM     61  O   LIG    1       20.625 -27.755  12.982  0.00  0.00    -0.265 OA
ATOM     62  N   LIG    1       24.357 -30.434  11.325  0.00  0.00    -0.320 N 
ATOM     63  C   LIG    1       25.657 -27.918  13.747  0.00  0.00    +0.033 A 
ENDBRANCH  44  62
ENDBRANCH  41  44
ENDBRANCH  38  41
ENDBRANCH  35  38
ENDBRANCH  34  35
ENDBRANCH  33  34
ENDBRANCH   1  33
TORSDOF 21
ENDMDL
MODEL 7
REMARK VINA RESULT:      -9.3      3.879     10.991
REMARK  Name = *****
REMARK                            x       y       z     vdW  Elec       q    Type
REMARK                         _______ _______ _______ _____ _____    ______ ____
ROOT
ATOM      1  P   LIG    1       24.969 -25.977   5.703  0.00  0.00    +0.483 P 
ATOM      2  O   LIG    1       25.885 -26.343   4.579  0.00  0.00    -0.227 OA
ENDROOT
BRANCH   1   3
ATOM      3  O   LIG    1       25.874 -25.704   6.993  0.00  0.00    -0.302 OA
ATOM      4  H   LIG    1       25.396 -25.081   7.577  0.00  0.00    +0.222 HD
ENDBRANCH   1   3
BRANCH   1   5
ATOM      5  O   LIG    1       24.007 -27.154   6.164  0.00  0.00    -0.186 OA
BRANCH   5   6
ATOM      6  P   LIG    1       24.496 -28.670   6.162  0.00  0.00    +0.483 P 
ATOM      7  O   LIG    1       24.083 -29.471   4.975  0.00  0.00    -0.227 OA
BRANCH   6   8
ATOM      8  O   LIG    1       26.077 -28.522   6.329  0.00  0.00    -0.302 OA
ATOM      9  H   LIG    1       26.374 -28.405   7.256  0.00  0.00    +0.222 HD
ENDBRANCH   6   8
BRANCH   6  10
ATOM     10  O   LIG    1       24.095 -29.261   7.613  0.00  0.00    -0.284 OA
BRANCH  10  11
ATOM     11  C   LIG    1       25.124 -29.146   8.595  0.00  0.00    +0.206 C 
BRANCH  11  12
ATOM     12  C   LIG    1       25.049 -30.237   9.663  0.00  0.00    +0.178 C 
ATOM     13  C   LIG    1       26.373 -30.883  10.039  0.00  0.00    +0.178 C 
ATOM     14  C   LIG    1       26.554 -31.962   8.978  0.00  0.00    +0.195 C 
ATOM     15  C   LIG    1       25.111 -32.397   8.694  0.00  0.00    +0.253 C 
ATOM     16  O   LIG    1       24.247 -31.350   9.216  0.00  0.00    -0.346 OA
BRANCH  15  17
ATOM     17  N   LIG    1       24.853 -32.623   7.277  0.00  0.00    -0.285 N 
ATOM     18  C   LIG    1       25.768 -32.945   6.311  0.00  0.00    +0.167 A 
ATOM     19  N   LIG    1       27.088 -33.119   6.457  0.00  0.00    -0.216 NA
ATOM     20  C   LIG    1       27.684 -33.426   5.298  0.00  0.00    +0.225 A 
ATOM     21  N   LIG    1       27.109 -33.570   4.089  0.00  0.00    -0.219 NA
ATOM     22  C   LIG    1       25.769 -33.410   3.990  0.00  0.00    +0.147 A 
ATOM     23  C   LIG    1       25.040 -33.072   5.143  0.00  0.00    +0.147 A 
ATOM     24  N   LIG    1       23.702 -32.821   5.373  0.00  0.00    -0.231 NA
ATOM     25  C   LIG    1       23.624 -32.555   6.662  0.00  0.00    +0.203 A 
BRANCH  22  26
ATOM     26  N   LIG    1       25.190 -33.568   2.737  0.00  0.00    -0.341 N 
ATOM     27  H   LIG    1       24.177 -33.578   2.773  0.00  0.00    +0.144 HD
ATOM     28  H   LIG    1       25.626 -32.959   2.057  0.00  0.00    +0.144 HD
ENDBRANCH  22  26
ENDBRANCH  15  17
BRANCH  14  29
ATOM     29  O   LIG    1       27.368 -33.034   9.457  0.00  0.00    -0.385 OA
ATOM     30  H   LIG    1       27.345 -32.969  10.438  0.00  0.00    +0.210 HD
ENDBRANCH  14  29
BRANCH  13  31
ATOM     31  O   LIG    1       26.266 -31.558  11.311  0.00  0.00    -0.386 OA
ATOM     32  H   LIG    1       26.807 -32.371  11.273  0.00  0.00    +0.210 HD
ENDBRANCH  13  31
ENDBRANCH  11  12
ENDBRANCH  10  11
ENDBRANCH   6  10
ENDBRANCH   5   6
ENDBRANCH   1   5
BRANCH   1  33
ATOM     33  O   LIG    1       24.120 -24.633   5.506  0.00  0.00    -0.284 OA
BRANCH  33  34
ATOM     34  C   LIG    1       23.698 -23.933   6.662  0.00  0.00    +0.206 C 
BRANCH  34  35
ATOM     35  C   LIG    1       24.039 -22.442   6.609  0.00  0.00    +0.172 C 
BRANCH  35  36
ATOM     36  O   LIG    1       22.894 -21.753   6.076  0.00  0.00    -0.387 OA
ATOM     37  H   LIG    1       22.144 -22.378   6.171  0.00  0.00    +0.210 HD
ENDBRANCH  35  36
BRANCH  35  38
ATOM     38  C   LIG    1       24.387 -21.784   7.955  0.00  0.00    +0.175 C 
BRANCH  38  39
ATOM     39  O   LIG    1       23.875 -20.431   7.923  0.00  0.00    -0.387 OA
ATOM     40  H   LIG    1       22.934 -20.447   8.166  0.00  0.00    +0.210 HD
ENDBRANCH  38  39
BRANCH  38  41
ATOM     41  C   LIG    1       25.851 -21.843   8.417  0.00  0.00    +0.165 C 
BRANCH  41  42
ATOM     42  O   LIG    1       26.146 -20.600   9.064  0.00  0.00    -0.387 OA
ATOM     43  H   LIG    1       26.153 -19.891   8.393  0.00  0.00    +0.210 HD
ENDBRANCH  41  42
BRANCH  41  44
ATOM     44  C   LIG    1       26.913 -22.264   7.359  0.00  0.00    +0.158 C 
BRANCH  44  62
ATOM     45  C   LIG    1       26.091 -17.165   3.093  0.00  0.00    +0.044 C 
ATOM     46  C   LIG    1       26.533 -18.265   4.019  0.00  0.00    -0.045 A 
ATOM     47  C   LIG    1       25.738 -19.395   4.252  0.00  0.00    -0.045 A 
ATOM     48  C   LIG    1       24.354 -19.515   3.669  0.00  0.00    +0.044 C 
ATOM     49  C   LIG    1       26.198 -20.402   5.126  0.00  0.00    +0.031 A 
ATOM     50  C   LIG    1       27.385 -20.272   5.867  0.00  0.00    +0.069 A 
ATOM     51  C   LIG    1       28.193 -19.142   5.588  0.00  0.00    +0.089 A 
ATOM     52  N   LIG    1       29.446 -18.928   6.192  0.00  0.00    -0.237 NA
ATOM     53  C   LIG    1       29.885 -19.797   7.045  0.00  0.00    +0.171 A 
ATOM     54  C   LIG    1       29.052 -20.990   7.460  0.00  0.00    +0.171 A 
ATOM     55  N   LIG    1       29.528 -21.771   8.377  0.00  0.00    -0.173 NA
ATOM     56  C   LIG    1       30.757 -21.595   8.944  0.00  0.00    +0.350 C 
ATOM     57  O   LIG    1       31.085 -22.156   9.980  0.00  0.00    -0.245 OA
ATOM     58  N   LIG    1       31.647 -20.748   8.360  0.00  0.00    -0.272 N 
ATOM     59  H   LIG    1       32.494 -20.636   8.882  0.00  0.00    +0.173 HD
ATOM     60  C   LIG    1       31.234 -19.648   7.681  0.00  0.00    +0.282 C 
ATOM     61  O   LIG    1       31.880 -18.602   7.643  0.00  0.00    -0.265 OA
ATOM     62  N   LIG    1       27.791 -21.163   6.892  0.00  0.00    -0.320 N 
ATOM     63  C   LIG    1       27.765 -18.168   4.676  0.00  0.00    +0.033 A 
ENDBRANCH  44  62
ENDBRANCH  41  44
ENDBRANCH  38  41
ENDBRANCH  35  38
ENDBRANCH  34  35
ENDBRANCH  33  34
ENDBRANCH   1  33
TORSDOF 21
ENDMDL
MODEL 8
REMARK VINA RESULT:      -9.1      2.345      4.609
REMARK  Name = *****
REMARK                            x       y       z     vdW  Elec       q    Type
REMARK                         _______ _______ _______ _____ _____    ______ ____
ROOT
ATOM      1  P   LIG    1       25.754 -27.501   6.984  0.00  0.00    +0.483 P 
ATOM      2  O   LIG    1       26.480 -27.937   8.215  0.00  0.00    -0.227 OA
ENDROOT
BRANCH   1   3
ATOM      3  O   LIG    1       26.662 -27.888   5.726  0.00  0.00    -0.302 OA
ATOM      4  H   LIG    1       27.266 -27.140   5.541  0.00  0.00    +0.222 HD
ENDBRANCH   1   3
BRANCH   1   5
ATOM      5  O   LIG    1       25.585 -25.927   6.853  0.00  0.00    -0.186 OA
BRANCH   5   6
ATOM      6  P   LIG    1       24.989 -25.267   5.531  0.00  0.00    +0.483 P 
ATOM      7  O   LIG    1       25.482 -25.849   4.250  0.00  0.00    -0.227 OA
BRANCH   6   8
ATOM      8  O   LIG    1       23.414 -25.418   5.750  0.00  0.00    -0.302 OA
ATOM      9  H   LIG    1       23.008 -26.157   5.249  0.00  0.00    +0.222 HD
ENDBRANCH   6   8
BRANCH   6  10
ATOM     10  O   LIG    1       25.166 -23.671   5.721  0.00  0.00    -0.284 OA
BRANCH  10  11
ATOM     11  C   LIG    1       24.268 -23.092   6.666  0.00  0.00    +0.206 C 
BRANCH  11  12
ATOM     12  C   LIG    1       23.847 -21.671   6.292  0.00  0.00    +0.178 C 
ATOM     13  C   LIG    1       24.125 -21.259   4.855  0.00  0.00    +0.178 C 
ATOM     14  C   LIG    1       25.578 -20.799   4.893  0.00  0.00    +0.195 C 
ATOM     15  C   LIG    1       25.699 -20.195   6.298  0.00  0.00    +0.253 C 
ATOM     16  O   LIG    1       24.570 -20.692   7.068  0.00  0.00    -0.346 OA
BRANCH  15  17
ATOM     17  N   LIG    1       26.959 -20.528   6.953  0.00  0.00    -0.285 N 
ATOM     18  C   LIG    1       28.196 -20.013   6.677  0.00  0.00    +0.167 A 
ATOM     19  N   LIG    1       28.516 -19.099   5.750  0.00  0.00    -0.216 NA
ATOM     20  C   LIG    1       29.827 -18.824   5.750  0.00  0.00    +0.225 A 
ATOM     21  N   LIG    1       30.778 -19.345   6.547  0.00  0.00    -0.219 NA
ATOM     22  C   LIG    1       30.408 -20.246   7.487  0.00  0.00    +0.147 A 
ATOM     23  C   LIG    1       29.057 -20.622   7.571  0.00  0.00    +0.147 A 
ATOM     24  N   LIG    1       28.373 -21.509   8.378  0.00  0.00    -0.231 NA
ATOM     25  C   LIG    1       27.117 -21.428   7.981  0.00  0.00    +0.203 A 
BRANCH  22  26
ATOM     26  N   LIG    1       31.400 -20.770   8.306  0.00  0.00    -0.341 N 
ATOM     27  H   LIG    1       31.741 -20.100   8.986  0.00  0.00    +0.144 HD
ATOM     28  H   LIG    1       31.143 -21.688   8.645  0.00  0.00    +0.144 HD
ENDBRANCH  22  26
ENDBRANCH  15  17
BRANCH  14  29
ATOM     29  O   LIG    1       25.852 -19.850   3.860  0.00  0.00    -0.385 OA
ATOM     30  H   LIG    1       26.492 -19.211   4.247  0.00  0.00    +0.210 HD
ENDBRANCH  14  29
BRANCH  13  31
ATOM     31  O   LIG    1       23.329 -20.111   4.492  0.00  0.00    -0.386 OA
ATOM     32  H   LIG    1       22.390 -20.382   4.473  0.00  0.00    +0.210 HD
ENDBRANCH  13  31
ENDBRANCH  11  12
ENDBRANCH  10  11
ENDBRANCH   6  10
ENDBRANCH   5   6
ENDBRANCH   1   5
BRANCH   1  33
ATOM     33  O   LIG    1       24.347 -28.218   6.708  0.00  0.00    -0.284 OA
BRANCH  33  34
ATOM     34  C   LIG    1       24.025 -29.372   7.463  0.00  0.00    +0.206 C 
BRANCH  34  35
ATOM     35  C   LIG    1       24.420 -30.670   6.756  0.00  0.00    +0.172 C 
BRANCH  35  36
ATOM     36  O   LIG    1       24.668 -30.354   5.375  0.00  0.00    -0.387 OA
ATOM     37  H   LIG    1       25.601 -30.609   5.211  0.00  0.00    +0.210 HD
ENDBRANCH  35  36
BRANCH  35  38
ATOM     38  C   LIG    1       25.674 -31.376   7.299  0.00  0.00    +0.175 C 
BRANCH  38  39
ATOM     39  O   LIG    1       26.650 -31.410   6.232  0.00  0.00    -0.387 OA
ATOM     40  H   LIG    1       26.644 -30.552   5.776  0.00  0.00    +0.210 HD
ENDBRANCH  38  39
BRANCH  38  41
ATOM     41  C   LIG    1       25.485 -32.750   7.961  0.00  0.00    +0.165 C 
BRANCH  41  42
ATOM     42  O   LIG    1       24.349 -33.367   7.345  0.00  0.00    -0.387 OA
ATOM     43  H   LIG    1       24.315 -33.097   6.408  0.00  0.00    +0.210 HD
ENDBRANCH  41  42
BRANCH  41  44
ATOM     44  C   LIG    1       25.451 -32.790   9.517  0.00  0.00    +0.158 C 
BRANCH  44  62
ATOM     45  C   LIG    1       19.153 -31.200  11.156  0.00  0.00    +0.044 C 
ATOM     46  C   LIG    1       20.614 -31.299  10.810  0.00  0.00    -0.045 A 
ATOM     47  C   LIG    1       21.114 -32.340  10.015  0.00  0.00    -0.045 A 
ATOM     48  C   LIG    1       20.230 -33.470   9.556  0.00  0.00    +0.044 C 
ATOM     49  C   LIG    1       22.491 -32.387   9.715  0.00  0.00    +0.031 A 
ATOM     50  C   LIG    1       23.415 -31.486  10.272  0.00  0.00    +0.069 A 
ATOM     51  C   LIG    1       22.885 -30.419  11.039  0.00  0.00    +0.089 A 
ATOM     52  N   LIG    1       23.684 -29.397  11.585  0.00  0.00    -0.237 NA
ATOM     53  C   LIG    1       24.963 -29.430  11.384  0.00  0.00    +0.171 A 
ATOM     54  C   LIG    1       25.619 -30.574  10.645  0.00  0.00    +0.171 A 
ATOM     55  N   LIG    1       26.912 -30.574  10.553  0.00  0.00    -0.173 NA
ATOM     56  C   LIG    1       27.695 -29.571  11.047  0.00  0.00    +0.350 C 
ATOM     57  O   LIG    1       28.901 -29.700  11.201  0.00  0.00    -0.245 OA
ATOM     58  N   LIG    1       27.121 -28.391  11.408  0.00  0.00    -0.272 N 
ATOM     59  H   LIG    1       27.765 -27.743  11.817  0.00  0.00    +0.173 HD
ATOM     60  C   LIG    1       25.857 -28.342  11.898  0.00  0.00    +0.282 C 
ATOM     61  O   LIG    1       25.495 -27.517  12.735  0.00  0.00    -0.265 OA
ATOM     62  N   LIG    1       24.822 -31.607  10.152  0.00  0.00    -0.320 N 
ATOM     63  C   LIG    1       21.508 -30.337  11.291  0.00  0.00    +0.033 A 
ENDBRANCH  44  62
ENDBRANCH  41  44
ENDBRANCH  38  41
ENDBRANCH  35  38
ENDBRANCH  34  35
ENDBRANCH  33  34
ENDBRANCH   1  33
TORSDOF 21
ENDMDL
MODEL 9
REMARK VINA RESULT:      -9.0      2.112      3.196
REMARK  Name = *****
REMARK                            x       y       z     vdW  Elec       q    Type
REMARK                         _______ _______ _______ _____ _____    ______ ____
ROOT
ATOM      1  P   LIG    1       24.529 -28.558   5.994  0.00  0.00    +0.483 P 
ATOM      2  O   LIG    1       25.639 -28.659   4.998  0.00  0.00    -0.227 OA
ENDROOT
BRANCH   1   3
ATOM      3  O   LIG    1       23.257 -29.305   5.377  0.00  0.00    -0.302 OA
ATOM      4  H   LIG    1       23.363 -29.340   4.404  0.00  0.00    +0.222 HD
ENDBRANCH   1   3
BRANCH   1   5
ATOM      5  O   LIG    1       24.010 -27.076   6.238  0.00  0.00    -0.186 OA
BRANCH   5   6
ATOM      6  P   LIG    1       24.963 -25.820   6.015  0.00  0.00    +0.483 P 
ATOM      7  O   LIG    1       26.230 -25.832   6.802  0.00  0.00    -0.227 OA
BRANCH   6   8
ATOM      8  O   LIG    1       25.181 -25.829   4.433  0.00  0.00    -0.302 OA
ATOM      9  H   LIG    1       25.082 -24.950   4.009  0.00  0.00    +0.222 HD
ENDBRANCH   6   8
BRANCH   6  10
ATOM     10  O   LIG    1       24.018 -24.518   6.180  0.00  0.00    -0.284 OA
BRANCH  10  11
ATOM     11  C   LIG    1       24.620 -23.449   6.909  0.00  0.00    +0.206 C 
BRANCH  11  12
ATOM     12  C   LIG    1       24.057 -22.080   6.527  0.00  0.00    +0.178 C 
ATOM     13  C   LIG    1       24.229 -21.680   5.070  0.00  0.00    +0.178 C 
ATOM     14  C   LIG    1       25.635 -21.092   5.028  0.00  0.00    +0.195 C 
ATOM     15  C   LIG    1       25.767 -20.446   6.412  0.00  0.00    +0.253 C 
ATOM     16  O   LIG    1       24.725 -21.022   7.246  0.00  0.00    -0.346 OA
BRANCH  15  17
ATOM     17  N   LIG    1       27.082 -20.650   7.011  0.00  0.00    -0.285 N 
ATOM     18  C   LIG    1       28.248 -20.018   6.679  0.00  0.00    +0.167 A 
ATOM     19  N   LIG    1       28.436 -19.083   5.738  0.00  0.00    -0.216 NA
ATOM     20  C   LIG    1       29.712 -18.681   5.679  0.00  0.00    +0.225 A 
ATOM     21  N   LIG    1       30.745 -19.101   6.434  0.00  0.00    -0.219 NA
ATOM     22  C   LIG    1       30.507 -20.029   7.391  0.00  0.00    +0.147 A 
ATOM     23  C   LIG    1       29.204 -20.534   7.535  0.00  0.00    +0.147 A 
ATOM     24  N   LIG    1       28.646 -21.479   8.374  0.00  0.00    -0.231 NA
ATOM     25  C   LIG    1       27.372 -21.524   8.033  0.00  0.00    +0.203 A 
BRANCH  22  26
ATOM     26  N   LIG    1       31.580 -20.448   8.166  0.00  0.00    -0.341 N 
ATOM     27  H   LIG    1       31.982 -19.697   8.717  0.00  0.00    +0.144 HD
ATOM     28  H   LIG    1       31.366 -21.314   8.643  0.00  0.00    +0.144 HD
ENDBRANCH  22  26
ENDBRANCH  15  17
BRANCH  14  29
ATOM     29  O   LIG    1       25.774 -20.149   3.964  0.00  0.00    -0.385 OA
ATOM     30  H   LIG    1       24.860 -19.871   3.732  0.00  0.00    +0.210 HD
ENDBRANCH  14  29
BRANCH  13  31
ATOM     31  O   LIG    1       23.317 -20.616   4.724  0.00  0.00    -0.386 OA
ATOM     32  H   LIG    1       23.247 -20.012   5.489  0.00  0.00    +0.210 HD
ENDBRANCH  13  31
ENDBRANCH  11  12
ENDBRANCH  10  11
ENDBRANCH   6  10
ENDBRANCH   5   6
ENDBRANCH   1   5
BRANCH   1  33
ATOM     33  O   LIG    1       24.783 -29.278   7.403  0.00  0.00    -0.284 OA
BRANCH  33  34
ATOM     34  C   LIG    1       25.442 -30.531   7.405  0.00  0.00    +0.206 C 
BRANCH  34  35
ATOM     35  C   LIG    1       25.774 -31.022   8.815  0.00  0.00    +0.172 C 
BRANCH  35  36
ATOM     36  O   LIG    1       27.204 -30.979   8.965  0.00  0.00    -0.387 OA
ATOM     37  H   LIG    1       27.424 -31.697   9.596  0.00  0.00    +0.210 HD
ENDBRANCH  35  36
BRANCH  35  38
ATOM     38  C   LIG    1       25.167 -30.207   9.971  0.00  0.00    +0.175 C 
BRANCH  38  39
ATOM     39  O   LIG    1       26.234 -29.908  10.900  0.00  0.00    -0.387 OA
ATOM     40  H   LIG    1       26.292 -28.944  11.010  0.00  0.00    +0.210 HD
ENDBRANCH  38  39
BRANCH  38  41
ATOM     41  C   LIG    1       23.927 -30.785  10.671  0.00  0.00    +0.165 C 
BRANCH  41  42
ATOM     42  O   LIG    1       24.029 -32.212  10.610  0.00  0.00    -0.387 OA
ATOM     43  H   LIG    1       24.464 -32.460   9.773  0.00  0.00    +0.210 HD
ENDBRANCH  41  42
BRANCH  41  44
ATOM     44  C   LIG    1       22.539 -30.238  10.224  0.00  0.00    +0.158 C 
BRANCH  44  62
ATOM     45  C   LIG    1       20.903 -26.348  15.426  0.00  0.00    +0.044 C 
ATOM     46  C   LIG    1       21.127 -27.406  14.380  0.00  0.00    -0.045 A 
ATOM     47  C   LIG    1       22.267 -27.406  13.565  0.00  0.00    -0.045 A 
ATOM     48  C   LIG    1       23.274 -26.286  13.624  0.00  0.00    +0.044 C 
ATOM     49  C   LIG    1       22.434 -28.422  12.601  0.00  0.00    +0.031 A 
ATOM     50  C   LIG    1       21.445 -29.385  12.343  0.00  0.00    +0.069 A 
ATOM     51  C   LIG    1       20.320 -29.393  13.204  0.00  0.00    +0.089 A 
ATOM     52  N   LIG    1       19.294 -30.353  13.117  0.00  0.00    -0.237 NA
ATOM     53  C   LIG    1       19.375 -31.272  12.208  0.00  0.00    +0.171 A 
ATOM     54  C   LIG    1       20.501 -31.291  11.199  0.00  0.00    +0.171 A 
ATOM     55  N   LIG    1       20.470 -32.197  10.273  0.00  0.00    -0.173 NA
ATOM     56  C   LIG    1       19.501 -33.156  10.199  0.00  0.00    +0.350 C 
ATOM     57  O   LIG    1       19.321 -33.825   9.192  0.00  0.00    -0.245 OA
ATOM     58  N   LIG    1       18.685 -33.364  11.267  0.00  0.00    -0.272 N 
ATOM     59  H   LIG    1       17.967 -34.041  11.096  0.00  0.00    +0.173 HD
ATOM     60  C   LIG    1       18.340 -32.350  12.101  0.00  0.00    +0.282 C 
ATOM     61  O   LIG    1       17.250 -32.291  12.668  0.00  0.00    -0.265 OA
ATOM     62  N   LIG    1       21.484 -30.304  11.265  0.00  0.00    -0.320 N 
ATOM     63  C   LIG    1       20.178 -28.418  14.202  0.00  0.00    +0.033 A 
ENDBRANCH  44  62
ENDBRANCH  41  44
ENDBRANCH  38  41
ENDBRANCH  35  38
ENDBRANCH  34  35
ENDBRANCH  33  34
ENDBRANCH   1  33
TORSDOF 21
ENDMDL
