MODEL 1
REMARK VINA RESULT:      -8.5      0.000      0.000
REMARK  Name = *****
REMARK                            x       y       z     vdW  Elec       q    Type
REMARK                         _______ _______ _______ _____ _____    ______ ____
ROOT
ATOM      1  C   LIG    1       26.754 -20.874   6.715  0.00  0.00    +0.162 C 
ENDROOT
BRANCH   1   2
ATOM      2  C   LIG    1       27.886 -19.944   6.293  0.00  0.00    -0.007 A 
ATOM      3  C   LIG    1       29.099 -19.856   7.035  0.00  0.00    +0.009 A 
ATOM      4  C   LIG    1       30.017 -18.840   6.667  0.00  0.00    +0.071 A 
ATOM      5  C   LIG    1       31.174 -18.669   7.413  0.00  0.00    +0.032 A 
ATOM      6  C   LIG    1       31.487 -19.497   8.490  0.00  0.00    +0.048 A 
ATOM      7  C   LIG    1       30.643 -20.550   8.817  0.00  0.00    +0.121 A 
ATOM      8  N   LIG    1       29.828 -18.020   5.623  0.00  0.00    -0.255 NA
ATOM      9  C   LIG    1       28.725 -18.199   4.877  0.00  0.00    +0.112 A 
ATOM     10  C   LIG    1       29.453 -20.715   8.109  0.00  0.00    +0.056 A 
ATOM     11  C   LIG    1       27.746 -19.130   5.161  0.00  0.00    +0.026 A 
BRANCH   7  12
ATOM     12  O   LIG    1       31.048 -21.328   9.866  0.00  0.00    -0.495 OA
ATOM     13  C   LIG    1       31.400 -22.666   9.527  0.00  0.00    +0.277 C 
ENDBRANCH   7  12
ENDBRANCH   1   2
BRANCH   1  17
ATOM     14  C   LIG    1       22.611 -21.154   5.154  0.00  0.00    +0.028 C 
ATOM     15  C   LIG    1       23.046 -21.429   6.614  0.00  0.00    -0.000 C 
ATOM     16  C   LIG    1       24.209 -20.505   7.016  0.00  0.00    +0.026 C 
ATOM     17  C   LIG    1       25.370 -20.659   6.009  0.00  0.00    +0.090 C 
ATOM     18  N   LIG    1       25.069 -21.726   4.992  0.00  0.00    -0.296 NA
ATOM     19  C   LIG    1       24.743 -23.010   5.656  0.00  0.00    +0.085 C 
ATOM     20  C   LIG    1       23.596 -22.865   6.666  0.00  0.00    +0.019 C 
ATOM     21  C   LIG    1       23.858 -21.286   4.237  0.00  0.00    +0.092 C 
BRANCH  14  23
ATOM     22  C   LIG    1       22.448 -18.776   4.338  0.00  0.00    +0.004 C 
ATOM     23  C   LIG    1       21.925 -19.815   5.001  0.00  0.00    -0.029 C 
ENDBRANCH  14  23
ENDBRANCH   1  17
BRANCH   1  24
ATOM     24  O   LIG    1       27.180 -22.221   6.497  0.00  0.00    -0.386 OA
ATOM     25  H   LIG    1       27.601 -22.207   5.613  0.00  0.00    +0.210 HD
ENDBRANCH   1  24
TORSDOF 5
ENDMDL
MODEL 2
REMARK VINA RESULT:      -8.3      1.752      2.074
REMARK  Name = *****
REMARK                            x       y       z     vdW  Elec       q    Type
REMARK                         _______ _______ _______ _____ _____    ______ ____
ROOT
ATOM      1  C   LIG    1       27.258 -20.289   8.103  0.00  0.00    +0.162 C 
ENDROOT
BRANCH   1   2
ATOM      2  C   LIG    1       28.532 -19.812   7.416  0.00  0.00    -0.007 A 
ATOM      3  C   LIG    1       29.576 -19.164   8.138  0.00  0.00    +0.009 A 
ATOM      4  C   LIG    1       30.639 -18.603   7.387  0.00  0.00    +0.071 A 
ATOM      5  C   LIG    1       31.634 -17.895   8.045  0.00  0.00    +0.032 A 
ATOM      6  C   LIG    1       31.648 -17.758   9.433  0.00  0.00    +0.048 A 
ATOM      7  C   LIG    1       30.663 -18.370  10.195  0.00  0.00    +0.121 A 
ATOM      8  N   LIG    1       30.738 -18.715   6.055  0.00  0.00    -0.255 NA
ATOM      9  C   LIG    1       29.795 -19.424   5.413  0.00  0.00    +0.112 A 
ATOM     10  C   LIG    1       29.628 -19.050   9.552  0.00  0.00    +0.056 A 
ATOM     11  C   LIG    1       28.697 -19.984   6.035  0.00  0.00    +0.026 A 
BRANCH   7  12
ATOM     12  O   LIG    1       30.776 -18.209  11.548  0.00  0.00    -0.495 OA
ATOM     13  C   LIG    1       31.532 -17.074  11.961  0.00  0.00    +0.277 C 
ENDBRANCH   7  12
ENDBRANCH   1   2
BRANCH   1  17
ATOM     14  C   LIG    1       23.585 -21.482   5.921  0.00  0.00    +0.028 C 
ATOM     15  C   LIG    1       23.889 -21.784   7.408  0.00  0.00    -0.000 C 
ATOM     16  C   LIG    1       24.693 -20.634   8.040  0.00  0.00    +0.026 C 
ATOM     17  C   LIG    1       25.970 -20.372   7.212  0.00  0.00    +0.090 C 
ATOM     18  N   LIG    1       26.105 -21.370   6.093  0.00  0.00    -0.296 NA
ATOM     19  C   LIG    1       26.062 -22.756   6.615  0.00  0.00    +0.085 C 
ATOM     20  C   LIG    1       24.800 -23.023   7.448  0.00  0.00    +0.019 C 
ATOM     21  C   LIG    1       24.927 -21.187   5.195  0.00  0.00    +0.092 C 
BRANCH  14  23
ATOM     22  C   LIG    1       22.619 -19.467   4.759  0.00  0.00    +0.004 C 
ATOM     23  C   LIG    1       22.583 -20.362   5.753  0.00  0.00    -0.029 C 
ENDBRANCH  14  23
ENDBRANCH   1  17
BRANCH   1  24
ATOM     24  O   LIG    1       27.512 -21.577   8.670  0.00  0.00    -0.386 OA
ATOM     25  H   LIG    1       27.872 -22.105   7.928  0.00  0.00    +0.210 HD
ENDBRANCH   1  24
TORSDOF 5
ENDMDL
MODEL 3
REMARK VINA RESULT:      -7.9      3.649      6.050
REMARK  Name = *****
REMARK                            x       y       z     vdW  Elec       q    Type
REMARK                         _______ _______ _______ _____ _____    ______ ____
ROOT
ATOM      1  C   LIG    1       25.243 -24.264   5.517  0.00  0.00    +0.162 C 
ENDROOT
BRANCH   1   2
ATOM      2  C   LIG    1       24.735 -23.083   6.336  0.00  0.00    -0.007 A 
ATOM      3  C   LIG    1       25.628 -22.194   7.002  0.00  0.00    +0.009 A 
ATOM      4  C   LIG    1       25.061 -21.235   7.879  0.00  0.00    +0.071 A 
ATOM      5  C   LIG    1       25.899 -20.403   8.607  0.00  0.00    +0.032 A 
ATOM      6  C   LIG    1       27.286 -20.449   8.469  0.00  0.00    +0.048 A 
ATOM      7  C   LIG    1       27.859 -21.323   7.556  0.00  0.00    +0.121 A 
ATOM      8  N   LIG    1       23.740 -21.084   8.049  0.00  0.00    -0.255 NA
ATOM      9  C   LIG    1       22.921 -21.864   7.325  0.00  0.00    +0.112 A 
ATOM     10  C   LIG    1       27.039 -22.199   6.844  0.00  0.00    +0.056 A 
ATOM     11  C   LIG    1       23.359 -22.855   6.470  0.00  0.00    +0.026 A 
BRANCH   7  12
ATOM     12  O   LIG    1       29.222 -21.274   7.465  0.00  0.00    -0.495 OA
ATOM     13  C   LIG    1       29.755 -20.030   7.022  0.00  0.00    +0.277 C 
ENDBRANCH   7  12
ENDBRANCH   1   2
BRANCH   1  17
ATOM     14  C   LIG    1       25.132 -28.565   6.597  0.00  0.00    +0.028 C 
ATOM     15  C   LIG    1       26.366 -27.637   6.713  0.00  0.00    -0.000 C 
ATOM     16  C   LIG    1       25.934 -26.207   7.082  0.00  0.00    +0.026 C 
ATOM     17  C   LIG    1       24.896 -25.694   6.060  0.00  0.00    +0.090 C 
ATOM     18  N   LIG    1       24.680 -26.694   4.956  0.00  0.00    -0.296 NA
ATOM     19  C   LIG    1       25.964 -27.047   4.307  0.00  0.00    +0.085 C 
ATOM     20  C   LIG    1       27.006 -27.549   5.316  0.00  0.00    +0.019 C 
ATOM     21  C   LIG    1       24.135 -27.933   5.586  0.00  0.00    +0.092 C 
BRANCH  14  23
ATOM     22  C   LIG    1       24.197 -30.067   8.390  0.00  0.00    +0.004 C 
ATOM     23  C   LIG    1       24.491 -28.842   7.938  0.00  0.00    -0.029 C 
ENDBRANCH  14  23
ENDBRANCH   1  17
BRANCH   1  24
ATOM     24  O   LIG    1       24.731 -24.138   4.188  0.00  0.00    -0.386 OA
ATOM     25  H   LIG    1       24.430 -23.208   4.128  0.00  0.00    +0.210 HD
ENDBRANCH   1  24
TORSDOF 5
ENDMDL
MODEL 4
REMARK VINA RESULT:      -7.8      1.766      3.188
REMARK  Name = *****
REMARK                            x       y       z     vdW  Elec       q    Type
REMARK                         _______ _______ _______ _____ _____    ______ ____
ROOT
ATOM      1  C   LIG    1       25.586 -21.242   7.845  0.00  0.00    +0.162 C 
ENDROOT
BRANCH   1   2
ATOM      2  C   LIG    1       26.515 -20.593   6.826  0.00  0.00    -0.007 A 
ATOM      3  C   LIG    1       27.905 -20.415   7.085  0.00  0.00    +0.009 A 
ATOM      4  C   LIG    1       28.650 -19.647   6.155  0.00  0.00    +0.071 A 
ATOM      5  C   LIG    1       29.988 -19.384   6.410  0.00  0.00    +0.032 A 
ATOM      6  C   LIG    1       30.638 -19.893   7.533  0.00  0.00    +0.048 A 
ATOM      7  C   LIG    1       29.951 -20.717   8.414  0.00  0.00    +0.121 A 
ATOM      8  N   LIG    1       28.126 -19.149   5.026  0.00  0.00    -0.255 NA
ATOM      9  C   LIG    1       26.839 -19.424   4.756  0.00  0.00    +0.112 A 
ATOM     10  C   LIG    1       28.594 -20.959   8.201  0.00  0.00    +0.056 A 
ATOM     11  C   LIG    1       26.009 -20.130   5.603  0.00  0.00    +0.026 A 
BRANCH   7  12
ATOM     12  O   LIG    1       30.679 -21.195   9.467  0.00  0.00    -0.495 OA
ATOM     13  C   LIG    1       31.510 -22.313   9.170  0.00  0.00    +0.277 C 
ENDBRANCH   7  12
ENDBRANCH   1   2
BRANCH   1  17
ATOM     14  C   LIG    1       23.957 -24.877   5.892  0.00  0.00    +0.028 C 
ATOM     15  C   LIG    1       25.096 -23.988   5.337  0.00  0.00    -0.000 C 
ATOM     16  C   LIG    1       25.946 -23.417   6.486  0.00  0.00    +0.026 C 
ATOM     17  C   LIG    1       25.036 -22.666   7.484  0.00  0.00    +0.090 C 
ATOM     18  N   LIG    1       23.612 -22.630   7.000  0.00  0.00    -0.296 NA
ATOM     19  C   LIG    1       23.533 -22.049   5.639  0.00  0.00    +0.085 C 
ATOM     20  C   LIG    1       24.440 -22.783   4.642  0.00  0.00    +0.019 C 
ATOM     21  C   LIG    1       23.139 -24.043   6.917  0.00  0.00    +0.092 C 
BRANCH  14  23
ATOM     22  C   LIG    1       24.372 -27.361   5.881  0.00  0.00    +0.004 C 
ATOM     23  C   LIG    1       24.471 -26.170   6.483  0.00  0.00    -0.029 C 
ENDBRANCH  14  23
ENDBRANCH   1  17
BRANCH   1  24
ATOM     24  O   LIG    1       26.278 -21.317   9.094  0.00  0.00    -0.386 OA
ATOM     25  H   LIG    1       26.005 -20.508   9.574  0.00  0.00    +0.210 HD
ENDBRANCH   1  24
TORSDOF 5
ENDMDL
MODEL 5
REMARK VINA RESULT:      -7.8      1.839      7.451
REMARK  Name = *****
REMARK                            x       y       z     vdW  Elec       q    Type
REMARK                         _______ _______ _______ _____ _____    ______ ____
ROOT
ATOM      1  C   LIG    1       27.435 -20.185   6.204  0.00  0.00    +0.162 C 
ENDROOT
BRANCH   1   2
ATOM      2  C   LIG    1       26.362 -21.243   6.430  0.00  0.00    -0.007 A 
ATOM      3  C   LIG    1       25.031 -21.075   5.950  0.00  0.00    +0.009 A 
ATOM      4  C   LIG    1       24.064 -22.028   6.359  0.00  0.00    +0.071 A 
ATOM      5  C   LIG    1       22.741 -21.857   5.978  0.00  0.00    +0.032 A 
ATOM      6  C   LIG    1       22.338 -20.800   5.164  0.00  0.00    +0.048 A 
ATOM      7  C   LIG    1       23.281 -19.902   4.683  0.00  0.00    +0.121 A 
ATOM      8  N   LIG    1       24.358 -23.100   7.107  0.00  0.00    -0.255 NA
ATOM      9  C   LIG    1       25.642 -23.290   7.454  0.00  0.00    +0.112 A 
ATOM     10  C   LIG    1       24.610 -20.028   5.088  0.00  0.00    +0.056 A 
ATOM     11  C   LIG    1       26.661 -22.412   7.144  0.00  0.00    +0.026 A 
BRANCH   7  12
ATOM     12  O   LIG    1       22.799 -18.918   3.866  0.00  0.00    -0.495 OA
ATOM     13  C   LIG    1       22.123 -17.856   4.531  0.00  0.00    +0.277 C 
ENDBRANCH   7  12
ENDBRANCH   1   2
BRANCH   1  17
ATOM     14  C   LIG    1       31.153 -19.663   8.566  0.00  0.00    +0.028 C 
ATOM     15  C   LIG    1       29.791 -18.992   8.868  0.00  0.00    -0.000 C 
ATOM     16  C   LIG    1       28.631 -19.928   8.486  0.00  0.00    +0.026 C 
ATOM     17  C   LIG    1       28.770 -20.358   7.009  0.00  0.00    +0.090 C 
ATOM     18  N   LIG    1       29.935 -19.668   6.350  0.00  0.00    -0.296 NA
ATOM     19  C   LIG    1       29.822 -18.197   6.488  0.00  0.00    +0.085 C 
ATOM     20  C   LIG    1       29.673 -17.761   7.952  0.00  0.00    +0.019 C 
ATOM     21  C   LIG    1       31.167 -20.098   7.075  0.00  0.00    +0.092 C 
BRANCH  14  23
ATOM     22  C   LIG    1       31.331 -22.103   9.165  0.00  0.00    +0.004 C 
ATOM     23  C   LIG    1       31.448 -20.813   9.502  0.00  0.00    -0.029 C 
ENDBRANCH  14  23
ENDBRANCH   1  17
BRANCH   1  24
ATOM     24  O   LIG    1       27.739 -20.150   4.807  0.00  0.00    -0.386 OA
ATOM     25  H   LIG    1       28.453 -19.485   4.728  0.00  0.00    +0.210 HD
ENDBRANCH   1  24
TORSDOF 5
ENDMDL
MODEL 6
REMARK VINA RESULT:      -7.7      2.269      7.333
REMARK  Name = *****
REMARK                            x       y       z     vdW  Elec       q    Type
REMARK                         _______ _______ _______ _____ _____    ______ ____
ROOT
ATOM      1  C   LIG    1       28.259 -20.408   6.834  0.00  0.00    +0.162 C 
ENDROOT
BRANCH   1   2
ATOM      2  C   LIG    1       26.883 -20.960   7.185  0.00  0.00    -0.007 A 
ATOM      3  C   LIG    1       25.730 -20.648   6.407  0.00  0.00    +0.009 A 
ATOM      4  C   LIG    1       24.471 -21.063   6.911  0.00  0.00    +0.071 A 
ATOM      5  C   LIG    1       23.318 -20.712   6.224  0.00  0.00    +0.032 A 
ATOM      6  C   LIG    1       23.360 -20.001   5.025  0.00  0.00    +0.048 A 
ATOM      7  C   LIG    1       24.585 -19.657   4.471  0.00  0.00    +0.121 A 
ATOM      8  N   LIG    1       24.328 -21.784   8.031  0.00  0.00    -0.255 NA
ATOM      9  C   LIG    1       25.442 -22.154   8.685  0.00  0.00    +0.112 A 
ATOM     10  C   LIG    1       25.756 -19.961   5.165  0.00  0.00    +0.056 A 
ATOM     11  C   LIG    1       26.716 -21.779   8.309  0.00  0.00    +0.026 A 
BRANCH   7  12
ATOM     12  O   LIG    1       24.529 -18.991   3.278  0.00  0.00    -0.495 OA
ATOM     13  C   LIG    1       25.451 -17.915   3.142  0.00  0.00    +0.277 C 
ENDBRANCH   7  12
ENDBRANCH   1   2
BRANCH   1  17
ATOM     14  C   LIG    1       31.100 -18.180   9.412  0.00  0.00    +0.028 C 
ATOM     15  C   LIG    1       31.069 -18.147   7.864  0.00  0.00    -0.000 C 
ATOM     16  C   LIG    1       29.625 -18.269   7.349  0.00  0.00    +0.026 C 
ATOM     17  C   LIG    1       28.968 -19.540   7.932  0.00  0.00    +0.090 C 
ATOM     18  N   LIG    1       29.951 -20.333   8.750  0.00  0.00    -0.296 NA
ATOM     19  C   LIG    1       31.160 -20.653   7.956  0.00  0.00    +0.085 C 
ATOM     20  C   LIG    1       31.815 -19.397   7.364  0.00  0.00    +0.019 C 
ATOM     21  C   LIG    1       30.374 -19.468   9.890  0.00  0.00    +0.092 C 
BRANCH  14  23
ATOM     22  C   LIG    1       30.862 -16.450  11.227  0.00  0.00    +0.004 C 
ATOM     23  C   LIG    1       30.515 -16.929  10.026  0.00  0.00    -0.029 C 
ENDBRANCH  14  23
ENDBRANCH   1  17
BRANCH   1  24
ATOM     24  O   LIG    1       29.108 -21.508   6.497  0.00  0.00    -0.386 OA
ATOM     25  H   LIG    1       29.926 -21.355   7.013  0.00  0.00    +0.210 HD
ENDBRANCH   1  24
TORSDOF 5
ENDMDL
MODEL 7
REMARK VINA RESULT:      -7.7      7.209     10.465
REMARK  Name = *****
REMARK                            x       y       z     vdW  Elec       q    Type
REMARK                         _______ _______ _______ _____ _____    ______ ____
ROOT
ATOM      1  C   LIG    1       26.090 -28.787   7.682  0.00  0.00    +0.162 C 
ENDROOT
BRANCH   1   2
ATOM      2  C   LIG    1       25.115 -29.933   7.923  0.00  0.00    -0.007 A 
ATOM      3  C   LIG    1       24.917 -30.964   6.960  0.00  0.00    +0.009 A 
ATOM      4  C   LIG    1       23.866 -31.887   7.197  0.00  0.00    +0.071 A 
ATOM      5  C   LIG    1       23.589 -32.857   6.245  0.00  0.00    +0.032 A 
ATOM      6  C   LIG    1       24.344 -32.985   5.080  0.00  0.00    +0.048 A 
ATOM      7  C   LIG    1       25.429 -32.146   4.866  0.00  0.00    +0.121 A 
ATOM      8  N   LIG    1       23.111 -31.873   8.304  0.00  0.00    -0.255 NA
ATOM      9  C   LIG    1       23.393 -30.955   9.244  0.00  0.00    +0.112 A 
ATOM     10  C   LIG    1       25.700 -31.135   5.788  0.00  0.00    +0.056 A 
ATOM     11  C   LIG    1       24.366 -29.987   9.107  0.00  0.00    +0.026 A 
BRANCH   7  12
ATOM     12  O   LIG    1       26.129 -32.367   3.713  0.00  0.00    -0.495 OA
ATOM     13  C   LIG    1       26.912 -33.556   3.699  0.00  0.00    +0.277 C 
ENDBRANCH   7  12
ENDBRANCH   1   2
BRANCH   1  17
ATOM     14  C   LIG    1       24.588 -25.034   5.855  0.00  0.00    +0.028 C 
ATOM     15  C   LIG    1       24.375 -26.460   5.292  0.00  0.00    -0.000 C 
ATOM     16  C   LIG    1       24.235 -27.479   6.436  0.00  0.00    +0.026 C 
ATOM     17  C   LIG    1       25.460 -27.384   7.373  0.00  0.00    +0.090 C 
ATOM     18  N   LIG    1       26.470 -26.401   6.847  0.00  0.00    -0.296 NA
ATOM     19  C   LIG    1       26.862 -26.739   5.459  0.00  0.00    +0.085 C 
ATOM     20  C   LIG    1       25.651 -26.845   4.523  0.00  0.00    +0.019 C 
ATOM     21  C   LIG    1       25.808 -25.063   6.817  0.00  0.00    +0.092 C 
BRANCH  14  23
ATOM     22  C   LIG    1       23.174 -23.198   6.843  0.00  0.00    +0.004 C 
ATOM     23  C   LIG    1       23.345 -24.486   6.520  0.00  0.00    -0.029 C 
ENDBRANCH  14  23
ENDBRANCH   1  17
BRANCH   1  24
ATOM     24  O   LIG    1       26.935 -28.671   8.830  0.00  0.00    -0.386 OA
ATOM     25  H   LIG    1       26.376 -28.230   9.503  0.00  0.00    +0.210 HD
ENDBRANCH   1  24
TORSDOF 5
ENDMDL
MODEL 8
REMARK VINA RESULT:      -7.4      1.639      3.380
REMARK  Name = *****
REMARK                            x       y       z     vdW  Elec       q    Type
REMARK                         _______ _______ _______ _____ _____    ______ ____
ROOT
ATOM      1  C   LIG    1       26.707 -22.135   7.216  0.00  0.00    +0.162 C 
ENDROOT
BRANCH   1   2
ATOM      2  C   LIG    1       27.986 -21.324   7.387  0.00  0.00    -0.007 A 
ATOM      3  C   LIG    1       28.280 -20.205   6.555  0.00  0.00    +0.009 A 
ATOM      4  C   LIG    1       29.568 -19.624   6.673  0.00  0.00    +0.071 A 
ATOM      5  C   LIG    1       29.922 -18.583   5.827  0.00  0.00    +0.032 A 
ATOM      6  C   LIG    1       29.032 -18.057   4.892  0.00  0.00    +0.048 A 
ATOM      7  C   LIG    1       27.739 -18.555   4.815  0.00  0.00    +0.121 A 
ATOM      8  N   LIG    1       30.479 -20.031   7.568  0.00  0.00    -0.255 NA
ATOM      9  C   LIG    1       30.133 -21.017   8.412  0.00  0.00    +0.112 A 
ATOM     10  C   LIG    1       27.374 -19.630   5.625  0.00  0.00    +0.056 A 
ATOM     11  C   LIG    1       28.923 -21.680   8.366  0.00  0.00    +0.026 A 
BRANCH   7  12
ATOM     12  O   LIG    1       26.928 -17.956   3.892  0.00  0.00    -0.495 OA
ATOM     13  C   LIG    1       25.768 -18.699   3.532  0.00  0.00    +0.277 C 
ENDBRANCH   7  12
ENDBRANCH   1   2
BRANCH   1  17
ATOM     14  C   LIG    1       22.789 -20.866   5.569  0.00  0.00    +0.028 C 
ATOM     15  C   LIG    1       23.053 -21.311   7.028  0.00  0.00    -0.000 C 
ATOM     16  C   LIG    1       24.459 -20.879   7.479  0.00  0.00    +0.026 C 
ATOM     17  C   LIG    1       25.515 -21.420   6.490  0.00  0.00    +0.090 C 
ATOM     18  N   LIG    1       24.878 -22.284   5.436  0.00  0.00    -0.296 NA
ATOM     19  C   LIG    1       24.092 -23.377   6.054  0.00  0.00    +0.085 C 
ATOM     20  C   LIG    1       23.046 -22.850   7.046  0.00  0.00    +0.019 C 
ATOM     21  C   LIG    1       23.930 -21.420   4.672  0.00  0.00    +0.092 C 
BRANCH  14  23
ATOM     22  C   LIG    1       22.197 -18.748   4.340  0.00  0.00    +0.004 C 
ATOM     23  C   LIG    1       22.636 -19.367   5.442  0.00  0.00    -0.029 C 
ENDBRANCH  14  23
ENDBRANCH   1  17
BRANCH   1  24
ATOM     24  O   LIG    1       27.030 -23.332   6.504  0.00  0.00    -0.386 OA
ATOM     25  H   LIG    1       26.165 -23.759   6.336  0.00  0.00    +0.210 HD
ENDBRANCH   1  24
TORSDOF 5
ENDMDL
MODEL 9
REMARK VINA RESULT:      -7.4      2.326      6.462
REMARK  Name = *****
REMARK                            x       y       z     vdW  Elec       q    Type
REMARK                         _______ _______ _______ _____ _____    ______ ____
ROOT
ATOM      1  C   LIG    1       26.517 -21.684   8.573  0.00  0.00    +0.162 C 
ENDROOT
BRANCH   1   2
ATOM      2  C   LIG    1       25.743 -21.804   7.266  0.00  0.00    -0.007 A 
ATOM      3  C   LIG    1       25.534 -23.062   6.631  0.00  0.00    +0.009 A 
ATOM      4  C   LIG    1       24.957 -23.052   5.336  0.00  0.00    +0.071 A 
ATOM      5  C   LIG    1       24.809 -24.250   4.651  0.00  0.00    +0.032 A 
ATOM      6  C   LIG    1       25.167 -25.473   5.217  0.00  0.00    +0.048 A 
ATOM      7  C   LIG    1       25.656 -25.515   6.515  0.00  0.00    +0.121 A 
ATOM      8  N   LIG    1       24.543 -21.935   4.723  0.00  0.00    -0.255 NA
ATOM      9  C   LIG    1       24.655 -20.775   5.392  0.00  0.00    +0.112 A 
ATOM     10  C   LIG    1       25.855 -24.320   7.207  0.00  0.00    +0.056 A 
ATOM     11  C   LIG    1       25.232 -20.659   6.640  0.00  0.00    +0.026 A 
BRANCH   7  12
ATOM     12  O   LIG    1       25.948 -26.760   6.997  0.00  0.00    -0.495 OA
ATOM     13  C   LIG    1       25.112 -27.807   6.516  0.00  0.00    +0.277 C 
ENDBRANCH   7  12
ENDBRANCH   1   2
BRANCH   1  17
ATOM     14  C   LIG    1       30.103 -19.270   7.577  0.00  0.00    +0.028 C 
ATOM     15  C   LIG    1       28.816 -19.369   6.722  0.00  0.00    -0.000 C 
ATOM     16  C   LIG    1       27.578 -19.522   7.624  0.00  0.00    +0.026 C 
ATOM     17  C   LIG    1       27.764 -20.732   8.565  0.00  0.00    +0.090 C 
ATOM     18  N   LIG    1       29.046 -21.461   8.266  0.00  0.00    -0.296 NA
ATOM     19  C   LIG    1       29.106 -21.858   6.840  0.00  0.00    +0.085 C 
ATOM     20  C   LIG    1       28.913 -20.664   5.896  0.00  0.00    +0.019 C 
ATOM     21  C   LIG    1       30.164 -20.505   8.518  0.00  0.00    +0.092 C 
BRANCH  14  23
ATOM     22  C   LIG    1       30.361 -17.879   9.662  0.00  0.00    +0.004 C 
ATOM     23  C   LIG    1       30.191 -17.966   8.337  0.00  0.00    -0.029 C 
ENDBRANCH  14  23
ENDBRANCH   1  17
BRANCH   1  24
ATOM     24  O   LIG    1       25.611 -21.251   9.590  0.00  0.00    -0.386 OA
ATOM     25  H   LIG    1       24.829 -21.831   9.486  0.00  0.00    +0.210 HD
ENDBRANCH   1  24
TORSDOF 5
ENDMDL
