MODEL 1
REMARK VINA RESULT:       6.8      0.000      0.000
REMARK  Name = *****
REMARK                            x       y       z     vdW  Elec       q    Type
REMARK                         _______ _______ _______ _____ _____    ______ ____
ROOT
ATOM      1  C   LIG    1       27.194 -12.613   4.507  0.00  0.00    +0.169 C 
ATOM      2  C   LIG    1       28.006 -12.868   3.167  0.00  0.00    +0.084 C 
ATOM      3  C   LIG    1       27.620 -14.214   2.482  0.00  0.00    +0.042 C 
ATOM      4  C   LIG    1       26.327 -14.785   3.081  0.00  0.00    +0.084 C 
ATOM      5  C   LIG    1       26.607 -15.140   4.575  0.00  0.00    +0.169 C 
ATOM      6  C   LIG    1       27.302 -13.938   5.298  0.00  0.00    +0.175 C 
ENDROOT
BRANCH   2   7
ATOM      7  N   LIG    1       29.473 -12.831   3.358  0.00  0.00    -0.325 NA
ATOM      8  H   LIG    1       29.743 -11.935   3.771  0.00  0.00    +0.118 HD
ATOM      9  H   LIG    1       29.962 -12.857   2.464  0.00  0.00    +0.118 HD
ENDBRANCH   2   7
BRANCH   4  10
ATOM     10  N   LIG    1       25.779 -15.875   2.270  0.00  0.00    -0.325 NA
ATOM     11  H   LIG    1       24.869 -16.146   2.648  0.00  0.00    +0.118 HD
ATOM     12  H   LIG    1       25.618 -15.556   1.311  0.00  0.00    +0.118 HD
ENDBRANCH   4  10
BRANCH   6  13
ATOM     13  O   LIG    1       26.860 -13.813   6.652  0.00  0.00    -0.387 OA
ATOM     14  H   LIG    1       27.617 -13.487   7.168  0.00  0.00    +0.210 HD
ENDBRANCH   6  13
BRANCH   1  15
ATOM     15  O   LIG    1       25.855 -12.187   4.145  0.00  0.00    -0.342 OA
BRANCH  15  18
ATOM     16  C   LIG    1       23.675 -14.160   5.466  0.00  0.00    +0.138 C 
ATOM     17  O   LIG    1       24.701 -14.295   4.441  0.00  0.00    -0.345 OA
ATOM     18  C   LIG    1       24.933 -13.147   3.592  0.00  0.00    +0.268 C 
ATOM     19  C   LIG    1       23.539 -12.466   3.320  0.00  0.00    +0.107 C 
ATOM     20  C   LIG    1       23.016 -11.867   4.637  0.00  0.00    +0.026 C 
ATOM     21  C   LIG    1       23.489 -12.683   5.845  0.00  0.00    +0.035 C 
BRANCH  19  22
ATOM     22  N   LIG    1       23.331 -11.543   2.201  0.00  0.00    -0.323 NA
ATOM     23  H   LIG    1       23.641 -10.622   2.412  0.00  0.00    +0.119 HD
ATOM     24  H   LIG    1       22.341 -11.511   1.928  0.00  0.00    +0.119 HD
ENDBRANCH  19  22
BRANCH  16  25
ATOM     25  C   LIG    1       22.295 -14.863   5.096  0.00  0.00    +0.079 C 
ATOM     26  C   LIG    1       21.559 -15.338   6.361  0.00  0.00    +0.026 C 
BRANCH  25  28
ATOM     27  C   LIG    1       22.059 -17.263   4.653  0.00  0.00    +0.101 C 
ATOM     28  N   LIG    1       22.489 -15.965   4.130  0.00  0.00    -0.314 NA
ATOM     29  H   LIG    1       21.937 -15.743   3.298  0.00  0.00    +0.122 HD
ENDBRANCH  25  28
ENDBRANCH  16  25
ENDBRANCH  15  18
ENDBRANCH   1  15
BRANCH   5  30
ATOM     30  O   LIG    1       27.538 -16.242   4.715  0.00  0.00    -0.341 OA
BRANCH  30  31
ATOM     31  C   LIG    1       27.392 -17.333   3.785  0.00  0.00    +0.281 C 
ATOM     32  C   LIG    1       28.197 -18.506   4.403  0.00  0.00    +0.190 C 
ATOM     33  C   LIG    1       27.319 -19.087   5.538  0.00  0.00    +0.121 C 
ATOM     34  C   LIG    1       26.014 -19.662   4.863  0.00  0.00    +0.104 C 
ATOM     35  C   LIG    1       24.800 -19.488   5.778  0.00  0.00    +0.045 C 
ATOM     36  C   LIG    1       25.733 -18.992   3.498  0.00  0.00    +0.199 C 
ATOM     37  O   LIG    1       26.014 -17.600   3.553  0.00  0.00    -0.346 OA
BRANCH  33  38
ATOM     38  N   LIG    1       27.939 -20.118   6.423  0.00  0.00    -0.311 NA
ATOM     39  H   LIG    1       27.940 -19.747   7.375  0.00  0.00    +0.122 HD
ATOM     40  C   LIG    1       29.340 -20.372   6.071  0.00  0.00    +0.101 C 
ENDBRANCH  33  38
BRANCH  32  41
ATOM     41  O   LIG    1       29.472 -17.989   4.815  0.00  0.00    -0.385 OA
ATOM     42  H   LIG    1       29.452 -18.008   5.792  0.00  0.00    +0.210 HD
ENDBRANCH  32  41
BRANCH  34  43
ATOM     43  O   LIG    1       26.163 -21.073   4.630  0.00  0.00    -0.385 OA
ATOM     44  H   LIG    1       25.723 -21.508   5.392  0.00  0.00    +0.210 HD
ENDBRANCH  34  43
ENDBRANCH  30  31
ENDBRANCH   5  30
TORSDOF 13
ENDMDL
MODEL 2
REMARK VINA RESULT:       8.4      2.247      5.194
REMARK  Name = *****
REMARK                            x       y       z     vdW  Elec       q    Type
REMARK                         _______ _______ _______ _____ _____    ______ ____
ROOT
ATOM      1  C   LIG    1       22.681 -17.092   3.526  0.00  0.00    +0.169 C 
ATOM      2  C   LIG    1       21.275 -17.686   3.959  0.00  0.00    +0.084 C 
ATOM      3  C   LIG    1       21.405 -18.792   5.051  0.00  0.00    +0.042 C 
ATOM      4  C   LIG    1       22.808 -18.790   5.672  0.00  0.00    +0.084 C 
ATOM      5  C   LIG    1       23.827 -19.180   4.555  0.00  0.00    +0.169 C 
ATOM      6  C   LIG    1       23.575 -18.327   3.267  0.00  0.00    +0.175 C 
ENDROOT
BRANCH   2   7
ATOM      7  N   LIG    1       20.493 -18.223   2.824  0.00  0.00    -0.325 NA
ATOM      8  H   LIG    1       20.692 -17.678   1.981  0.00  0.00    +0.118 HD
ATOM      9  H   LIG    1       19.492 -18.102   2.974  0.00  0.00    +0.118 HD
ENDBRANCH   2   7
BRANCH   4  10
ATOM     10  N   LIG    1       22.874 -19.600   6.890  0.00  0.00    -0.325 NA
ATOM     11  H   LIG    1       23.697 -20.204   6.845  0.00  0.00    +0.118 HD
ATOM     12  H   LIG    1       22.993 -18.998   7.709  0.00  0.00    +0.118 HD
ENDBRANCH   4  10
BRANCH   6  13
ATOM     13  O   LIG    1       24.800 -17.996   2.608  0.00  0.00    -0.387 OA
ATOM     14  H   LIG    1       24.692 -17.102   2.242  0.00  0.00    +0.210 HD
ENDBRANCH   6  13
BRANCH   1  15
ATOM     15  O   LIG    1       23.124 -16.184   4.569  0.00  0.00    -0.342 OA
BRANCH  15  18
ATOM     16  C   LIG    1       24.784 -14.139   2.711  0.00  0.00    +0.138 C 
ATOM     17  O   LIG    1       25.032 -15.463   3.265  0.00  0.00    -0.345 OA
ATOM     18  C   LIG    1       24.493 -15.735   4.579  0.00  0.00    +0.268 C 
ATOM     19  C   LIG    1       24.625 -14.416   5.430  0.00  0.00    +0.107 C 
ATOM     20  C   LIG    1       23.680 -13.353   4.843  0.00  0.00    +0.026 C 
ATOM     21  C   LIG    1       23.517 -13.530   3.329  0.00  0.00    +0.035 C 
BRANCH  19  22
ATOM     22  N   LIG    1       24.563 -14.427   6.894  0.00  0.00    -0.323 NA
ATOM     23  H   LIG    1       25.392 -14.793   7.302  0.00  0.00    +0.119 HD
ATOM     24  H   LIG    1       23.757 -14.970   7.226  0.00  0.00    +0.119 HD
ENDBRANCH  19  22
BRANCH  16  25
ATOM     25  C   LIG    1       26.032 -13.153   2.808  0.00  0.00    +0.079 C 
ATOM     26  C   LIG    1       25.894 -11.988   1.813  0.00  0.00    +0.026 C 
BRANCH  25  28
ATOM     27  C   LIG    1       28.351 -13.423   3.554  0.00  0.00    +0.101 C 
ATOM     28  N   LIG    1       27.309 -13.877   2.631  0.00  0.00    -0.314 NA
ATOM     29  H   LIG    1       27.125 -14.869   2.800  0.00  0.00    +0.122 HD
ENDBRANCH  25  28
ENDBRANCH  16  25
ENDBRANCH  15  18
ENDBRANCH   1  15
BRANCH   5  30
ATOM     30  O   LIG    1       23.671 -20.554   4.123  0.00  0.00    -0.341 OA
BRANCH  30  31
ATOM     31  C   LIG    1       24.704 -21.478   4.520  0.00  0.00    +0.281 C 
ATOM     32  C   LIG    1       25.983 -21.000   3.785  0.00  0.00    +0.190 C 
ATOM     33  C   LIG    1       26.500 -19.769   4.567  0.00  0.00    +0.121 C 
ATOM     34  C   LIG    1       26.896 -20.272   6.010  0.00  0.00    +0.104 C 
ATOM     35  C   LIG    1       26.618 -19.196   7.062  0.00  0.00    +0.045 C 
ATOM     36  C   LIG    1       26.149 -21.570   6.387  0.00  0.00    +0.199 C 
ATOM     37  O   LIG    1       24.801 -21.525   5.939  0.00  0.00    -0.346 OA
BRANCH  33  38
ATOM     38  N   LIG    1       27.628 -18.998   3.962  0.00  0.00    -0.311 NA
ATOM     39  H   LIG    1       28.499 -19.461   4.234  0.00  0.00    +0.122 HD
ATOM     40  C   LIG    1       27.701 -17.631   4.487  0.00  0.00    +0.101 C 
ENDBRANCH  33  38
BRANCH  32  41
ATOM     41  O   LIG    1       25.632 -20.755   2.414  0.00  0.00    -0.385 OA
ATOM     42  H   LIG    1       25.702 -21.624   1.973  0.00  0.00    +0.210 HD
ENDBRANCH  32  41
BRANCH  34  43
ATOM     43  O   LIG    1       28.306 -20.552   6.062  0.00  0.00    -0.385 OA
ATOM     44  H   LIG    1       28.672 -20.187   5.227  0.00  0.00    +0.210 HD
ENDBRANCH  34  43
ENDBRANCH  30  31
ENDBRANCH   5  30
TORSDOF 13
ENDMDL
MODEL 3
REMARK VINA RESULT:       8.8      2.244      6.596
REMARK  Name = *****
REMARK                            x       y       z     vdW  Elec       q    Type
REMARK                         _______ _______ _______ _____ _____    ______ ____
ROOT
ATOM      1  C   LIG    1       23.267 -17.401   4.689  0.00  0.00    +0.169 C 
ATOM      2  C   LIG    1       21.963 -16.739   5.305  0.00  0.00    +0.084 C 
ATOM      3  C   LIG    1       21.296 -15.717   4.335  0.00  0.00    +0.042 C 
ATOM      4  C   LIG    1       21.862 -15.856   2.915  0.00  0.00    +0.084 C 
ATOM      5  C   LIG    1       23.373 -15.466   2.962  0.00  0.00    +0.169 C 
ATOM      6  C   LIG    1       24.092 -16.216   4.133  0.00  0.00    +0.175 C 
ENDROOT
BRANCH   2   7
ATOM      7  N   LIG    1       22.204 -16.078   6.607  0.00  0.00    -0.325 NA
ATOM      8  H   LIG    1       22.929 -15.365   6.501  0.00  0.00    +0.118 HD
ATOM      9  H   LIG    1       22.588 -16.732   7.288  0.00  0.00    +0.118 HD
ENDBRANCH   2   7
BRANCH   4  10
ATOM     10  N   LIG    1       21.059 -15.132   1.928  0.00  0.00    -0.325 NA
ATOM     11  H   LIG    1       20.137 -14.939   2.324  0.00  0.00    +0.118 HD
ATOM     12  H   LIG    1       21.487 -14.225   1.721  0.00  0.00    +0.118 HD
ENDBRANCH   4  10
BRANCH   6  13
ATOM     13  O   LIG    1       25.426 -16.588   3.779  0.00  0.00    -0.387 OA
ATOM     14  H   LIG    1       25.546 -17.512   4.056  0.00  0.00    +0.210 HD
ENDBRANCH   6  13
BRANCH   1  15
ATOM     15  O   LIG    1       22.849 -18.401   3.724  0.00  0.00    -0.342 OA
BRANCH  15  18
ATOM     16  C   LIG    1       25.344 -19.627   5.355  0.00  0.00    +0.138 C 
ATOM     17  O   LIG    1       25.013 -19.462   3.946  0.00  0.00    -0.345 OA
ATOM     18  C   LIG    1       23.622 -19.608   3.578  0.00  0.00    +0.268 C 
ATOM     19  C   LIG    1       23.012 -20.755   4.469  0.00  0.00    +0.107 C 
ATOM     20  C   LIG    1       22.972 -20.276   5.932  0.00  0.00    +0.026 C 
ATOM     21  C   LIG    1       24.124 -19.310   6.231  0.00  0.00    +0.035 C 
BRANCH  19  22
ATOM     22  N   LIG    1       21.771 -21.444   4.106  0.00  0.00    -0.323 NA
ATOM     23  H   LIG    1       21.766 -21.730   3.154  0.00  0.00    +0.119 HD
ATOM     24  H   LIG    1       20.952 -20.849   4.284  0.00  0.00    +0.119 HD
ENDBRANCH  19  22
BRANCH  16  25
ATOM     25  C   LIG    1       25.985 -21.043   5.707  0.00  0.00    +0.079 C 
ATOM     26  C   LIG    1       25.464 -21.565   7.057  0.00  0.00    +0.026 C 
BRANCH  25  28
ATOM     27  C   LIG    1       27.984 -19.626   5.638  0.00  0.00    +0.101 C 
ATOM     28  N   LIG    1       27.462 -20.993   5.672  0.00  0.00    -0.314 NA
ATOM     29  H   LIG    1       27.804 -21.459   6.516  0.00  0.00    +0.122 HD
ENDBRANCH  25  28
ENDBRANCH  16  25
ENDBRANCH  15  18
ENDBRANCH   1  15
BRANCH   5  30
ATOM     30  O   LIG    1       23.571 -14.060   3.248  0.00  0.00    -0.341 OA
BRANCH  30  31
ATOM     31  C   LIG    1       24.603 -13.387   2.501  0.00  0.00    +0.281 C 
ATOM     32  C   LIG    1       25.275 -12.422   3.511  0.00  0.00    +0.190 C 
ATOM     33  C   LIG    1       26.200 -13.291   4.396  0.00  0.00    +0.121 C 
ATOM     34  C   LIG    1       27.310 -13.895   3.450  0.00  0.00    +0.104 C 
ATOM     35  C   LIG    1       27.719 -15.296   3.909  0.00  0.00    +0.045 C 
ATOM     36  C   LIG    1       26.839 -13.949   1.979  0.00  0.00    +0.199 C 
ATOM     37  O   LIG    1       25.475 -14.339   1.900  0.00  0.00    -0.346 OA
BRANCH  33  38
ATOM     38  N   LIG    1       26.833 -12.633   5.579  0.00  0.00    -0.311 NA
ATOM     39  H   LIG    1       27.745 -12.278   5.282  0.00  0.00    +0.122 HD
ATOM     40  C   LIG    1       27.088 -13.584   6.664  0.00  0.00    +0.101 C 
ENDBRANCH  33  38
BRANCH  32  41
ATOM     41  O   LIG    1       24.231 -11.726   4.210  0.00  0.00    -0.385 OA
ATOM     42  H   LIG    1       23.505 -12.375   4.296  0.00  0.00    +0.210 HD
ENDBRANCH  32  41
BRANCH  34  43
ATOM     43  O   LIG    1       28.492 -13.078   3.497  0.00  0.00    -0.385 OA
ATOM     44  H   LIG    1       28.924 -13.200   2.624  0.00  0.00    +0.210 HD
ENDBRANCH  34  43
ENDBRANCH  30  31
ENDBRANCH   5  30
TORSDOF 13
ENDMDL
