MODEL 1
REMARK VINA RESULT:      -9.9      0.000      0.000
REMARK  Name = *****
REMARK                            x       y       z     vdW  Elec       q    Type
REMARK                         _______ _______ _______ _____ _____    ______ ____
ROOT
ATOM      1  C   LIG    1       28.087 -20.204   7.503  0.00  0.00    +0.099 A 
ATOM      2  C   LIG    1       28.233 -19.996   6.119  0.00  0.00    +0.137 A 
ATOM      3  N   LIG    1       29.371 -19.440   5.627  0.00  0.00    -0.239 NA
ATOM      4  C   LIG    1       30.366 -19.092   6.465  0.00  0.00    +0.113 A 
ATOM      5  C   LIG    1       30.293 -19.245   7.830  0.00  0.00    +0.021 A 
ATOM      6  C   LIG    1       29.134 -19.805   8.354  0.00  0.00    +0.020 A 
ENDROOT
BRANCH   1   8
ATOM      7  O   LIG    1       26.274 -20.502   9.058  0.00  0.00    -0.245 OA
ATOM      8  C   LIG    1       26.874 -20.871   8.061  0.00  0.00    +0.346 C 
BRANCH   8   9
ATOM      9  O   LIG    1       26.559 -21.958   7.316  0.00  0.00    -0.417 OA
BRANCH   9  10
ATOM     10  C   LIG    1       25.632 -22.862   7.914  0.00  0.00    +0.403 C 
ATOM     11  C   LIG    1       25.567 -24.080   7.062  0.00  0.00    +0.047 A 
ATOM     12  C   LIG    1       24.328 -24.140   6.463  0.00  0.00    +0.069 A 
ATOM     13  C   LIG    1       23.972 -25.130   5.565  0.00  0.00    +0.015 A 
ATOM     14  C   LIG    1       24.923 -26.107   5.272  0.00  0.00    +0.001 A 
ATOM     15  C   LIG    1       26.183 -26.076   5.894  0.00  0.00    +0.001 A 
ATOM     16  C   LIG    1       23.518 -23.028   6.946  0.00  0.00    +0.343 C 
ATOM     17  O   LIG    1       22.381 -22.782   6.633  0.00  0.00    -0.245 OA
ATOM     18  C   LIG    1       26.514 -25.057   6.797  0.00  0.00    +0.012 A 
ATOM     19  O   LIG    1       24.290 -22.342   7.840  0.00  0.00    -0.417 OA
ENDBRANCH   9  10
ENDBRANCH   8   9
ENDBRANCH   1   8
BRANCH   2  20
ATOM     20  N   LIG    1       27.268 -20.468   5.208  0.00  0.00    -0.299 N 
ATOM     21  H   LIG    1       27.312 -21.473   5.055  0.00  0.00    +0.154 HD
BRANCH  20  22
ATOM     22  C   LIG    1       26.160 -19.840   4.614  0.00  0.00    +0.033 A 
ATOM     23  C   LIG    1       24.833 -20.127   4.947  0.00  0.00    +0.035 A 
ATOM     24  C   LIG    1       23.753 -19.389   4.431  0.00  0.00    +0.057 A 
ATOM     25  C   LIG    1       24.014 -18.320   3.568  0.00  0.00    +0.012 A 
ATOM     26  C   LIG    1       25.329 -17.997   3.239  0.00  0.00    +0.002 A 
ATOM     27  C   LIG    1       26.388 -18.750   3.760  0.00  0.00    +0.023 A 
BRANCH  24  28
ATOM     28  C   LIG    1       22.355 -19.768   4.841  0.00  0.00    +0.417 C 
ATOM     29  F   LIG    1       21.413 -18.914   4.349  0.00  0.00    -0.166 F 
ATOM     30  F   LIG    1       22.189 -19.768   6.193  0.00  0.00    -0.166 F 
ATOM     31  F   LIG    1       21.981 -21.011   4.423  0.00  0.00    -0.166 F 
ENDBRANCH  24  28
ENDBRANCH  20  22
ENDBRANCH   2  20
TORSDOF 6
ENDMDL
MODEL 2
REMARK VINA RESULT:      -9.9      3.064      4.926
REMARK  Name = *****
REMARK                            x       y       z     vdW  Elec       q    Type
REMARK                         _______ _______ _______ _____ _____    ______ ____
ROOT
ATOM      1  C   LIG    1       25.009 -20.468   5.871  0.00  0.00    +0.099 A 
ATOM      2  C   LIG    1       25.786 -20.170   4.737  0.00  0.00    +0.137 A 
ATOM      3  N   LIG    1       25.215 -19.591   3.649  0.00  0.00    -0.239 NA
ATOM      4  C   LIG    1       23.901 -19.297   3.655  0.00  0.00    +0.113 A 
ATOM      5  C   LIG    1       23.070 -19.574   4.716  0.00  0.00    +0.021 A 
ATOM      6  C   LIG    1       23.633 -20.173   5.836  0.00  0.00    +0.020 A 
ENDROOT
BRANCH   1   8
ATOM      7  O   LIG    1       25.762 -20.447   8.157  0.00  0.00    -0.245 OA
ATOM      8  C   LIG    1       25.625 -21.045   7.102  0.00  0.00    +0.346 C 
BRANCH   8   9
ATOM      9  O   LIG    1       26.034 -22.314   6.863  0.00  0.00    -0.417 OA
BRANCH   9  10
ATOM     10  C   LIG    1       25.330 -23.328   7.578  0.00  0.00    +0.403 C 
ATOM     11  C   LIG    1       25.432 -24.591   6.797  0.00  0.00    +0.047 A 
ATOM     12  C   LIG    1       24.187 -24.911   6.302  0.00  0.00    +0.069 A 
ATOM     13  C   LIG    1       23.958 -26.004   5.486  0.00  0.00    +0.015 A 
ATOM     14  C   LIG    1       25.049 -26.813   5.171  0.00  0.00    +0.001 A 
ATOM     15  C   LIG    1       26.322 -26.517   5.690  0.00  0.00    +0.001 A 
ATOM     16  C   LIG    1       23.222 -23.932   6.789  0.00  0.00    +0.343 C 
ATOM     17  O   LIG    1       22.041 -23.914   6.554  0.00  0.00    -0.245 OA
ATOM     18  C   LIG    1       26.521 -25.399   6.510  0.00  0.00    +0.012 A 
ATOM     19  O   LIG    1       23.915 -23.062   7.583  0.00  0.00    -0.417 OA
ENDBRANCH   9  10
ENDBRANCH   8   9
ENDBRANCH   1   8
BRANCH   2  20
ATOM     20  N   LIG    1       27.184 -20.345   4.748  0.00  0.00    -0.299 N 
ATOM     21  H   LIG    1       27.536 -20.843   3.934  0.00  0.00    +0.154 HD
BRANCH  20  22
ATOM     22  C   LIG    1       28.184 -19.814   5.580  0.00  0.00    +0.033 A 
ATOM     23  C   LIG    1       28.801 -20.531   6.609  0.00  0.00    +0.035 A 
ATOM     24  C   LIG    1       29.888 -20.014   7.336  0.00  0.00    +0.057 A 
ATOM     25  C   LIG    1       30.382 -18.748   7.009  0.00  0.00    +0.012 A 
ATOM     26  C   LIG    1       29.801 -18.023   5.970  0.00  0.00    +0.002 A 
ATOM     27  C   LIG    1       28.715 -18.554   5.265  0.00  0.00    +0.023 A 
BRANCH  24  28
ATOM     28  C   LIG    1       30.492 -20.854   8.431  0.00  0.00    +0.417 C 
ATOM     29  F   LIG    1       29.647 -21.827   8.874  0.00  0.00    -0.166 F 
ATOM     30  F   LIG    1       30.824 -20.120   9.529  0.00  0.00    -0.166 F 
ATOM     31  F   LIG    1       31.634 -21.497   8.058  0.00  0.00    -0.166 F 
ENDBRANCH  24  28
ENDBRANCH  20  22
ENDBRANCH   2  20
TORSDOF 6
ENDMDL
MODEL 3
REMARK VINA RESULT:      -9.9      1.984      5.368
REMARK  Name = *****
REMARK                            x       y       z     vdW  Elec       q    Type
REMARK                         _______ _______ _______ _____ _____    ______ ____
ROOT
ATOM      1  C   LIG    1       25.310 -23.803   6.936  0.00  0.00    +0.099 A 
ATOM      2  C   LIG    1       24.215 -23.767   6.053  0.00  0.00    +0.137 A 
ATOM      3  N   LIG    1       23.794 -24.903   5.438  0.00  0.00    -0.239 NA
ATOM      4  C   LIG    1       24.423 -26.070   5.677  0.00  0.00    +0.113 A 
ATOM      5  C   LIG    1       25.511 -26.184   6.511  0.00  0.00    +0.021 A 
ATOM      6  C   LIG    1       25.963 -25.033   7.143  0.00  0.00    +0.020 A 
ENDROOT
BRANCH   1   8
ATOM      7  O   LIG    1       25.034 -21.905   8.390  0.00  0.00    -0.245 OA
ATOM      8  C   LIG    1       25.752 -22.582   7.672  0.00  0.00    +0.346 C 
BRANCH   8   9
ATOM      9  O   LIG    1       27.054 -22.323   7.401  0.00  0.00    -0.417 OA
BRANCH   9  10
ATOM     10  C   LIG    1       27.625 -21.234   8.122  0.00  0.00    +0.403 C 
ATOM     11  C   LIG    1       28.243 -20.307   7.136  0.00  0.00    +0.047 A 
ATOM     12  C   LIG    1       29.612 -20.346   7.285  0.00  0.00    +0.069 A 
ATOM     13  C   LIG    1       30.479 -19.634   6.476  0.00  0.00    +0.015 A 
ATOM     14  C   LIG    1       29.920 -18.838   5.477  0.00  0.00    +0.001 A 
ATOM     15  C   LIG    1       28.524 -18.765   5.328  0.00  0.00    +0.001 A 
ATOM     16  C   LIG    1       29.938 -21.226   8.402  0.00  0.00    +0.343 C 
ATOM     17  O   LIG    1       31.042 -21.483   8.810  0.00  0.00    -0.245 OA
ATOM     18  C   LIG    1       27.674 -19.503   6.161  0.00  0.00    +0.012 A 
ATOM     19  O   LIG    1       28.750 -21.673   8.906  0.00  0.00    -0.417 OA
ENDBRANCH   9  10
ENDBRANCH   8   9
ENDBRANCH   1   8
BRANCH   2  20
ATOM     20  N   LIG    1       23.458 -22.591   5.883  0.00  0.00    -0.299 N 
ATOM     21  H   LIG    1       22.697 -22.500   6.553  0.00  0.00    +0.154 HD
BRANCH  20  22
ATOM     22  C   LIG    1       23.665 -21.455   5.083  0.00  0.00    +0.033 A 
ATOM     23  C   LIG    1       22.851 -20.319   5.120  0.00  0.00    +0.035 A 
ATOM     24  C   LIG    1       23.162 -19.151   4.403  0.00  0.00    +0.057 A 
ATOM     25  C   LIG    1       24.333 -19.114   3.641  0.00  0.00    +0.012 A 
ATOM     26  C   LIG    1       25.175 -20.224   3.606  0.00  0.00    +0.002 A 
ATOM     27  C   LIG    1       24.842 -21.380   4.322  0.00  0.00    +0.023 A 
BRANCH  24  28
ATOM     28  C   LIG    1       22.228 -17.973   4.497  0.00  0.00    +0.417 C 
ATOM     29  F   LIG    1       21.841 -17.709   5.778  0.00  0.00    -0.166 F 
ATOM     30  F   LIG    1       21.078 -18.160   3.792  0.00  0.00    -0.166 F 
ATOM     31  F   LIG    1       22.764 -16.812   4.027  0.00  0.00    -0.166 F 
ENDBRANCH  24  28
ENDBRANCH  20  22
ENDBRANCH   2  20
TORSDOF 6
ENDMDL
MODEL 4
REMARK VINA RESULT:      -9.7      3.994      7.214
REMARK  Name = *****
REMARK                            x       y       z     vdW  Elec       q    Type
REMARK                         _______ _______ _______ _____ _____    ______ ____
ROOT
ATOM      1  C   LIG    1       24.880 -21.555   7.362  0.00  0.00    +0.099 A 
ATOM      2  C   LIG    1       24.519 -22.839   6.913  0.00  0.00    +0.137 A 
ATOM      3  N   LIG    1       23.412 -23.008   6.144  0.00  0.00    -0.239 NA
ATOM      4  C   LIG    1       22.659 -21.944   5.805  0.00  0.00    +0.113 A 
ATOM      5  C   LIG    1       22.934 -20.662   6.220  0.00  0.00    +0.021 A 
ATOM      6  C   LIG    1       24.058 -20.468   7.014  0.00  0.00    +0.020 A 
ENDROOT
BRANCH   1   8
ATOM      7  O   LIG    1       26.454 -21.987   9.132  0.00  0.00    -0.245 OA
ATOM      8  C   LIG    1       26.127 -21.335   8.154  0.00  0.00    +0.346 C 
BRANCH   8   9
ATOM      9  O   LIG    1       26.820 -20.288   7.643  0.00  0.00    -0.417 OA
BRANCH   9  10
ATOM     10  C   LIG    1       27.807 -20.624   6.670  0.00  0.00    +0.403 C 
ATOM     11  C   LIG    1       29.137 -20.579   7.335  0.00  0.00    +0.047 A 
ATOM     12  C   LIG    1       29.855 -19.519   6.826  0.00  0.00    +0.069 A 
ATOM     13  C   LIG    1       31.115 -19.174   7.279  0.00  0.00    +0.015 A 
ATOM     14  C   LIG    1       31.671 -19.955   8.292  0.00  0.00    +0.001 A 
ATOM     15  C   LIG    1       30.965 -21.057   8.805  0.00  0.00    +0.001 A 
ATOM     16  C   LIG    1       29.069 -18.883   5.774  0.00  0.00    +0.343 C 
ATOM     17  O   LIG    1       29.397 -17.929   5.114  0.00  0.00    -0.245 OA
ATOM     18  C   LIG    1       29.688 -21.376   8.326  0.00  0.00    +0.012 A 
ATOM     19  O   LIG    1       27.909 -19.596   5.667  0.00  0.00    -0.417 OA
ENDBRANCH   9  10
ENDBRANCH   8   9
ENDBRANCH   1   8
BRANCH   2  20
ATOM     20  N   LIG    1       25.356 -23.949   7.139  0.00  0.00    -0.299 N 
ATOM     21  H   LIG    1       25.906 -23.875   7.991  0.00  0.00    +0.154 HD
BRANCH  20  22
ATOM     22  C   LIG    1       25.438 -25.200   6.504  0.00  0.00    +0.033 A 
ATOM     23  C   LIG    1       25.346 -26.422   7.177  0.00  0.00    +0.035 A 
ATOM     24  C   LIG    1       25.301 -27.651   6.498  0.00  0.00    +0.057 A 
ATOM     25  C   LIG    1       25.330 -27.655   5.100  0.00  0.00    +0.012 A 
ATOM     26  C   LIG    1       25.397 -26.449   4.403  0.00  0.00    +0.002 A 
ATOM     27  C   LIG    1       25.449 -25.237   5.101  0.00  0.00    +0.023 A 
BRANCH  24  28
ATOM     28  C   LIG    1       25.203 -28.920   7.302  0.00  0.00    +0.417 C 
ATOM     29  F   LIG    1       26.029 -28.921   8.386  0.00  0.00    -0.166 F 
ATOM     30  F   LIG    1       25.537 -30.025   6.578  0.00  0.00    -0.166 F 
ATOM     31  F   LIG    1       23.953 -29.163   7.789  0.00  0.00    -0.166 F 
ENDBRANCH  24  28
ENDBRANCH  20  22
ENDBRANCH   2  20
TORSDOF 6
ENDMDL
MODEL 5
REMARK VINA RESULT:      -9.2      2.045      5.058
REMARK  Name = *****
REMARK                            x       y       z     vdW  Elec       q    Type
REMARK                         _______ _______ _______ _____ _____    ______ ____
ROOT
ATOM      1  C   LIG    1       25.246 -23.193   7.226  0.00  0.00    +0.099 A 
ATOM      2  C   LIG    1       24.240 -23.288   6.247  0.00  0.00    +0.137 A 
ATOM      3  N   LIG    1       23.982 -24.479   5.646  0.00  0.00    -0.239 NA
ATOM      4  C   LIG    1       24.687 -25.574   5.990  0.00  0.00    +0.113 A 
ATOM      5  C   LIG    1       25.697 -25.558   6.923  0.00  0.00    +0.021 A 
ATOM      6  C   LIG    1       25.983 -24.349   7.544  0.00  0.00    +0.020 A 
ENDROOT
BRANCH   1   8
ATOM      7  O   LIG    1       24.655 -21.077   8.210  0.00  0.00    -0.245 OA
ATOM      8  C   LIG    1       25.506 -21.911   7.946  0.00  0.00    +0.346 C 
BRANCH   8   9
ATOM      9  O   LIG    1       26.825 -21.801   8.234  0.00  0.00    -0.417 OA
BRANCH   9  10
ATOM     10  C   LIG    1       27.701 -21.825   7.109  0.00  0.00    +0.403 C 
ATOM     11  C   LIG    1       28.972 -21.160   7.504  0.00  0.00    +0.047 A 
ATOM     12  C   LIG    1       29.086 -19.972   6.816  0.00  0.00    +0.069 A 
ATOM     13  C   LIG    1       30.136 -19.091   7.003  0.00  0.00    +0.015 A 
ATOM     14  C   LIG    1       31.117 -19.444   7.928  0.00  0.00    +0.001 A 
ATOM     15  C   LIG    1       31.030 -20.666   8.619  0.00  0.00    +0.001 A 
ATOM     16  C   LIG    1       27.955 -19.847   5.903  0.00  0.00    +0.343 C 
ATOM     17  O   LIG    1       27.744 -18.933   5.147  0.00  0.00    -0.245 OA
ATOM     18  C   LIG    1       29.952 -21.534   8.410  0.00  0.00    +0.012 A 
ATOM     19  O   LIG    1       27.204 -20.978   6.055  0.00  0.00    -0.417 OA
ENDBRANCH   9  10
ENDBRANCH   8   9
ENDBRANCH   1   8
BRANCH   2  20
ATOM     20  N   LIG    1       23.400 -22.195   5.960  0.00  0.00    -0.299 N 
ATOM     21  H   LIG    1       22.608 -22.115   6.593  0.00  0.00    +0.154 HD
BRANCH  20  22
ATOM     22  C   LIG    1       23.550 -21.109   5.080  0.00  0.00    +0.033 A 
ATOM     23  C   LIG    1       22.784 -19.942   5.148  0.00  0.00    +0.035 A 
ATOM     24  C   LIG    1       23.047 -18.824   4.339  0.00  0.00    +0.057 A 
ATOM     25  C   LIG    1       24.122 -18.870   3.447  0.00  0.00    +0.012 A 
ATOM     26  C   LIG    1       24.918 -20.013   3.377  0.00  0.00    +0.002 A 
ATOM     27  C   LIG    1       24.632 -21.117   4.187  0.00  0.00    +0.023 A 
BRANCH  24  28
ATOM     28  C   LIG    1       22.169 -17.607   4.475  0.00  0.00    +0.417 C 
ATOM     29  F   LIG    1       20.973 -17.747   3.836  0.00  0.00    -0.166 F 
ATOM     30  F   LIG    1       22.743 -16.488   3.953  0.00  0.00    -0.166 F 
ATOM     31  F   LIG    1       21.864 -17.297   5.767  0.00  0.00    -0.166 F 
ENDBRANCH  24  28
ENDBRANCH  20  22
ENDBRANCH   2  20
TORSDOF 6
ENDMDL
MODEL 6
REMARK VINA RESULT:      -9.1      3.370      7.221
REMARK  Name = *****
REMARK                            x       y       z     vdW  Elec       q    Type
REMARK                         _______ _______ _______ _____ _____    ______ ____
ROOT
ATOM      1  C   LIG    1       27.365 -20.212   6.767  0.00  0.00    +0.099 A 
ATOM      2  C   LIG    1       26.128 -20.723   6.336  0.00  0.00    +0.137 A 
ATOM      3  N   LIG    1       25.638 -20.388   5.114  0.00  0.00    -0.239 NA
ATOM      4  C   LIG    1       26.340 -19.568   4.309  0.00  0.00    +0.113 A 
ATOM      5  C   LIG    1       27.546 -19.012   4.665  0.00  0.00    +0.021 A 
ATOM      6  C   LIG    1       28.062 -19.336   5.914  0.00  0.00    +0.020 A 
ENDROOT
BRANCH   1   8
ATOM      7  O   LIG    1       27.825 -21.715   8.590  0.00  0.00    -0.245 OA
ATOM      8  C   LIG    1       27.955 -20.615   8.078  0.00  0.00    +0.346 C 
BRANCH   8   9
ATOM      9  O   LIG    1       28.628 -19.573   8.622  0.00  0.00    -0.417 OA
BRANCH   9  10
ATOM     10  C   LIG    1       29.973 -19.847   9.009  0.00  0.00    +0.403 C 
ATOM     11  C   LIG    1       30.558 -18.591   9.549  0.00  0.00    +0.047 A 
ATOM     12  C   LIG    1       31.529 -18.141   8.681  0.00  0.00    +0.069 A 
ATOM     13  C   LIG    1       32.226 -16.962   8.873  0.00  0.00    +0.015 A 
ATOM     14  C   LIG    1       31.923 -16.213  10.009  0.00  0.00    +0.001 A 
ATOM     15  C   LIG    1       30.954 -16.669  10.920  0.00  0.00    +0.001 A 
ATOM     16  C   LIG    1       31.670 -19.106   7.595  0.00  0.00    +0.343 C 
ATOM     17  O   LIG    1       32.433 -19.029   6.666  0.00  0.00    -0.245 OA
ATOM     18  C   LIG    1       30.263 -17.867  10.694  0.00  0.00    +0.012 A 
ATOM     19  O   LIG    1       30.792 -20.119   7.856  0.00  0.00    -0.417 OA
ENDBRANCH   9  10
ENDBRANCH   8   9
ENDBRANCH   1   8
BRANCH   2  20
ATOM     20  N   LIG    1       25.434 -21.684   7.098  0.00  0.00    -0.299 N 
ATOM     21  H   LIG    1       25.154 -21.347   8.016  0.00  0.00    +0.154 HD
BRANCH  20  22
ATOM     22  C   LIG    1       24.914 -22.945   6.759  0.00  0.00    +0.033 A 
ATOM     23  C   LIG    1       25.703 -24.079   6.546  0.00  0.00    +0.035 A 
ATOM     24  C   LIG    1       25.146 -25.352   6.339  0.00  0.00    +0.057 A 
ATOM     25  C   LIG    1       23.755 -25.496   6.364  0.00  0.00    +0.012 A 
ATOM     26  C   LIG    1       22.946 -24.386   6.599  0.00  0.00    +0.002 A 
ATOM     27  C   LIG    1       23.523 -23.126   6.795  0.00  0.00    +0.023 A 
BRANCH  24  28
ATOM     28  C   LIG    1       26.070 -26.520   6.115  0.00  0.00    +0.417 C 
ATOM     29  F   LIG    1       25.782 -27.208   4.974  0.00  0.00    -0.166 F 
ATOM     30  F   LIG    1       26.013 -27.433   7.125  0.00  0.00    -0.166 F 
ATOM     31  F   LIG    1       27.382 -26.166   6.012  0.00  0.00    -0.166 F 
ENDBRANCH  24  28
ENDBRANCH  20  22
ENDBRANCH   2  20
TORSDOF 6
ENDMDL
MODEL 7
REMARK VINA RESULT:      -9.1      5.761      8.364
REMARK  Name = *****
REMARK                            x       y       z     vdW  Elec       q    Type
REMARK                         _______ _______ _______ _____ _____    ______ ____
ROOT
ATOM      1  C   LIG    1       26.013 -29.639   9.614  0.00  0.00    +0.099 A 
ATOM      2  C   LIG    1       25.686 -29.150   8.336  0.00  0.00    +0.137 A 
ATOM      3  N   LIG    1       24.662 -29.702   7.634  0.00  0.00    -0.239 NA
ATOM      4  C   LIG    1       23.953 -30.717   8.164  0.00  0.00    +0.113 A 
ATOM      5  C   LIG    1       24.222 -31.263   9.398  0.00  0.00    +0.021 A 
ATOM      6  C   LIG    1       25.271 -30.718  10.129  0.00  0.00    +0.020 A 
ENDROOT
BRANCH   1   8
ATOM      7  O   LIG    1       28.194 -29.495  10.623  0.00  0.00    -0.245 OA
ATOM      8  C   LIG    1       27.092 -29.008  10.431  0.00  0.00    +0.346 C 
BRANCH   8   9
ATOM      9  O   LIG    1       26.654 -27.835  10.949  0.00  0.00    -0.417 OA
BRANCH   9  10
ATOM     10  C   LIG    1       26.588 -27.780  12.372  0.00  0.00    +0.403 C 
ATOM     11  C   LIG    1       25.160 -27.617  12.757  0.00  0.00    +0.047 A 
ATOM     12  C   LIG    1       24.984 -26.361  13.296  0.00  0.00    +0.069 A 
ATOM     13  C   LIG    1       23.752 -25.882  13.703  0.00  0.00    +0.015 A 
ATOM     14  C   LIG    1       22.653 -26.728  13.563  0.00  0.00    +0.001 A 
ATOM     15  C   LIG    1       22.818 -28.023  13.040  0.00  0.00    +0.001 A 
ATOM     16  C   LIG    1       26.278 -25.690  13.354  0.00  0.00    +0.343 C 
ATOM     17  O   LIG    1       26.489 -24.581  13.775  0.00  0.00    -0.245 OA
ATOM     18  C   LIG    1       24.080 -28.476  12.633  0.00  0.00    +0.012 A 
ATOM     19  O   LIG    1       27.199 -26.574  12.867  0.00  0.00    -0.417 OA
ENDBRANCH   9  10
ENDBRANCH   8   9
ENDBRANCH   1   8
BRANCH   2  20
ATOM     20  N   LIG    1       26.321 -28.008   7.811  0.00  0.00    -0.299 N 
ATOM     21  H   LIG    1       27.318 -27.972   8.009  0.00  0.00    +0.154 HD
BRANCH  20  22
ATOM     22  C   LIG    1       25.869 -27.012   6.929  0.00  0.00    +0.033 A 
ATOM     23  C   LIG    1       25.686 -25.675   7.294  0.00  0.00    +0.035 A 
ATOM     24  C   LIG    1       25.359 -24.679   6.357  0.00  0.00    +0.057 A 
ATOM     25  C   LIG    1       25.231 -25.031   5.011  0.00  0.00    +0.012 A 
ATOM     26  C   LIG    1       25.433 -26.353   4.616  0.00  0.00    +0.002 A 
ATOM     27  C   LIG    1       25.750 -27.329   5.567  0.00  0.00    +0.023 A 
BRANCH  24  28
ATOM     28  C   LIG    1       25.177 -23.264   6.838  0.00  0.00    +0.417 C 
ATOM     29  F   LIG    1       25.407 -22.342   5.860  0.00  0.00    -0.166 F 
ATOM     30  F   LIG    1       26.023 -22.945   7.857  0.00  0.00    -0.166 F 
ATOM     31  F   LIG    1       23.923 -23.003   7.305  0.00  0.00    -0.166 F 
ENDBRANCH  24  28
ENDBRANCH  20  22
ENDBRANCH   2  20
TORSDOF 6
ENDMDL
MODEL 8
REMARK VINA RESULT:      -9.0      2.462      5.318
REMARK  Name = *****
REMARK                            x       y       z     vdW  Elec       q    Type
REMARK                         _______ _______ _______ _____ _____    ______ ____
ROOT
ATOM      1  C   LIG    1       25.702 -22.685   7.227  0.00  0.00    +0.099 A 
ATOM      2  C   LIG    1       24.583 -22.530   6.388  0.00  0.00    +0.137 A 
ATOM      3  N   LIG    1       24.204 -23.537   5.560  0.00  0.00    -0.239 NA
ATOM      4  C   LIG    1       24.897 -24.692   5.544  0.00  0.00    +0.113 A 
ATOM      5  C   LIG    1       26.012 -24.914   6.319  0.00  0.00    +0.021 A 
ATOM      6  C   LIG    1       26.421 -23.893   7.167  0.00  0.00    +0.020 A 
ENDROOT
BRANCH   1   8
ATOM      7  O   LIG    1       25.923 -21.669   9.398  0.00  0.00    -0.245 OA
ATOM      8  C   LIG    1       26.100 -21.617   8.192  0.00  0.00    +0.346 C 
BRANCH   8   9
ATOM      9  O   LIG    1       26.656 -20.577   7.526  0.00  0.00    -0.417 OA
BRANCH   9  10
ATOM     10  C   LIG    1       27.725 -20.916   6.645  0.00  0.00    +0.403 C 
ATOM     11  C   LIG    1       28.985 -20.924   7.437  0.00  0.00    +0.047 A 
ATOM     12  C   LIG    1       29.775 -19.872   7.030  0.00  0.00    +0.069 A 
ATOM     13  C   LIG    1       30.993 -19.574   7.613  0.00  0.00    +0.015 A 
ATOM     14  C   LIG    1       31.428 -20.395   8.653  0.00  0.00    +0.001 A 
ATOM     15  C   LIG    1       30.647 -21.490   9.063  0.00  0.00    +0.001 A 
ATOM     16  C   LIG    1       29.113 -19.188   5.924  0.00  0.00    +0.343 C 
ATOM     17  O   LIG    1       29.528 -18.227   5.327  0.00  0.00    -0.245 OA
ATOM     18  C   LIG    1       29.415 -21.761   8.454  0.00  0.00    +0.012 A 
ATOM     19  O   LIG    1       27.951 -19.865   5.686  0.00  0.00    -0.417 OA
ENDBRANCH   9  10
ENDBRANCH   8   9
ENDBRANCH   1   8
BRANCH   2  20
ATOM     20  N   LIG    1       23.762 -21.388   6.476  0.00  0.00    -0.299 N 
ATOM     21  H   LIG    1       23.315 -21.279   7.384  0.00  0.00    +0.154 HD
BRANCH  20  22
ATOM     22  C   LIG    1       23.589 -20.295   5.610  0.00  0.00    +0.033 A 
ATOM     23  C   LIG    1       24.636 -19.673   4.924  0.00  0.00    +0.035 A 
ATOM     24  C   LIG    1       24.413 -18.669   3.966  0.00  0.00    +0.057 A 
ATOM     25  C   LIG    1       23.100 -18.290   3.674  0.00  0.00    +0.012 A 
ATOM     26  C   LIG    1       22.036 -18.912   4.325  0.00  0.00    +0.002 A 
ATOM     27  C   LIG    1       22.282 -19.904   5.281  0.00  0.00    +0.023 A 
BRANCH  24  28
ATOM     28  C   LIG    1       25.600 -18.050   3.276  0.00  0.00    +0.417 C 
ATOM     29  F   LIG    1       25.905 -18.667   2.099  0.00  0.00    -0.166 F 
ATOM     30  F   LIG    1       26.732 -18.107   4.031  0.00  0.00    -0.166 F 
ATOM     31  F   LIG    1       25.427 -16.734   2.968  0.00  0.00    -0.166 F 
ENDBRANCH  24  28
ENDBRANCH  20  22
ENDBRANCH   2  20
TORSDOF 6
ENDMDL
MODEL 9
REMARK VINA RESULT:      -9.0      4.318      6.398
REMARK  Name = *****
REMARK                            x       y       z     vdW  Elec       q    Type
REMARK                         _______ _______ _______ _____ _____    ______ ____
ROOT
ATOM      1  C   LIG    1       24.672 -24.144   6.664  0.00  0.00    +0.099 A 
ATOM      2  C   LIG    1       25.140 -22.887   7.089  0.00  0.00    +0.137 A 
ATOM      3  N   LIG    1       24.262 -21.891   7.375  0.00  0.00    -0.239 NA
ATOM      4  C   LIG    1       22.938 -22.106   7.258  0.00  0.00    +0.113 A 
ATOM      5  C   LIG    1       22.402 -23.299   6.831  0.00  0.00    +0.021 A 
ATOM      6  C   LIG    1       23.283 -24.329   6.524  0.00  0.00    +0.020 A 
ENDROOT
BRANCH   1   8
ATOM      7  O   LIG    1       26.665 -25.176   5.794  0.00  0.00    -0.245 OA
ATOM      8  C   LIG    1       25.613 -25.274   6.404  0.00  0.00    +0.346 C 
BRANCH   8   9
ATOM      9  O   LIG    1       25.109 -26.422   6.918  0.00  0.00    -0.417 OA
BRANCH   9  10
ATOM     10  C   LIG    1       26.043 -27.490   7.059  0.00  0.00    +0.403 C 
ATOM     11  C   LIG    1       25.288 -28.770   6.991  0.00  0.00    +0.047 A 
ATOM     12  C   LIG    1       25.318 -29.372   8.230  0.00  0.00    +0.069 A 
ATOM     13  C   LIG    1       24.659 -30.555   8.509  0.00  0.00    +0.015 A 
ATOM     14  C   LIG    1       23.944 -31.155   7.473  0.00  0.00    +0.001 A 
ATOM     15  C   LIG    1       23.924 -30.568   6.195  0.00  0.00    +0.001 A 
ATOM     16  C   LIG    1       26.142 -28.566   9.124  0.00  0.00    +0.343 C 
ATOM     17  O   LIG    1       26.386 -28.804  10.280  0.00  0.00    -0.245 OA
ATOM     18  C   LIG    1       24.599 -29.366   5.947  0.00  0.00    +0.012 A 
ATOM     19  O   LIG    1       26.601 -27.511   8.387  0.00  0.00    -0.417 OA
ENDBRANCH   9  10
ENDBRANCH   8   9
ENDBRANCH   1   8
BRANCH   2  20
ATOM     20  N   LIG    1       26.508 -22.672   7.346  0.00  0.00    -0.299 N 
ATOM     21  H   LIG    1       27.001 -23.509   7.648  0.00  0.00    +0.154 HD
BRANCH  20  22
ATOM     22  C   LIG    1       27.341 -21.567   7.100  0.00  0.00    +0.033 A 
ATOM     23  C   LIG    1       28.578 -21.372   7.722  0.00  0.00    +0.035 A 
ATOM     24  C   LIG    1       29.445 -20.328   7.357  0.00  0.00    +0.057 A 
ATOM     25  C   LIG    1       29.068 -19.464   6.324  0.00  0.00    +0.012 A 
ATOM     26  C   LIG    1       27.852 -19.651   5.670  0.00  0.00    +0.002 A 
ATOM     27  C   LIG    1       27.001 -20.694   6.056  0.00  0.00    +0.023 A 
BRANCH  24  28
ATOM     28  C   LIG    1       30.758 -20.189   8.081  0.00  0.00    +0.417 C 
ATOM     29  F   LIG    1       30.676 -19.368   9.167  0.00  0.00    -0.166 F 
ATOM     30  F   LIG    1       31.737 -19.666   7.292  0.00  0.00    -0.166 F 
ATOM     31  F   LIG    1       31.251 -21.370   8.548  0.00  0.00    -0.166 F 
ENDBRANCH  24  28
ENDBRANCH  20  22
ENDBRANCH   2  20
TORSDOF 6
ENDMDL
