MODEL 1
REMARK VINA RESULT:       6.0      0.000      0.000
REMARK  Name = *****
REMARK                            x       y       z     vdW  Elec       q    Type
REMARK                         _______ _______ _______ _____ _____    ______ ____
ROOT
ATOM      1  O   LIG    1       23.217 -11.506   3.227  0.00  0.00    -0.293 OA
ATOM      2  C   LIG    1       24.218 -12.225   3.270  0.00  0.00    +0.174 C 
ATOM      3  C   LIG    1       24.819 -12.714   4.607  0.00  0.00    +0.253 C 
ATOM      4  O   LIG    1       23.741 -13.029   5.545  0.00  0.00    -0.476 OA
ATOM      5  C   LIG    1       23.477 -14.356   5.294  0.00  0.00    +0.167 A 
ATOM      6  C   LIG    1       24.516 -14.971   4.631  0.00  0.00    +0.014 A 
ATOM      7  C   LIG    1       24.398 -16.255   4.038  0.00  0.00    -0.038 A 
ATOM      8  C   LIG    1       23.214 -16.951   4.262  0.00  0.00    +0.008 A 
ATOM      9  C   LIG    1       22.186 -16.356   5.028  0.00  0.00    +0.049 A 
ATOM     10  C   LIG    1       25.573 -16.789   3.173  0.00  0.00    +0.057 C 
ATOM     11  C   LIG    1       26.728 -15.805   3.471  0.00  0.00    +0.093 C 
ATOM     12  N   LIG    1       28.135 -15.736   3.903  0.00  0.00    -0.296 NA
ATOM     13  C   LIG    1       28.117 -14.972   5.231  0.00  0.00    +0.086 C 
ATOM     14  C   LIG    1       26.811 -14.082   5.580  0.00  0.00    +0.034 C 
ATOM     15  C   LIG    1       26.308 -14.310   3.155  0.00  0.00    +0.096 C 
ATOM     16  C   LIG    1       25.409 -14.012   1.950  0.00  0.00    +0.045 C 
ATOM     17  C   LIG    1       22.313 -15.052   5.535  0.00  0.00    +0.159 A 
ATOM     18  C   LIG    1       25.669 -13.982   4.482  0.00  0.00    +0.075 C 
ATOM     19  C   LIG    1       24.960 -12.551   1.988  0.00  0.00    +0.081 C 
ENDROOT
BRANCH  15  20
ATOM     20  O   LIG    1       27.460 -13.464   2.949  0.00  0.00    -0.386 OA
ATOM     21  H   LIG    1       27.106 -12.672   2.485  0.00  0.00    +0.210 HD
ENDBRANCH  15  20
BRANCH  17  22
ATOM     22  O   LIG    1       21.300 -14.457   6.222  0.00  0.00    -0.503 OA
ATOM     23  H   LIG    1       21.517 -14.448   7.167  0.00  0.00    +0.292 HD
ENDBRANCH  17  22
BRANCH  12  24
ATOM     24  C   LIG    1       28.738 -17.067   4.023  0.00  0.00    +0.088 C 
BRANCH  24  25
ATOM     25  C   LIG    1       28.448 -17.658   5.370  0.00  0.00    +0.003 C 
ATOM     26  C   LIG    1       28.195 -19.138   5.526  0.00  0.00    +0.005 C 
ATOM     27  C   LIG    1       29.475 -18.541   6.034  0.00  0.00    +0.005 C 
ENDBRANCH  24  25
ENDBRANCH  12  24
TORSDOF 4
ENDMDL
