MODEL 1
REMARK VINA RESULT:      -2.1      0.000      0.000
REMARK  Name = *****
REMARK                            x       y       z     vdW  Elec       q    Type
REMARK                         _______ _______ _______ _____ _____    ______ ____
ROOT
ATOM      1  C   LIG    1       25.500 -19.760   3.668  0.00  0.00    +0.088 C 
ATOM      2  C   LIG    1       25.187 -18.284   3.700  0.00  0.00    +0.004 A 
ATOM      3  C   LIG    1       23.959 -17.813   4.120  0.00  0.00    +0.132 A 
ATOM      4  S   LIG    1       23.825 -16.124   4.057  0.00  0.00    -0.050 S 
ATOM      5  C   LIG    1       25.410 -15.965   3.438  0.00  0.00    +0.144 A 
ATOM      6  S   LIG    1       22.533 -18.733   4.622  0.00  0.00    +0.006 S 
ATOM      7  O   LIG    1       22.331 -18.409   6.018  0.00  0.00    -0.169 OA
ATOM      8  O   LIG    1       21.545 -18.452   3.601  0.00  0.00    -0.169 OA
ATOM      9  C   LIG    1       23.116 -20.434   4.459  0.00  0.00    +0.135 C 
ATOM     10  C   LIG    1       21.936 -21.356   4.164  0.00  0.00    +0.032 C 
ATOM     11  C   LIG    1       26.032 -17.197   3.305  0.00  0.00    +0.043 A 
ATOM     12  C   LIG    1       24.206 -20.568   3.371  0.00  0.00    +0.050 C 
ENDROOT
BRANCH   5  13
ATOM     13  S   LIG    1       25.963 -14.311   3.080  0.00  0.00    +0.062 S 
ATOM     14  O   LIG    1       24.778 -13.498   3.230  0.00  0.00    -0.153 OA
ATOM     15  O   LIG    1       26.684 -14.434   1.838  0.00  0.00    -0.153 OA
BRANCH  13  16
ATOM     16  N   LIG    1       27.057 -13.822   4.256  0.00  0.00    -0.203 NA
ATOM     17  H   LIG    1       27.984 -13.652   3.870  0.00  0.00    +0.144 HD
ATOM     18  H   LIG    1       26.690 -13.062   4.826  0.00  0.00    +0.144 HD
ENDBRANCH  13  16
ENDBRANCH   5  13
BRANCH   1  19
ATOM     19  N   LIG    1       26.094 -20.083   4.968  0.00  0.00    -0.309 NA
ATOM     20  H   LIG    1       25.577 -19.591   5.701  0.00  0.00    +0.122 HD
BRANCH  19  22
ATOM     21  C   LIG    1       28.078 -20.129   6.422  0.00  0.00    +0.020 C 
ATOM     22  C   LIG    1       27.508 -19.714   5.071  0.00  0.00    +0.078 C 
ENDBRANCH  19  22
ENDBRANCH   1  19
TORSDOF 4
ENDMDL
MODEL 2
REMARK VINA RESULT:      -2.1      0.820      1.052
REMARK  Name = *****
REMARK                            x       y       z     vdW  Elec       q    Type
REMARK                         _______ _______ _______ _____ _____    ______ ____
ROOT
ATOM      1  C   LIG    1       25.487 -19.754   3.659  0.00  0.00    +0.088 C 
ATOM      2  C   LIG    1       25.179 -18.277   3.696  0.00  0.00    +0.004 A 
ATOM      3  C   LIG    1       23.953 -17.803   4.119  0.00  0.00    +0.132 A 
ATOM      4  S   LIG    1       23.824 -16.114   4.061  0.00  0.00    -0.050 S 
ATOM      5  C   LIG    1       25.408 -15.958   3.440  0.00  0.00    +0.144 A 
ATOM      6  S   LIG    1       22.524 -18.721   4.620  0.00  0.00    +0.006 S 
ATOM      7  O   LIG    1       22.324 -18.401   6.017  0.00  0.00    -0.169 OA
ATOM      8  O   LIG    1       21.537 -18.434   3.600  0.00  0.00    -0.169 OA
ATOM      9  C   LIG    1       23.102 -20.423   4.451  0.00  0.00    +0.135 C 
ATOM     10  C   LIG    1       21.919 -21.340   4.154  0.00  0.00    +0.032 C 
ATOM     11  C   LIG    1       26.026 -17.191   3.304  0.00  0.00    +0.043 A 
ATOM     12  C   LIG    1       24.190 -20.557   3.361  0.00  0.00    +0.050 C 
ENDROOT
BRANCH   5  13
ATOM     13  S   LIG    1       25.966 -14.305   3.086  0.00  0.00    +0.062 S 
ATOM     14  O   LIG    1       26.674 -14.427   1.833  0.00  0.00    -0.153 OA
ATOM     15  O   LIG    1       26.592 -13.866   4.308  0.00  0.00    -0.153 OA
BRANCH  13  16
ATOM     16  N   LIG    1       24.637 -13.315   2.814  0.00  0.00    -0.203 NA
ATOM     17  H   LIG    1       24.793 -12.364   3.145  0.00  0.00    +0.144 HD
ATOM     18  H   LIG    1       24.303 -13.380   1.854  0.00  0.00    +0.144 HD
ENDBRANCH  13  16
ENDBRANCH   5  13
BRANCH   1  19
ATOM     19  N   LIG    1       26.082 -20.083   4.958  0.00  0.00    -0.309 NA
ATOM     20  H   LIG    1       25.561 -19.599   5.693  0.00  0.00    +0.122 HD
BRANCH  19  22
ATOM     21  C   LIG    1       28.065 -20.131   6.411  0.00  0.00    +0.020 C 
ATOM     22  C   LIG    1       27.493 -19.704   5.065  0.00  0.00    +0.078 C 
ENDBRANCH  19  22
ENDBRANCH   1  19
TORSDOF 4
ENDMDL
MODEL 3
REMARK VINA RESULT:      -0.0      2.803      6.519
REMARK  Name = *****
REMARK                            x       y       z     vdW  Elec       q    Type
REMARK                         _______ _______ _______ _____ _____    ______ ____
ROOT
ATOM      1  C   LIG    1       23.543 -14.352   3.690  0.00  0.00    +0.088 C 
ATOM      2  C   LIG    1       24.362 -15.619   3.719  0.00  0.00    +0.004 A 
ATOM      3  C   LIG    1       25.729 -15.602   3.522  0.00  0.00    +0.132 A 
ATOM      4  S   LIG    1       26.439 -17.140   3.579  0.00  0.00    -0.050 S 
ATOM      5  C   LIG    1       24.927 -17.891   3.846  0.00  0.00    +0.144 A 
ATOM      6  S   LIG    1       26.777 -14.225   3.152  0.00  0.00    +0.006 S 
ATOM      7  O   LIG    1       27.661 -14.090   4.290  0.00  0.00    -0.169 OA
ATOM      8  O   LIG    1       27.258 -14.488   1.812  0.00  0.00    -0.169 OA
ATOM      9  C   LIG    1       25.596 -12.860   3.122  0.00  0.00    +0.135 C 
ATOM     10  C   LIG    1       26.099 -11.765   2.186  0.00  0.00    +0.032 C 
ATOM     11  C   LIG    1       23.901 -16.961   3.910  0.00  0.00    +0.043 A 
ATOM     12  C   LIG    1       24.182 -13.330   2.709  0.00  0.00    +0.050 C 
ENDROOT
BRANCH   5  13
ATOM     13  S   LIG    1       24.932 -19.665   3.984  0.00  0.00    +0.062 S 
ATOM     14  O   LIG    1       24.806 -20.130   2.621  0.00  0.00    -0.153 OA
ATOM     15  O   LIG    1       23.959 -19.950   5.008  0.00  0.00    -0.153 OA
BRANCH  13  16
ATOM     16  N   LIG    1       26.428 -20.176   4.549  0.00  0.00    -0.203 NA
ATOM     17  H   LIG    1       26.378 -21.092   4.993  0.00  0.00    +0.144 HD
ATOM     18  H   LIG    1       27.155 -20.088   3.841  0.00  0.00    +0.144 HD
ENDBRANCH  13  16
ENDBRANCH   5  13
BRANCH   1  19
ATOM     19  N   LIG    1       23.489 -13.866   5.072  0.00  0.00    -0.309 NA
ATOM     20  H   LIG    1       22.515 -13.672   5.318  0.00  0.00    +0.122 HD
BRANCH  19  22
ATOM     21  C   LIG    1       23.360 -11.462   5.574  0.00  0.00    +0.020 C 
ATOM     22  C   LIG    1       24.273 -12.648   5.293  0.00  0.00    +0.078 C 
ENDBRANCH  19  22
ENDBRANCH   1  19
TORSDOF 4
ENDMDL
MODEL 4
REMARK VINA RESULT:       0.5      2.719      5.864
REMARK  Name = *****
REMARK                            x       y       z     vdW  Elec       q    Type
REMARK                         _______ _______ _______ _____ _____    ______ ____
ROOT
ATOM      1  C   LIG    1       26.994 -14.729   4.005  0.00  0.00    +0.088 C 
ATOM      2  C   LIG    1       26.037 -15.886   3.846  0.00  0.00    +0.004 A 
ATOM      3  C   LIG    1       24.668 -15.702   3.871  0.00  0.00    +0.132 A 
ATOM      4  S   LIG    1       23.790 -17.141   3.692  0.00  0.00    -0.050 S 
ATOM      5  C   LIG    1       25.221 -18.070   3.599  0.00  0.00    +0.144 A 
ATOM      6  S   LIG    1       23.756 -14.209   4.137  0.00  0.00    +0.006 S 
ATOM      7  O   LIG    1       23.046 -13.959   2.901  0.00  0.00    -0.169 OA
ATOM      8  O   LIG    1       23.081 -14.420   5.400  0.00  0.00    -0.169 OA
ATOM      9  C   LIG    1       25.081 -13.000   4.345  0.00  0.00    +0.135 C 
ATOM     10  C   LIG    1       24.600 -11.857   5.235  0.00  0.00    +0.032 C 
ATOM     11  C   LIG    1       26.352 -17.273   3.684  0.00  0.00    +0.043 A 
ATOM     12  C   LIG    1       26.363 -13.643   4.921  0.00  0.00    +0.050 C 
ENDROOT
BRANCH   5  13
ATOM     13  S   LIG    1       25.018 -19.829   3.422  0.00  0.00    +0.062 S 
ATOM     14  O   LIG    1       25.475 -20.108   2.079  0.00  0.00    -0.153 OA
ATOM     15  O   LIG    1       23.671 -20.083   3.866  0.00  0.00    -0.153 OA
BRANCH  13  16
ATOM     16  N   LIG    1       26.058 -20.619   4.477  0.00  0.00    -0.203 NA
ATOM     17  H   LIG    1       25.616 -20.823   5.372  0.00  0.00    +0.144 HD
ATOM     18  H   LIG    1       26.513 -21.418   4.038  0.00  0.00    +0.144 HD
ENDBRANCH  13  16
ENDBRANCH   5  13
BRANCH   1  19
ATOM     19  N   LIG    1       27.280 -14.244   2.652  0.00  0.00    -0.309 NA
ATOM     20  H   LIG    1       27.832 -14.950   2.157  0.00  0.00    +0.122 HD
BRANCH  19  22
ATOM     21  C   LIG    1       29.082 -12.956   3.721  0.00  0.00    +0.020 C 
ATOM     22  C   LIG    1       28.019 -12.979   2.629  0.00  0.00    +0.078 C 
ENDBRANCH  19  22
ENDBRANCH   1  19
TORSDOF 4
ENDMDL
