MODEL 1
REMARK VINA RESULT:      -5.5      0.000      0.000
REMARK  Name = *****
REMARK                            x       y       z     vdW  Elec       q    Type
REMARK                         _______ _______ _______ _____ _____    ______ ____
ROOT
ATOM      1  N   LIG    1       27.373 -16.412   3.668  0.00  0.00    -0.301 N 
ATOM      2  H   LIG    1       28.373 -16.292   3.550  0.00  0.00    +0.150 HD
ATOM      3  C   LIG    1       26.515 -15.374   3.428  0.00  0.00    +0.231 C 
ATOM      4  O   LIG    1       25.325 -15.434   3.739  0.00  0.00    -0.274 OA
ENDROOT
BRANCH   1   5
ATOM      5  C   LIG    1       26.913 -17.679   4.261  0.00  0.00    +0.186 C 
BRANCH   5   6
ATOM      6  C   LIG    1       28.086 -18.496   4.861  0.00  0.00    +0.328 C 
ATOM      7  O   LIG    1       29.216 -18.087   5.000  0.00  0.00    -0.249 OA
BRANCH   6   9
ATOM      8  C   LIG    1       28.374 -20.363   6.332  0.00  0.00    +0.280 C 
ATOM      9  O   LIG    1       27.592 -19.690   5.336  0.00  0.00    -0.467 OA
ENDBRANCH   6   9
ENDBRANCH   5   6
BRANCH   5  10
ATOM     10  C   LIG    1       26.062 -18.534   3.281  0.00  0.00    +0.069 C 
BRANCH  10  11
ATOM     11  C   LIG    1       24.777 -19.127   3.835  0.00  0.00    -0.045 A 
ATOM     12  C   LIG    1       24.702 -20.470   4.236  0.00  0.00    +0.003 A 
ATOM     13  C   LIG    1       23.504 -20.996   4.738  0.00  0.00    +0.000 A 
ATOM     14  C   LIG    1       22.374 -20.189   4.855  0.00  0.00    +0.000 A 
ATOM     15  C   LIG    1       22.428 -18.866   4.440  0.00  0.00    +0.000 A 
ATOM     16  C   LIG    1       23.610 -18.355   3.904  0.00  0.00    +0.003 A 
ENDBRANCH  10  11
ENDBRANCH   5  10
ENDBRANCH   1   5
BRANCH   3  17
ATOM     17  C   LIG    1       27.122 -14.119   2.765  0.00  0.00    +0.148 C 
BRANCH  17  18
ATOM     18  N   LIG    1       26.105 -13.086   2.517  0.00  0.00    -0.320 NA
ATOM     19  H   LIG    1       26.523 -12.193   2.267  0.00  0.00    +0.119 HD
ATOM     20  H   LIG    1       25.508 -13.354   1.732  0.00  0.00    +0.119 HD
ENDBRANCH  17  18
BRANCH  17  21
ATOM     21  C   LIG    1       28.306 -13.568   3.570  0.00  0.00    +0.148 C 
BRANCH  21  22
ATOM     22  C   LIG    1       27.971 -12.922   4.894  0.00  0.00    +0.307 C 
ATOM     23  O   LIG    1       26.909 -13.135   5.489  0.00  0.00    -0.251 OA
BRANCH  22  24
ATOM     24  O   LIG    1       28.868 -12.048   5.379  0.00  0.00    -0.481 OA
ATOM     25  H   LIG    1       29.362 -12.366   6.176  0.00  0.00    +0.295 HD
ENDBRANCH  22  24
ENDBRANCH  21  22
ENDBRANCH  17  21
ENDBRANCH   3  17
TORSDOF 10
ENDMDL
MODEL 2
REMARK VINA RESULT:      -5.1      2.810      6.498
REMARK  Name = *****
REMARK                            x       y       z     vdW  Elec       q    Type
REMARK                         _______ _______ _______ _____ _____    ______ ____
ROOT
ATOM      1  N   LIG    1       26.121 -17.688   3.368  0.00  0.00    -0.301 N 
ATOM      2  H   LIG    1       27.040 -18.082   3.193  0.00  0.00    +0.150 HD
ATOM      3  C   LIG    1       25.043 -18.505   3.575  0.00  0.00    +0.231 C 
ATOM      4  O   LIG    1       23.894 -18.063   3.604  0.00  0.00    -0.274 OA
ENDROOT
BRANCH   1   5
ATOM      5  C   LIG    1       25.975 -16.231   3.221  0.00  0.00    +0.186 C 
BRANCH   5   6
ATOM      6  C   LIG    1       27.238 -15.472   3.703  0.00  0.00    +0.328 C 
ATOM      7  O   LIG    1       27.983 -15.851   4.577  0.00  0.00    -0.249 OA
BRANCH   6   9
ATOM      8  C   LIG    1       28.065 -13.237   3.464  0.00  0.00    +0.280 C 
ATOM      9  O   LIG    1       27.441 -14.388   2.878  0.00  0.00    -0.467 OA
ENDBRANCH   6   9
ENDBRANCH   5   6
BRANCH   5  10
ATOM     10  C   LIG    1       24.686 -15.681   3.892  0.00  0.00    +0.069 C 
BRANCH  10  11
ATOM     11  C   LIG    1       24.400 -14.199   3.705  0.00  0.00    -0.045 A 
ATOM     12  C   LIG    1       24.122 -13.362   4.797  0.00  0.00    +0.003 A 
ATOM     13  C   LIG    1       23.855 -12.001   4.598  0.00  0.00    +0.000 A 
ATOM     14  C   LIG    1       23.874 -11.458   3.315  0.00  0.00    +0.000 A 
ATOM     15  C   LIG    1       24.124 -12.280   2.225  0.00  0.00    +0.000 A 
ATOM     16  C   LIG    1       24.350 -13.642   2.420  0.00  0.00    +0.003 A 
ENDBRANCH  10  11
ENDBRANCH   5  10
ENDBRANCH   1   5
BRANCH   3  17
ATOM     17  C   LIG    1       25.343 -20.008   3.752  0.00  0.00    +0.148 C 
BRANCH  17  18
ATOM     18  N   LIG    1       26.418 -20.239   4.730  0.00  0.00    -0.320 NA
ATOM     19  H   LIG    1       26.122 -20.022   5.679  0.00  0.00    +0.119 HD
ATOM     20  H   LIG    1       26.693 -21.223   4.733  0.00  0.00    +0.119 HD
ENDBRANCH  17  18
BRANCH  17  21
ATOM     21  C   LIG    1       24.078 -20.803   4.102  0.00  0.00    +0.148 C 
BRANCH  21  22
ATOM     22  C   LIG    1       23.610 -20.717   5.536  0.00  0.00    +0.307 C 
ATOM     23  O   LIG    1       24.027 -21.474   6.419  0.00  0.00    -0.251 OA
BRANCH  22  24
ATOM     24  O   LIG    1       22.662 -19.805   5.803  0.00  0.00    -0.481 OA
ATOM     25  H   LIG    1       22.975 -18.865   5.768  0.00  0.00    +0.295 HD
ENDBRANCH  22  24
ENDBRANCH  21  22
ENDBRANCH  17  21
ENDBRANCH   3  17
TORSDOF 10
ENDMDL
MODEL 3
REMARK VINA RESULT:      -4.0      2.550      7.178
REMARK  Name = *****
REMARK                            x       y       z     vdW  Elec       q    Type
REMARK                         _______ _______ _______ _____ _____    ______ ____
ROOT
ATOM      1  N   LIG    1       24.666 -16.987   3.682  0.00  0.00    -0.301 N 
ATOM      2  H   LIG    1       23.686 -17.246   3.654  0.00  0.00    +0.150 HD
ATOM      3  C   LIG    1       25.640 -17.943   3.584  0.00  0.00    +0.231 C 
ATOM      4  O   LIG    1       26.825 -17.683   3.799  0.00  0.00    -0.274 OA
ENDROOT
BRANCH   1   5
ATOM      5  C   LIG    1       24.983 -15.585   3.998  0.00  0.00    +0.186 C 
BRANCH   5   6
ATOM      6  C   LIG    1       23.714 -14.695   4.016  0.00  0.00    +0.328 C 
ATOM      7  O   LIG    1       22.794 -14.815   4.793  0.00  0.00    -0.249 OA
BRANCH   6   9
ATOM      8  C   LIG    1       23.821 -12.334   3.627  0.00  0.00    +0.280 C 
ATOM      9  O   LIG    1       23.882 -13.671   3.110  0.00  0.00    -0.467 OA
ENDBRANCH   6   9
ENDBRANCH   5   6
BRANCH   5  10
ATOM     10  C   LIG    1       26.085 -14.991   3.077  0.00  0.00    +0.069 C 
BRANCH  10  11
ATOM     11  C   LIG    1       27.070 -14.032   3.725  0.00  0.00    -0.045 A 
ATOM     12  C   LIG    1       28.168 -13.516   3.017  0.00  0.00    +0.003 A 
ATOM     13  C   LIG    1       29.066 -12.639   3.639  0.00  0.00    +0.000 A 
ATOM     14  C   LIG    1       28.875 -12.258   4.965  0.00  0.00    +0.000 A 
ATOM     15  C   LIG    1       27.808 -12.779   5.684  0.00  0.00    +0.000 A 
ATOM     16  C   LIG    1       26.938 -13.683   5.076  0.00  0.00    +0.003 A 
ENDBRANCH  10  11
ENDBRANCH   5  10
ENDBRANCH   1   5
BRANCH   3  17
ATOM     17  C   LIG    1       25.173 -19.365   3.208  0.00  0.00    +0.148 C 
BRANCH  17  18
ATOM     18  N   LIG    1       25.898 -20.397   3.965  0.00  0.00    -0.320 NA
ATOM     19  H   LIG    1       25.419 -20.643   4.827  0.00  0.00    +0.119 HD
ATOM     20  H   LIG    1       25.969 -21.258   3.418  0.00  0.00    +0.119 HD
ENDBRANCH  17  18
BRANCH  17  21
ATOM     21  C   LIG    1       23.653 -19.520   3.352  0.00  0.00    +0.148 C 
BRANCH  21  22
ATOM     22  C   LIG    1       23.168 -20.231   4.594  0.00  0.00    +0.307 C 
ATOM     23  O   LIG    1       22.762 -19.626   5.592  0.00  0.00    -0.251 OA
BRANCH  22  24
ATOM     24  O   LIG    1       23.253 -21.571   4.588  0.00  0.00    -0.481 OA
ATOM     25  H   LIG    1       24.112 -21.930   4.927  0.00  0.00    +0.295 HD
ENDBRANCH  22  24
ENDBRANCH  21  22
ENDBRANCH  17  21
ENDBRANCH   3  17
TORSDOF 10
ENDMDL
MODEL 4
REMARK VINA RESULT:      -3.7      2.521      4.219
REMARK  Name = *****
REMARK                            x       y       z     vdW  Elec       q    Type
REMARK                         _______ _______ _______ _____ _____    ______ ____
ROOT
ATOM      1  N   LIG    1       24.718 -17.536   4.019  0.00  0.00    -0.301 N 
ATOM      2  H   LIG    1       24.213 -17.056   4.756  0.00  0.00    +0.150 HD
ATOM      3  C   LIG    1       25.720 -16.903   3.335  0.00  0.00    +0.231 C 
ATOM      4  O   LIG    1       26.220 -17.392   2.322  0.00  0.00    -0.274 OA
ENDROOT
BRANCH   1   5
ATOM      5  C   LIG    1       24.218 -18.861   3.615  0.00  0.00    +0.186 C 
BRANCH   5   6
ATOM      6  C   LIG    1       23.029 -19.323   4.495  0.00  0.00    +0.328 C 
ATOM      7  O   LIG    1       22.283 -18.584   5.096  0.00  0.00    -0.249 OA
BRANCH   6   9
ATOM      8  C   LIG    1       21.855 -21.309   5.138  0.00  0.00    +0.280 C 
ATOM      9  O   LIG    1       22.881 -20.685   4.354  0.00  0.00    -0.467 OA
ENDBRANCH   6   9
ENDBRANCH   5   6
BRANCH   5  10
ATOM     10  C   LIG    1       25.337 -19.938   3.554  0.00  0.00    +0.069 C 
BRANCH  10  11
ATOM     11  C   LIG    1       26.210 -20.084   4.789  0.00  0.00    -0.045 A 
ATOM     12  C   LIG    1       25.760 -20.769   5.929  0.00  0.00    +0.003 A 
ATOM     13  C   LIG    1       26.581 -20.885   7.059  0.00  0.00    +0.000 A 
ATOM     14  C   LIG    1       27.859 -20.331   7.062  0.00  0.00    +0.000 A 
ATOM     15  C   LIG    1       28.307 -19.630   5.950  0.00  0.00    +0.000 A 
ATOM     16  C   LIG    1       27.474 -19.481   4.842  0.00  0.00    +0.003 A 
ENDBRANCH  10  11
ENDBRANCH   5  10
ENDBRANCH   1   5
BRANCH   3  17
ATOM     17  C   LIG    1       26.175 -15.537   3.891  0.00  0.00    +0.148 C 
BRANCH  17  18
ATOM     18  N   LIG    1       27.637 -15.466   4.037  0.00  0.00    -0.320 NA
ATOM     19  H   LIG    1       27.912 -14.922   4.851  0.00  0.00    +0.119 HD
ATOM     20  H   LIG    1       28.028 -16.402   4.169  0.00  0.00    +0.119 HD
ENDBRANCH  17  18
BRANCH  17  21
ATOM     21  C   LIG    1       25.632 -14.372   3.052  0.00  0.00    +0.148 C 
BRANCH  21  22
ATOM     22  C   LIG    1       24.231 -13.909   3.378  0.00  0.00    +0.307 C 
ATOM     23  O   LIG    1       23.460 -14.567   4.084  0.00  0.00    -0.251 OA
BRANCH  22  24
ATOM     24  O   LIG    1       23.833 -12.759   2.811  0.00  0.00    -0.481 OA
ATOM     25  H   LIG    1       24.063 -11.945   3.327  0.00  0.00    +0.295 HD
ENDBRANCH  22  24
ENDBRANCH  21  22
ENDBRANCH  17  21
ENDBRANCH   3  17
TORSDOF 10
ENDMDL
MODEL 5
REMARK VINA RESULT:      -3.5      2.743      6.245
REMARK  Name = *****
REMARK                            x       y       z     vdW  Elec       q    Type
REMARK                         _______ _______ _______ _____ _____    ______ ____
ROOT
ATOM      1  N   LIG    1       26.009 -17.837   3.299  0.00  0.00    -0.301 N 
ATOM      2  H   LIG    1       26.829 -18.365   3.023  0.00  0.00    +0.150 HD
ATOM      3  C   LIG    1       24.816 -18.470   3.520  0.00  0.00    +0.231 C 
ATOM      4  O   LIG    1       23.769 -17.841   3.674  0.00  0.00    -0.274 OA
ENDROOT
BRANCH   1   5
ATOM      5  C   LIG    1       26.118 -16.369   3.286  0.00  0.00    +0.186 C 
BRANCH   5   6
ATOM      6  C   LIG    1       27.467 -15.884   3.877  0.00  0.00    +0.328 C 
ATOM      7  O   LIG    1       27.666 -14.784   4.339  0.00  0.00    -0.249 OA
BRANCH   6   9
ATOM      8  C   LIG    1       28.632 -17.492   5.216  0.00  0.00    +0.280 C 
ATOM      9  O   LIG    1       28.336 -16.951   3.921  0.00  0.00    -0.467 OA
ENDBRANCH   6   9
ENDBRANCH   5   6
BRANCH   5  10
ATOM     10  C   LIG    1       24.910 -15.665   3.965  0.00  0.00    +0.069 C 
BRANCH  10  11
ATOM     11  C   LIG    1       24.630 -14.233   3.541  0.00  0.00    -0.045 A 
ATOM     12  C   LIG    1       24.909 -13.784   2.241  0.00  0.00    +0.003 A 
ATOM     13  C   LIG    1       24.648 -12.457   1.875  0.00  0.00    +0.000 A 
ATOM     14  C   LIG    1       24.099 -11.567   2.796  0.00  0.00    +0.000 A 
ATOM     15  C   LIG    1       23.841 -11.991   4.093  0.00  0.00    +0.000 A 
ATOM     16  C   LIG    1       24.138 -13.302   4.465  0.00  0.00    +0.003 A 
ENDBRANCH  10  11
ENDBRANCH   5  10
ENDBRANCH   1   5
BRANCH   3  17
ATOM     17  C   LIG    1       24.852 -20.013   3.547  0.00  0.00    +0.148 C 
BRANCH  17  18
ATOM     18  N   LIG    1       25.993 -20.519   4.326  0.00  0.00    -0.320 NA
ATOM     19  H   LIG    1       26.347 -21.397   3.955  0.00  0.00    +0.119 HD
ATOM     20  H   LIG    1       26.771 -19.856   4.291  0.00  0.00    +0.119 HD
ENDBRANCH  17  18
BRANCH  17  21
ATOM     21  C   LIG    1       23.523 -20.603   4.040  0.00  0.00    +0.148 C 
BRANCH  21  22
ATOM     22  C   LIG    1       23.265 -20.521   5.525  0.00  0.00    +0.307 C 
ATOM     23  O   LIG    1       23.690 -21.363   6.324  0.00  0.00    -0.251 OA
BRANCH  22  24
ATOM     24  O   LIG    1       22.491 -19.506   5.943  0.00  0.00    -0.481 OA
ATOM     25  H   LIG    1       21.800 -19.221   5.293  0.00  0.00    +0.295 HD
ENDBRANCH  22  24
ENDBRANCH  21  22
ENDBRANCH  17  21
ENDBRANCH   3  17
TORSDOF 10
ENDMDL
MODEL 6
REMARK VINA RESULT:      -3.4      2.437      4.540
REMARK  Name = *****
REMARK                            x       y       z     vdW  Elec       q    Type
REMARK                         _______ _______ _______ _____ _____    ______ ____
ROOT
ATOM      1  N   LIG    1       24.370 -18.172   4.070  0.00  0.00    -0.301 N 
ATOM      2  H   LIG    1       23.385 -18.042   4.270  0.00  0.00    +0.150 HD
ATOM      3  C   LIG    1       25.116 -17.147   3.554  0.00  0.00    +0.231 C 
ATOM      4  O   LIG    1       26.258 -17.328   3.131  0.00  0.00    -0.274 OA
ENDROOT
BRANCH   1   5
ATOM      5  C   LIG    1       24.909 -19.536   4.200  0.00  0.00    +0.186 C 
BRANCH   5   6
ATOM      6  C   LIG    1       23.995 -20.586   3.519  0.00  0.00    +0.328 C 
ATOM      7  O   LIG    1       23.944 -20.793   2.328  0.00  0.00    -0.249 OA
BRANCH   6   9
ATOM      8  C   LIG    1       22.094 -20.866   4.949  0.00  0.00    +0.280 C 
ATOM      9  O   LIG    1       23.374 -21.329   4.499  0.00  0.00    -0.467 OA
ENDBRANCH   6   9
ENDBRANCH   5   6
BRANCH   5  10
ATOM     10  C   LIG    1       25.229 -19.923   5.671  0.00  0.00    +0.069 C 
BRANCH  10  11
ATOM     11  C   LIG    1       26.690 -20.181   6.005  0.00  0.00    -0.045 A 
ATOM     12  C   LIG    1       27.706 -19.315   5.569  0.00  0.00    +0.003 A 
ATOM     13  C   LIG    1       29.046 -19.577   5.885  0.00  0.00    +0.000 A 
ATOM     14  C   LIG    1       29.386 -20.694   6.643  0.00  0.00    +0.000 A 
ATOM     15  C   LIG    1       28.394 -21.572   7.059  0.00  0.00    +0.000 A 
ATOM     16  C   LIG    1       27.065 -21.331   6.711  0.00  0.00    +0.003 A 
ENDBRANCH  10  11
ENDBRANCH   5  10
ENDBRANCH   1   5
BRANCH   3  17
ATOM     17  C   LIG    1       24.442 -15.759   3.512  0.00  0.00    +0.148 C 
BRANCH  17  18
ATOM     18  N   LIG    1       23.321 -15.669   4.461  0.00  0.00    -0.320 NA
ATOM     19  H   LIG    1       22.467 -15.349   4.011  0.00  0.00    +0.119 HD
ATOM     20  H   LIG    1       23.112 -16.588   4.856  0.00  0.00    +0.119 HD
ENDBRANCH  17  18
BRANCH  17  21
ATOM     21  C   LIG    1       25.457 -14.628   3.724  0.00  0.00    +0.148 C 
BRANCH  21  22
ATOM     22  C   LIG    1       24.887 -13.279   4.092  0.00  0.00    +0.307 C 
ATOM     23  O   LIG    1       25.164 -12.706   5.152  0.00  0.00    -0.251 OA
BRANCH  22  24
ATOM     24  O   LIG    1       24.007 -12.744   3.231  0.00  0.00    -0.481 OA
ATOM     25  H   LIG    1       23.323 -12.163   3.650  0.00  0.00    +0.295 HD
ENDBRANCH  22  24
ENDBRANCH  21  22
ENDBRANCH  17  21
ENDBRANCH   3  17
TORSDOF 10
ENDMDL
MODEL 7
REMARK VINA RESULT:      -3.3      2.491      5.909
REMARK  Name = *****
REMARK                            x       y       z     vdW  Elec       q    Type
REMARK                         _______ _______ _______ _____ _____    ______ ____
ROOT
ATOM      1  N   LIG    1       24.813 -17.863   4.092  0.00  0.00    -0.301 N 
ATOM      2  H   LIG    1       24.692 -17.246   4.887  0.00  0.00    +0.150 HD
ATOM      3  C   LIG    1       23.860 -18.794   3.783  0.00  0.00    +0.231 C 
ATOM      4  O   LIG    1       24.062 -19.673   2.944  0.00  0.00    -0.274 OA
ENDROOT
BRANCH   1   5
ATOM      5  C   LIG    1       26.114 -17.826   3.404  0.00  0.00    +0.186 C 
BRANCH   5   6
ATOM      6  C   LIG    1       27.261 -18.348   4.306  0.00  0.00    +0.328 C 
ATOM      7  O   LIG    1       28.286 -17.750   4.541  0.00  0.00    -0.249 OA
BRANCH   6   9
ATOM      8  C   LIG    1       27.751 -20.111   5.851  0.00  0.00    +0.280 C 
ATOM      9  O   LIG    1       26.853 -19.521   4.902  0.00  0.00    -0.467 OA
ENDBRANCH   6   9
ENDBRANCH   5   6
BRANCH   5  10
ATOM     10  C   LIG    1       26.445 -16.428   2.810  0.00  0.00    +0.069 C 
BRANCH  10  11
ATOM     11  C   LIG    1       26.016 -15.221   3.628  0.00  0.00    -0.045 A 
ATOM     12  C   LIG    1       24.678 -14.799   3.668  0.00  0.00    +0.003 A 
ATOM     13  C   LIG    1       24.308 -13.680   4.425  0.00  0.00    +0.000 A 
ATOM     14  C   LIG    1       25.262 -12.977   5.157  0.00  0.00    +0.000 A 
ATOM     15  C   LIG    1       26.593 -13.369   5.106  0.00  0.00    +0.000 A 
ATOM     16  C   LIG    1       26.966 -14.459   4.321  0.00  0.00    +0.003 A 
ENDBRANCH  10  11
ENDBRANCH   5  10
ENDBRANCH   1   5
BRANCH   3  17
ATOM     17  C   LIG    1       22.526 -18.695   4.553  0.00  0.00    +0.148 C 
BRANCH  17  18
ATOM     18  N   LIG    1       21.376 -18.585   3.642  0.00  0.00    -0.320 NA
ATOM     19  H   LIG    1       21.570 -19.000   2.734  0.00  0.00    +0.119 HD
ATOM     20  H   LIG    1       20.570 -19.086   4.022  0.00  0.00    +0.119 HD
ENDBRANCH  17  18
BRANCH  17  21
ATOM     21  C   LIG    1       22.355 -19.853   5.545  0.00  0.00    +0.148 C 
BRANCH  21  22
ATOM     22  C   LIG    1       23.587 -20.680   5.826  0.00  0.00    +0.307 C 
ATOM     23  O   LIG    1       24.279 -20.522   6.838  0.00  0.00    -0.251 OA
BRANCH  22  24
ATOM     24  O   LIG    1       23.938 -21.571   4.886  0.00  0.00    -0.481 OA
ATOM     25  H   LIG    1       24.777 -21.354   4.406  0.00  0.00    +0.295 HD
ENDBRANCH  22  24
ENDBRANCH  21  22
ENDBRANCH  17  21
ENDBRANCH   3  17
TORSDOF 10
ENDMDL
MODEL 8
REMARK VINA RESULT:      -3.3      2.409      4.980
REMARK  Name = *****
REMARK                            x       y       z     vdW  Elec       q    Type
REMARK                         _______ _______ _______ _____ _____    ______ ____
ROOT
ATOM      1  N   LIG    1       25.594 -14.157   4.046  0.00  0.00    -0.301 N 
ATOM      2  H   LIG    1       25.878 -14.130   5.020  0.00  0.00    +0.150 HD
ATOM      3  C   LIG    1       26.530 -14.255   3.052  0.00  0.00    +0.231 C 
ATOM      4  O   LIG    1       26.232 -14.104   1.867  0.00  0.00    -0.274 OA
ENDROOT
BRANCH   1   5
ATOM      5  C   LIG    1       24.171 -13.920   3.753  0.00  0.00    +0.186 C 
BRANCH   5   6
ATOM      6  C   LIG    1       23.803 -12.417   3.853  0.00  0.00    +0.328 C 
ATOM      7  O   LIG    1       23.894 -11.747   4.856  0.00  0.00    -0.249 OA
BRANCH   6   9
ATOM      8  C   LIG    1       24.597 -11.448   1.812  0.00  0.00    +0.280 C 
ATOM      9  O   LIG    1       23.504 -11.952   2.592  0.00  0.00    -0.467 OA
ENDBRANCH   6   9
ENDBRANCH   5   6
BRANCH   5  10
ATOM     10  C   LIG    1       23.221 -14.800   4.611  0.00  0.00    +0.069 C 
BRANCH  10  11
ATOM     11  C   LIG    1       23.250 -16.296   4.342  0.00  0.00    -0.045 A 
ATOM     12  C   LIG    1       22.154 -17.119   4.646  0.00  0.00    +0.003 A 
ATOM     13  C   LIG    1       22.208 -18.496   4.394  0.00  0.00    +0.000 A 
ATOM     14  C   LIG    1       23.347 -19.066   3.829  0.00  0.00    +0.000 A 
ATOM     15  C   LIG    1       24.447 -18.267   3.546  0.00  0.00    +0.000 A 
ATOM     16  C   LIG    1       24.406 -16.903   3.833  0.00  0.00    +0.003 A 
ENDBRANCH  10  11
ENDBRANCH   5  10
ENDBRANCH   1   5
BRANCH   3  17
ATOM     17  C   LIG    1       27.979 -14.546   3.498  0.00  0.00    +0.148 C 
BRANCH  17  18
ATOM     18  N   LIG    1       28.766 -13.310   3.636  0.00  0.00    -0.320 NA
ATOM     19  H   LIG    1       29.765 -13.486   3.560  0.00  0.00    +0.119 HD
ATOM     20  H   LIG    1       28.531 -12.652   2.889  0.00  0.00    +0.119 HD
ENDBRANCH  17  18
BRANCH  17  21
ATOM     21  C   LIG    1       28.020 -15.390   4.779  0.00  0.00    +0.148 C 
BRANCH  21  22
ATOM     22  C   LIG    1       28.313 -16.861   4.600  0.00  0.00    +0.307 C 
ATOM     23  O   LIG    1       29.143 -17.464   5.289  0.00  0.00    -0.251 OA
BRANCH  22  24
ATOM     24  O   LIG    1       27.661 -17.485   3.606  0.00  0.00    -0.481 OA
ATOM     25  H   LIG    1       28.207 -17.647   2.795  0.00  0.00    +0.295 HD
ENDBRANCH  22  24
ENDBRANCH  21  22
ENDBRANCH  17  21
ENDBRANCH   3  17
TORSDOF 10
ENDMDL
MODEL 9
REMARK VINA RESULT:      -3.2      2.854      6.482
REMARK  Name = *****
REMARK                            x       y       z     vdW  Elec       q    Type
REMARK                         _______ _______ _______ _____ _____    ______ ____
ROOT
ATOM      1  N   LIG    1       24.699 -18.064   3.663  0.00  0.00    -0.301 N 
ATOM      2  H   LIG    1       25.481 -18.691   3.509  0.00  0.00    +0.150 HD
ATOM      3  C   LIG    1       23.459 -18.558   3.964  0.00  0.00    +0.231 C 
ATOM      4  O   LIG    1       22.461 -17.838   3.973  0.00  0.00    -0.274 OA
ENDROOT
BRANCH   1   5
ATOM      5  C   LIG    1       24.919 -16.635   3.386  0.00  0.00    +0.186 C 
BRANCH   5   6
ATOM      6  C   LIG    1       26.423 -16.263   3.423  0.00  0.00    +0.328 C 
ATOM      7  O   LIG    1       27.302 -16.972   3.857  0.00  0.00    -0.249 OA
BRANCH   6   9
ATOM      8  C   LIG    1       27.522 -14.137   3.328  0.00  0.00    +0.280 C 
ATOM      9  O   LIG    1       26.599 -15.072   2.753  0.00  0.00    -0.467 OA
ENDBRANCH   6   9
ENDBRANCH   5   6
BRANCH   5  10
ATOM     10  C   LIG    1       24.076 -15.703   4.301  0.00  0.00    +0.069 C 
BRANCH  10  11
ATOM     11  C   LIG    1       24.055 -14.228   3.935  0.00  0.00    -0.045 A 
ATOM     12  C   LIG    1       24.165 -13.227   4.914  0.00  0.00    +0.003 A 
ATOM     13  C   LIG    1       24.136 -11.874   4.552  0.00  0.00    +0.000 A 
ATOM     14  C   LIG    1       24.008 -11.503   3.215  0.00  0.00    +0.000 A 
ATOM     15  C   LIG    1       23.873 -12.483   2.240  0.00  0.00    +0.000 A 
ATOM     16  C   LIG    1       23.862 -13.828   2.606  0.00  0.00    +0.003 A 
ENDBRANCH  10  11
ENDBRANCH   5  10
ENDBRANCH   1   5
BRANCH   3  17
ATOM     17  C   LIG    1       23.379 -20.068   4.274  0.00  0.00    +0.148 C 
BRANCH  17  18
ATOM     18  N   LIG    1       24.234 -20.856   3.373  0.00  0.00    -0.320 NA
ATOM     19  H   LIG    1       24.436 -20.359   2.509  0.00  0.00    +0.119 HD
ATOM     20  H   LIG    1       25.137 -21.047   3.814  0.00  0.00    +0.119 HD
ENDBRANCH  17  18
BRANCH  17  21
ATOM     21  C   LIG    1       23.684 -20.363   5.748  0.00  0.00    +0.148 C 
BRANCH  21  22
ATOM     22  C   LIG    1       25.111 -20.735   6.074  0.00  0.00    +0.307 C 
ATOM     23  O   LIG    1       25.707 -20.287   7.060  0.00  0.00    -0.251 OA
BRANCH  22  24
ATOM     24  O   LIG    1       25.735 -21.541   5.201  0.00  0.00    -0.481 OA
ATOM     25  H   LIG    1       25.841 -21.160   4.292  0.00  0.00    +0.295 HD
ENDBRANCH  22  24
ENDBRANCH  21  22
ENDBRANCH  17  21
ENDBRANCH   3  17
TORSDOF 10
ENDMDL
