MODEL 1
REMARK VINA RESULT:      -5.4      0.000      0.000
REMARK  Name = *****
REMARK                            x       y       z     vdW  Elec       q    Type
REMARK                         _______ _______ _______ _____ _____    ______ ____
ROOT
ATOM      1  C   LIG    1       24.561 -13.569   3.648  0.00  0.00    +0.161 C 
ENDROOT
BRANCH   1   2
ATOM      2  N   LIG    1       26.009 -13.472   3.886  0.00  0.00    -0.290 N 
ATOM      3  C   LIG    1       26.986 -13.838   2.970  0.00  0.00    +0.216 C 
ATOM      4  O   LIG    1       26.807 -14.197   1.812  0.00  0.00    -0.276 OA
ATOM      5  C   LIG    1       28.322 -13.812   3.661  0.00  0.00    +0.097 C 
ATOM      6  C   LIG    1       28.028 -13.069   4.956  0.00  0.00    +0.028 C 
ATOM      7  C   LIG    1       26.565 -13.375   5.218  0.00  0.00    +0.109 C 
ENDBRANCH   1   2
BRANCH   1   8
ATOM      8  C   LIG    1       23.962 -12.182   3.334  0.00  0.00    +0.231 C 
ATOM      9  O   LIG    1       23.498 -11.447   4.203  0.00  0.00    -0.274 OA
ATOM     10  N   LIG    1       23.945 -11.796   2.026  0.00  0.00    -0.328 N 
ATOM     11  H   LIG    1       23.548 -10.896   1.794  0.00  0.00    +0.145 HD
ATOM     12  H   LIG    1       24.297 -12.391   1.282  0.00  0.00    +0.145 HD
ENDBRANCH   1   8
BRANCH   1  14
ATOM     13  C   LIG    1       23.043 -15.502   4.370  0.00  0.00    +0.006 C 
ATOM     14  C   LIG    1       23.842 -14.285   4.806  0.00  0.00    +0.028 C 
ENDBRANCH   1  14
TORSDOF 3
ENDMDL
MODEL 2
REMARK VINA RESULT:      -4.4      1.842      4.074
REMARK  Name = *****
REMARK                            x       y       z     vdW  Elec       q    Type
REMARK                         _______ _______ _______ _____ _____    ______ ____
ROOT
ATOM      1  C   LIG    1       26.198 -14.048   3.903  0.00  0.00    +0.161 C 
ENDROOT
BRANCH   1   2
ATOM      2  N   LIG    1       25.328 -13.000   3.347  0.00  0.00    -0.290 N 
ATOM      3  C   LIG    1       24.442 -12.234   4.092  0.00  0.00    +0.216 C 
ATOM      4  O   LIG    1       24.315 -12.237   5.311  0.00  0.00    -0.276 OA
ATOM      5  C   LIG    1       23.579 -11.447   3.143  0.00  0.00    +0.097 C 
ATOM      6  C   LIG    1       24.300 -11.597   1.812  0.00  0.00    +0.028 C 
ATOM      7  C   LIG    1       25.007 -12.934   1.938  0.00  0.00    +0.109 C 
ENDBRANCH   1   2
BRANCH   1   8
ATOM      8  C   LIG    1       27.479 -13.437   4.507  0.00  0.00    +0.231 C 
ATOM      9  O   LIG    1       28.521 -13.313   3.866  0.00  0.00    -0.274 OA
ATOM     10  N   LIG    1       27.424 -13.046   5.812  0.00  0.00    -0.328 N 
ATOM     11  H   LIG    1       28.254 -12.652   6.233  0.00  0.00    +0.145 HD
ATOM     12  H   LIG    1       26.587 -13.159   6.376  0.00  0.00    +0.145 HD
ENDBRANCH   1   8
BRANCH   1  14
ATOM     13  C   LIG    1       26.062 -16.539   3.318  0.00  0.00    +0.006 C 
ATOM     14  C   LIG    1       26.488 -15.151   2.869  0.00  0.00    +0.028 C 
ENDBRANCH   1  14
TORSDOF 3
ENDMDL
MODEL 3
REMARK VINA RESULT:      -4.2      1.547      2.463
REMARK  Name = *****
REMARK                            x       y       z     vdW  Elec       q    Type
REMARK                         _______ _______ _______ _____ _____    ______ ____
ROOT
ATOM      1  C   LIG    1       24.619 -13.459   3.756  0.00  0.00    +0.161 C 
ENDROOT
BRANCH   1   2
ATOM      2  N   LIG    1       26.075 -13.369   3.945  0.00  0.00    -0.290 N 
ATOM      3  C   LIG    1       27.019 -13.773   3.011  0.00  0.00    +0.216 C 
ATOM      4  O   LIG    1       26.800 -14.165   1.871  0.00  0.00    -0.276 OA
ATOM      5  C   LIG    1       28.377 -13.739   3.659  0.00  0.00    +0.097 C 
ATOM      6  C   LIG    1       28.130 -12.953   4.939  0.00  0.00    +0.028 C 
ATOM      7  C   LIG    1       26.673 -13.236   5.256  0.00  0.00    +0.109 C 
ENDBRANCH   1   2
BRANCH   1   8
ATOM      8  C   LIG    1       24.111 -14.882   4.065  0.00  0.00    +0.231 C 
ATOM      9  O   LIG    1       23.047 -15.096   4.642  0.00  0.00    -0.274 OA
ATOM     10  N   LIG    1       24.907 -15.922   3.684  0.00  0.00    -0.328 N 
ATOM     11  H   LIG    1       24.601 -16.863   3.885  0.00  0.00    +0.145 HD
ATOM     12  H   LIG    1       25.804 -15.777   3.229  0.00  0.00    +0.145 HD
ENDBRANCH   1   8
BRANCH   1  14
ATOM     13  C   LIG    1       24.247 -11.447   2.214  0.00  0.00    +0.006 C 
ATOM     14  C   LIG    1       24.197 -12.959   2.363  0.00  0.00    +0.028 C 
ENDBRANCH   1  14
TORSDOF 3
ENDMDL
MODEL 4
REMARK VINA RESULT:      -4.0      1.977      4.470
REMARK  Name = *****
REMARK                            x       y       z     vdW  Elec       q    Type
REMARK                         _______ _______ _______ _____ _____    ______ ____
ROOT
ATOM      1  C   LIG    1       27.219 -14.335   3.131  0.00  0.00    +0.161 C 
ENDROOT
BRANCH   1   2
ATOM      2  N   LIG    1       26.018 -13.494   3.258  0.00  0.00    -0.290 N 
ATOM      3  C   LIG    1       25.350 -13.247   4.449  0.00  0.00    +0.216 C 
ATOM      4  O   LIG    1       25.698 -13.597   5.571  0.00  0.00    -0.276 OA
ATOM      5  C   LIG    1       24.058 -12.543   4.134  0.00  0.00    +0.097 C 
ATOM      6  C   LIG    1       24.236 -12.125   2.682  0.00  0.00    +0.028 C 
ATOM      7  C   LIG    1       25.182 -13.172   2.123  0.00  0.00    +0.109 C 
ENDBRANCH   1   2
BRANCH   1   8
ATOM      8  C   LIG    1       26.890 -15.812   3.434  0.00  0.00    +0.231 C 
ATOM      9  O   LIG    1       25.837 -16.342   3.084  0.00  0.00    -0.274 OA
ATOM     10  N   LIG    1       27.818 -16.523   4.136  0.00  0.00    -0.328 N 
ATOM     11  H   LIG    1       27.620 -17.489   4.355  0.00  0.00    +0.145 HD
ATOM     12  H   LIG    1       28.685 -16.106   4.461  0.00  0.00    +0.145 HD
ENDBRANCH   1   8
BRANCH   1  14
ATOM     13  C   LIG    1       28.729 -12.343   3.687  0.00  0.00    +0.006 C 
ATOM     14  C   LIG    1       28.384 -13.793   3.979  0.00  0.00    +0.028 C 
ENDBRANCH   1  14
TORSDOF 3
ENDMDL
MODEL 5
REMARK VINA RESULT:      -3.9      1.299      1.722
REMARK  Name = *****
REMARK                            x       y       z     vdW  Elec       q    Type
REMARK                         _______ _______ _______ _____ _____    ______ ____
ROOT
ATOM      1  C   LIG    1       24.322 -13.633   3.543  0.00  0.00    +0.161 C 
ENDROOT
BRANCH   1   2
ATOM      2  N   LIG    1       25.784 -13.749   3.663  0.00  0.00    -0.290 N 
ATOM      3  C   LIG    1       26.512 -13.415   4.797  0.00  0.00    +0.216 C 
ATOM      4  O   LIG    1       26.060 -13.073   5.883  0.00  0.00    -0.276 OA
ATOM      5  C   LIG    1       27.976 -13.452   4.452  0.00  0.00    +0.097 C 
ATOM      6  C   LIG    1       27.997 -14.168   3.109  0.00  0.00    +0.028 C 
ATOM      7  C   LIG    1       26.646 -13.834   2.505  0.00  0.00    +0.109 C 
ENDBRANCH   1   2
BRANCH   1   8
ATOM      8  C   LIG    1       23.901 -12.160   3.357  0.00  0.00    +0.231 C 
ATOM      9  O   LIG    1       23.546 -11.448   4.294  0.00  0.00    -0.274 OA
ATOM     10  N   LIG    1       23.918 -11.666   2.086  0.00  0.00    -0.328 N 
ATOM     11  H   LIG    1       23.636 -10.707   1.938  0.00  0.00    +0.145 HD
ATOM     12  H   LIG    1       24.182 -12.236   1.288  0.00  0.00    +0.145 HD
ENDBRANCH   1   8
BRANCH   1  14
ATOM     13  C   LIG    1       23.034 -15.687   4.368  0.00  0.00    +0.006 C 
ATOM     14  C   LIG    1       23.600 -14.321   4.716  0.00  0.00    +0.028 C 
ENDBRANCH   1  14
TORSDOF 3
ENDMDL
MODEL 6
REMARK VINA RESULT:      -3.5      6.434      7.341
REMARK  Name = *****
REMARK                            x       y       z     vdW  Elec       q    Type
REMARK                         _______ _______ _______ _____ _____    ______ ____
ROOT
ATOM      1  C   LIG    1       23.241 -19.803   5.284  0.00  0.00    +0.161 C 
ENDROOT
BRANCH   1   2
ATOM      2  N   LIG    1       24.644 -19.998   5.680  0.00  0.00    -0.290 N 
ATOM      3  C   LIG    1       25.736 -19.786   4.849  0.00  0.00    +0.216 C 
ATOM      4  O   LIG    1       25.714 -19.322   3.716  0.00  0.00    -0.276 OA
ATOM      5  C   LIG    1       26.967 -20.310   5.537  0.00  0.00    +0.097 C 
ATOM      6  C   LIG    1       26.500 -20.524   6.969  0.00  0.00    +0.028 C 
ATOM      7  C   LIG    1       25.016 -20.804   6.822  0.00  0.00    +0.109 C 
ENDBRANCH   1   2
BRANCH   1   8
ATOM      8  C   LIG    1       22.700 -21.047   4.549  0.00  0.00    +0.231 C 
ATOM      9  O   LIG    1       21.625 -21.572   4.835  0.00  0.00    -0.274 OA
ATOM     10  N   LIG    1       23.479 -21.572   3.560  0.00  0.00    -0.328 N 
ATOM     11  H   LIG    1       23.150 -22.393   3.072  0.00  0.00    +0.145 HD
ATOM     12  H   LIG    1       24.383 -21.177   3.318  0.00  0.00    +0.145 HD
ENDBRANCH   1   8
BRANCH   1  14
ATOM     13  C   LIG    1       21.623 -18.268   4.025  0.00  0.00    +0.006 C 
ATOM     14  C   LIG    1       23.053 -18.503   4.482  0.00  0.00    +0.028 C 
ENDBRANCH   1  14
TORSDOF 3
ENDMDL
MODEL 7
REMARK VINA RESULT:      -3.4      5.760      7.447
REMARK  Name = *****
REMARK                            x       y       z     vdW  Elec       q    Type
REMARK                         _______ _______ _______ _____ _____    ______ ____
ROOT
ATOM      1  C   LIG    1       23.714 -19.276   4.063  0.00  0.00    +0.161 C 
ENDROOT
BRANCH   1   2
ATOM      2  N   LIG    1       23.787 -20.188   5.215  0.00  0.00    -0.290 N 
ATOM      3  C   LIG    1       22.730 -20.960   5.679  0.00  0.00    +0.216 C 
ATOM      4  O   LIG    1       21.627 -21.078   5.160  0.00  0.00    -0.276 OA
ATOM      5  C   LIG    1       23.129 -21.571   6.994  0.00  0.00    +0.097 C 
ATOM      6  C   LIG    1       24.631 -21.335   7.046  0.00  0.00    +0.028 C 
ATOM      7  C   LIG    1       24.823 -20.078   6.218  0.00  0.00    +0.109 C 
ENDBRANCH   1   2
BRANCH   1   8
ATOM      8  C   LIG    1       25.125 -18.850   3.608  0.00  0.00    +0.231 C 
ATOM      9  O   LIG    1       25.396 -17.699   3.273  0.00  0.00    -0.274 OA
ATOM     10  N   LIG    1       26.083 -19.820   3.569  0.00  0.00    -0.328 N 
ATOM     11  H   LIG    1       27.013 -19.568   3.264  0.00  0.00    +0.145 HD
ATOM     12  H   LIG    1       25.885 -20.786   3.814  0.00  0.00    +0.145 HD
ENDBRANCH   1   8
BRANCH   1  14
ATOM     13  C   LIG    1       21.386 -18.245   3.782  0.00  0.00    +0.006 C 
ATOM     14  C   LIG    1       22.787 -18.079   4.345  0.00  0.00    +0.028 C 
ENDBRANCH   1  14
TORSDOF 3
ENDMDL
MODEL 8
REMARK VINA RESULT:      -3.4      1.935      3.089
REMARK  Name = *****
REMARK                            x       y       z     vdW  Elec       q    Type
REMARK                         _______ _______ _______ _____ _____    ______ ____
ROOT
ATOM      1  C   LIG    1       24.736 -13.628   3.904  0.00  0.00    +0.161 C 
ENDROOT
BRANCH   1   2
ATOM      2  N   LIG    1       26.203 -13.531   3.952  0.00  0.00    -0.290 N 
ATOM      3  C   LIG    1       26.950 -13.419   5.116  0.00  0.00    +0.216 C 
ATOM      4  O   LIG    1       26.528 -13.480   6.265  0.00  0.00    -0.276 OA
ATOM      5  C   LIG    1       28.375 -13.114   4.742  0.00  0.00    +0.097 C 
ATOM      6  C   LIG    1       28.411 -13.404   3.249  0.00  0.00    +0.028 C 
ATOM      7  C   LIG    1       26.985 -13.139   2.800  0.00  0.00    +0.109 C 
ENDBRANCH   1   2
BRANCH   1   8
ATOM      8  C   LIG    1       24.277 -15.095   4.032  0.00  0.00    +0.231 C 
ATOM      9  O   LIG    1       24.958 -16.040   3.638  0.00  0.00    -0.274 OA
ATOM     10  N   LIG    1       23.054 -15.316   4.592  0.00  0.00    -0.328 N 
ATOM     11  H   LIG    1       22.726 -16.268   4.676  0.00  0.00    +0.145 HD
ATOM     12  H   LIG    1       22.456 -14.556   4.904  0.00  0.00    +0.145 HD
ENDBRANCH   1   8
BRANCH   1  14
ATOM     13  C   LIG    1       23.851 -11.452   2.881  0.00  0.00    +0.006 C 
ATOM     14  C   LIG    1       24.161 -12.924   2.662  0.00  0.00    +0.028 C 
ENDBRANCH   1  14
TORSDOF 3
ENDMDL
MODEL 9
REMARK VINA RESULT:      -3.3      6.117      7.522
REMARK  Name = *****
REMARK                            x       y       z     vdW  Elec       q    Type
REMARK                         _______ _______ _______ _____ _____    ______ ____
ROOT
ATOM      1  C   LIG    1       23.660 -19.560   3.956  0.00  0.00    +0.161 C 
ENDROOT
BRANCH   1   2
ATOM      2  N   LIG    1       23.749 -20.312   5.218  0.00  0.00    -0.290 N 
ATOM      3  C   LIG    1       24.925 -20.537   5.920  0.00  0.00    +0.216 C 
ATOM      4  O   LIG    1       26.031 -20.076   5.664  0.00  0.00    -0.276 OA
ATOM      5  C   LIG    1       24.643 -21.529   7.016  0.00  0.00    +0.097 C 
ATOM      6  C   LIG    1       23.122 -21.572   7.062  0.00  0.00    +0.028 C 
ATOM      7  C   LIG    1       22.713 -21.227   5.642  0.00  0.00    +0.109 C 
ENDBRANCH   1   2
BRANCH   1   8
ATOM      8  C   LIG    1       25.008 -19.579   3.208  0.00  0.00    +0.231 C 
ATOM      9  O   LIG    1       25.389 -20.546   2.551  0.00  0.00    -0.274 OA
ATOM     10  N   LIG    1       25.793 -18.468   3.314  0.00  0.00    -0.328 N 
ATOM     11  H   LIG    1       26.686 -18.461   2.841  0.00  0.00    +0.145 HD
ATOM     12  H   LIG    1       25.518 -17.663   3.870  0.00  0.00    +0.145 HD
ENDBRANCH   1   8
BRANCH   1  14
ATOM     13  C   LIG    1       21.618 -18.085   4.422  0.00  0.00    +0.006 C 
ATOM     14  C   LIG    1       23.117 -18.137   4.182  0.00  0.00    +0.028 C 
ENDBRANCH   1  14
TORSDOF 3
ENDMDL
