MODEL 1
REMARK VINA RESULT:      -8.5      0.000      0.000
REMARK  Name = *****
REMARK                            x       y       z     vdW  Elec       q    Type
REMARK                         _______ _______ _______ _____ _____    ______ ____
ROOT
ATOM      1  C   LIG    1       25.296 -22.494   7.485  0.00  0.00    +0.063 C 
ATOM      2  C   LIG    1       26.142 -21.460   6.731  0.00  0.00    -0.030 A 
ATOM      3  C   LIG    1       25.667 -20.756   5.591  0.00  0.00    -0.020 A 
ATOM      4  C   LIG    1       26.516 -19.803   4.983  0.00  0.00    +0.089 A 
ATOM      5  C   LIG    1       27.801 -19.574   5.487  0.00  0.00    +0.177 A 
ATOM      6  C   LIG    1       28.257 -20.279   6.589  0.00  0.00    +0.160 A 
ATOM      7 CL   LIG    1       26.028 -18.864   3.609  0.00  0.00    -0.079 Cl
ATOM      8  C   LIG    1       24.284 -21.054   5.045  0.00  0.00    +0.052 C 
ATOM      9  C   LIG    1       23.155 -20.677   6.007  0.00  0.00    +0.085 C 
ATOM     10  N   LIG    1       22.880 -21.685   7.030  0.00  0.00    -0.315 NA
ATOM     11  H   LIG    1       22.037 -21.412   7.535  0.00  0.00    +0.122 HD
ATOM     12  C   LIG    1       27.446 -21.213   7.210  0.00  0.00    +0.053 A 
ATOM     13  C   LIG    1       23.975 -21.837   7.995  0.00  0.00    +0.093 C 
ENDROOT
BRANCH   1  17
ATOM     14  C   LIG    1       24.872 -26.447   5.715  0.00  0.00    +0.117 A 
ATOM     15  C   LIG    1       23.747 -25.696   6.021  0.00  0.00    +0.045 A 
ATOM     16  C   LIG    1       23.892 -24.420   6.572  0.00  0.00    +0.008 A 
ATOM     17  C   LIG    1       25.163 -23.870   6.819  0.00  0.00    -0.038 A 
ATOM     18  C   LIG    1       26.284 -24.670   6.521  0.00  0.00    +0.008 A 
ATOM     19  C   LIG    1       26.141 -25.944   5.961  0.00  0.00    +0.045 A 
BRANCH  14  20
ATOM     20  O   LIG    1       24.686 -27.685   5.178  0.00  0.00    -0.507 OA
ATOM     21  H   LIG    1       25.369 -27.832   4.504  0.00  0.00    +0.292 HD
ENDBRANCH  14  20
ENDBRANCH   1  17
BRANCH   6  22
ATOM     22  O   LIG    1       29.512 -20.059   7.076  0.00  0.00    -0.503 OA
ATOM     23  H   LIG    1       30.113 -20.346   6.361  0.00  0.00    +0.292 HD
ENDBRANCH   6  22
BRANCH   5  24
ATOM     24  O   LIG    1       28.664 -18.660   4.933  0.00  0.00    -0.502 OA
ATOM     25  H   LIG    1       28.768 -18.910   3.994  0.00  0.00    +0.292 HD
ENDBRANCH   5  24
TORSDOF 4
ENDMDL
MODEL 2
REMARK VINA RESULT:      -7.2      1.209      1.638
REMARK  Name = *****
REMARK                            x       y       z     vdW  Elec       q    Type
REMARK                         _______ _______ _______ _____ _____    ______ ____
ROOT
ATOM      1  C   LIG    1       25.587 -22.283   7.068  0.00  0.00    +0.063 C 
ATOM      2  C   LIG    1       25.766 -21.148   6.052  0.00  0.00    -0.030 A 
ATOM      3  C   LIG    1       24.701 -20.653   5.250  0.00  0.00    -0.020 A 
ATOM      4  C   LIG    1       24.965 -19.584   4.362  0.00  0.00    +0.089 A 
ATOM      5  C   LIG    1       26.250 -19.040   4.268  0.00  0.00    +0.177 A 
ATOM      6  C   LIG    1       27.282 -19.544   5.043  0.00  0.00    +0.160 A 
ATOM      7 CL   LIG    1       23.734 -18.881   3.362  0.00  0.00    -0.079 Cl
ATOM      8  C   LIG    1       23.328 -21.288   5.348  0.00  0.00    +0.052 C 
ATOM      9  C   LIG    1       22.665 -21.098   6.714  0.00  0.00    +0.085 C 
ATOM     10  N   LIG    1       23.094 -22.063   7.726  0.00  0.00    -0.315 NA
ATOM     11  H   LIG    1       22.509 -21.944   8.553  0.00  0.00    +0.122 HD
ATOM     12  C   LIG    1       27.054 -20.584   5.927  0.00  0.00    +0.053 A 
ATOM     13  C   LIG    1       24.498 -21.897   8.118  0.00  0.00    +0.093 C 
ENDROOT
BRANCH   1  17
ATOM     14  C   LIG    1       25.489 -26.305   5.408  0.00  0.00    +0.117 A 
ATOM     15  C   LIG    1       25.961 -26.093   6.695  0.00  0.00    +0.045 A 
ATOM     16  C   LIG    1       25.972 -24.801   7.227  0.00  0.00    +0.008 A 
ATOM     17  C   LIG    1       25.504 -23.700   6.486  0.00  0.00    -0.038 A 
ATOM     18  C   LIG    1       25.056 -23.947   5.173  0.00  0.00    +0.008 A 
ATOM     19  C   LIG    1       25.036 -25.241   4.641  0.00  0.00    +0.045 A 
BRANCH  14  20
ATOM     20  O   LIG    1       25.494 -27.580   4.929  0.00  0.00    -0.507 OA
ATOM     21  H   LIG    1       24.655 -28.003   5.173  0.00  0.00    +0.292 HD
ENDBRANCH  14  20
ENDBRANCH   1  17
BRANCH   6  22
ATOM     22  O   LIG    1       28.537 -19.016   4.946  0.00  0.00    -0.503 OA
ATOM     23  H   LIG    1       29.132 -19.728   5.254  0.00  0.00    +0.292 HD
ENDBRANCH   6  22
BRANCH   5  24
ATOM     24  O   LIG    1       26.557 -18.003   3.421  0.00  0.00    -0.502 OA
ATOM     25  H   LIG    1       25.779 -17.876   2.844  0.00  0.00    +0.292 HD
ENDBRANCH   5  24
TORSDOF 4
ENDMDL
MODEL 3
REMARK VINA RESULT:      -7.0      2.894      5.702
REMARK  Name = *****
REMARK                            x       y       z     vdW  Elec       q    Type
REMARK                         _______ _______ _______ _____ _____    ______ ____
ROOT
ATOM      1  C   LIG    1       26.321 -20.063   7.301  0.00  0.00    +0.063 C 
ATOM      2  C   LIG    1       25.608 -20.707   6.106  0.00  0.00    -0.030 A 
ATOM      3  C   LIG    1       25.581 -22.112   5.887  0.00  0.00    -0.020 A 
ATOM      4  C   LIG    1       24.872 -22.608   4.768  0.00  0.00    +0.089 A 
ATOM      5  C   LIG    1       24.227 -21.730   3.891  0.00  0.00    +0.177 A 
ATOM      6  C   LIG    1       24.275 -20.362   4.108  0.00  0.00    +0.160 A 
ATOM      7 CL   LIG    1       24.747 -24.303   4.424  0.00  0.00    -0.079 Cl
ATOM      8  C   LIG    1       26.323 -23.035   6.834  0.00  0.00    +0.052 C 
ATOM      9  C   LIG    1       25.753 -23.036   8.254  0.00  0.00    +0.085 C 
ATOM     10  N   LIG    1       26.227 -21.932   9.088  0.00  0.00    -0.315 NA
ATOM     11  H   LIG    1       25.904 -22.087  10.044  0.00  0.00    +0.122 HD
ATOM     12  C   LIG    1       24.954 -19.847   5.198  0.00  0.00    +0.053 A 
ATOM     13  C   LIG    1       25.741 -20.622   8.638  0.00  0.00    +0.093 C 
ENDROOT
BRANCH   1  17
ATOM     14  C   LIG    1       30.653 -19.694   7.102  0.00  0.00    +0.117 A 
ATOM     15  C   LIG    1       30.040 -20.078   8.285  0.00  0.00    +0.045 A 
ATOM     16  C   LIG    1       28.650 -20.212   8.336  0.00  0.00    +0.008 A 
ATOM     17  C   LIG    1       27.850 -19.972   7.203  0.00  0.00    -0.038 A 
ATOM     18  C   LIG    1       28.503 -19.557   6.025  0.00  0.00    +0.008 A 
ATOM     19  C   LIG    1       29.896 -19.431   5.971  0.00  0.00    +0.045 A 
BRANCH  14  20
ATOM     20  O   LIG    1       32.010 -19.576   7.097  0.00  0.00    -0.507 OA
ATOM     21  H   LIG    1       32.395 -20.464   7.177  0.00  0.00    +0.292 HD
ENDBRANCH  14  20
ENDBRANCH   1  17
BRANCH   6  22
ATOM     22  O   LIG    1       23.650 -19.507   3.248  0.00  0.00    -0.503 OA
ATOM     23  H   LIG    1       24.360 -18.927   2.910  0.00  0.00    +0.292 HD
ENDBRANCH   6  22
BRANCH   5  24
ATOM     24  O   LIG    1       23.526 -22.161   2.791  0.00  0.00    -0.502 OA
ATOM     25  H   LIG    1       23.201 -21.360   2.337  0.00  0.00    +0.292 HD
ENDBRANCH   5  24
TORSDOF 4
ENDMDL
MODEL 4
REMARK VINA RESULT:      -6.8      4.615      7.702
REMARK  Name = *****
REMARK                            x       y       z     vdW  Elec       q    Type
REMARK                         _______ _______ _______ _____ _____    ______ ____
ROOT
ATOM      1  C   LIG    1       26.353 -26.522   6.682  0.00  0.00    +0.063 C 
ATOM      2  C   LIG    1       25.991 -27.672   7.632  0.00  0.00    -0.030 A 
ATOM      3  C   LIG    1       24.937 -28.589   7.367  0.00  0.00    -0.020 A 
ATOM      4  C   LIG    1       24.701 -29.631   8.293  0.00  0.00    +0.089 A 
ATOM      5  C   LIG    1       25.479 -29.743   9.450  0.00  0.00    +0.177 A 
ATOM      6  C   LIG    1       26.492 -28.831   9.703  0.00  0.00    +0.160 A 
ATOM      7 CL   LIG    1       23.465 -30.824   8.055  0.00  0.00    -0.079 Cl
ATOM      8  C   LIG    1       24.086 -28.420   6.124  0.00  0.00    +0.052 C 
ATOM      9  C   LIG    1       24.865 -28.617   4.821  0.00  0.00    +0.085 C 
ATOM     10  N   LIG    1       25.602 -27.433   4.380  0.00  0.00    -0.315 NA
ATOM     11  H   LIG    1       25.977 -27.614   3.449  0.00  0.00    +0.122 HD
ATOM     12  C   LIG    1       26.753 -27.806   8.812  0.00  0.00    +0.053 A 
ATOM     13  C   LIG    1       26.714 -27.084   5.272  0.00  0.00    +0.093 C 
ENDROOT
BRANCH   1  17
ATOM     14  C   LIG    1       23.724 -23.062   6.914  0.00  0.00    +0.117 A 
ATOM     15  C   LIG    1       25.076 -22.930   7.195  0.00  0.00    +0.045 A 
ATOM     16  C   LIG    1       25.916 -24.042   7.100  0.00  0.00    +0.008 A 
ATOM     17  C   LIG    1       25.422 -25.303   6.716  0.00  0.00    -0.038 A 
ATOM     18  C   LIG    1       24.040 -25.407   6.464  0.00  0.00    +0.008 A 
ATOM     19  C   LIG    1       23.198 -24.292   6.549  0.00  0.00    +0.045 A 
BRANCH  14  20
ATOM     20  O   LIG    1       22.941 -21.952   7.017  0.00  0.00    -0.507 OA
ATOM     21  H   LIG    1       23.505 -21.169   6.915  0.00  0.00    +0.292 HD
ENDBRANCH  14  20
ENDBRANCH   1  17
BRANCH   6  22
ATOM     22  O   LIG    1       27.247 -28.938  10.834  0.00  0.00    -0.503 OA
ATOM     23  H   LIG    1       28.129 -28.601  10.580  0.00  0.00    +0.292 HD
ENDBRANCH   6  22
BRANCH   5  24
ATOM     24  O   LIG    1       25.289 -30.735  10.380  0.00  0.00    -0.502 OA
ATOM     25  H   LIG    1       24.437 -30.546  10.819  0.00  0.00    +0.292 HD
ENDBRANCH   5  24
TORSDOF 4
ENDMDL
MODEL 5
REMARK VINA RESULT:      -6.5      8.378     10.152
REMARK  Name = *****
REMARK                            x       y       z     vdW  Elec       q    Type
REMARK                         _______ _______ _______ _____ _____    ______ ____
ROOT
ATOM      1  C   LIG    1       24.227 -30.362  10.101  0.00  0.00    +0.063 C 
ATOM      2  C   LIG    1       24.603 -30.594   8.632  0.00  0.00    -0.030 A 
ATOM      3  C   LIG    1       25.672 -31.442   8.233  0.00  0.00    -0.020 A 
ATOM      4  C   LIG    1       25.921 -31.611   6.851  0.00  0.00    +0.089 A 
ATOM      5  C   LIG    1       25.138 -30.943   5.903  0.00  0.00    +0.177 A 
ATOM      6  C   LIG    1       24.110 -30.108   6.307  0.00  0.00    +0.160 A 
ATOM      7 CL   LIG    1       27.177 -32.645   6.252  0.00  0.00    -0.079 Cl
ATOM      8  C   LIG    1       26.527 -32.121   9.285  0.00  0.00    +0.052 C 
ATOM      9  C   LIG    1       25.759 -33.141  10.128  0.00  0.00    +0.085 C 
ATOM     10  N   LIG    1       25.005 -32.554  11.236  0.00  0.00    -0.315 NA
ATOM     11  H   LIG    1       24.638 -33.310  11.814  0.00  0.00    +0.122 HD
ATOM     12  C   LIG    1       23.837 -29.928   7.652  0.00  0.00    +0.053 A 
ATOM     13  C   LIG    1       23.883 -31.720  10.789  0.00  0.00    +0.093 C 
ENDROOT
BRANCH   1  17
ATOM     14  C   LIG    1       26.714 -27.563  12.319  0.00  0.00    +0.117 A 
ATOM     15  C   LIG    1       25.580 -28.104  12.906  0.00  0.00    +0.045 A 
ATOM     16  C   LIG    1       24.797 -29.016  12.194  0.00  0.00    +0.008 A 
ATOM     17  C   LIG    1       25.138 -29.409  10.887  0.00  0.00    -0.038 A 
ATOM     18  C   LIG    1       26.282 -28.820  10.311  0.00  0.00    +0.008 A 
ATOM     19  C   LIG    1       27.072 -27.913  11.026  0.00  0.00    +0.045 A 
BRANCH  14  20
ATOM     20  O   LIG    1       27.450 -26.679  13.049  0.00  0.00    -0.507 OA
ATOM     21  H   LIG    1       28.258 -27.126  13.349  0.00  0.00    +0.292 HD
ENDBRANCH  14  20
ENDBRANCH   1  17
BRANCH   6  22
ATOM     22  O   LIG    1       23.351 -29.453   5.381  0.00  0.00    -0.503 OA
ATOM     23  H   LIG    1       22.471 -29.360   5.799  0.00  0.00    +0.292 HD
ENDBRANCH   6  22
BRANCH   5  24
ATOM     24  O   LIG    1       25.339 -31.073   4.550  0.00  0.00    -0.502 OA
ATOM     25  H   LIG    1       26.305 -31.126   4.417  0.00  0.00    +0.292 HD
ENDBRANCH   5  24
TORSDOF 4
ENDMDL
MODEL 6
REMARK VINA RESULT:      -6.3      6.367      9.038
REMARK  Name = *****
REMARK                            x       y       z     vdW  Elec       q    Type
REMARK                         _______ _______ _______ _____ _____    ______ ____
ROOT
ATOM      1  C   LIG    1       25.765 -30.153   8.243  0.00  0.00    +0.063 C 
ATOM      2  C   LIG    1       26.088 -29.874   9.716  0.00  0.00    -0.030 A 
ATOM      3  C   LIG    1       25.083 -29.683  10.704  0.00  0.00    -0.020 A 
ATOM      4  C   LIG    1       25.485 -29.458  12.042  0.00  0.00    +0.089 A 
ATOM      5  C   LIG    1       26.843 -29.410  12.376  0.00  0.00    +0.177 A 
ATOM      6  C   LIG    1       27.810 -29.582  11.400  0.00  0.00    +0.160 A 
ATOM      7 CL   LIG    1       24.346 -29.244  13.332  0.00  0.00    -0.079 Cl
ATOM      8  C   LIG    1       23.621 -29.701  10.304  0.00  0.00    +0.052 C 
ATOM      9  C   LIG    1       23.148 -31.063   9.790  0.00  0.00    +0.085 C 
ATOM     10  N   LIG    1       23.453 -31.307   8.380  0.00  0.00    -0.315 NA
ATOM     11  H   LIG    1       22.990 -32.170   8.094  0.00  0.00    +0.122 HD
ATOM     12  C   LIG    1       27.449 -29.812  10.084  0.00  0.00    +0.053 A 
ATOM     13  C   LIG    1       24.892 -31.440   8.119  0.00  0.00    +0.093 C 
ENDROOT
BRANCH   1  17
ATOM     14  C   LIG    1       24.581 -26.769   5.775  0.00  0.00    +0.117 A 
ATOM     15  C   LIG    1       24.057 -28.029   5.528  0.00  0.00    +0.045 A 
ATOM     16  C   LIG    1       24.428 -29.107   6.336  0.00  0.00    +0.008 A 
ATOM     17  C   LIG    1       25.323 -28.942   7.410  0.00  0.00    -0.038 A 
ATOM     18  C   LIG    1       25.856 -27.654   7.616  0.00  0.00    +0.008 A 
ATOM     19  C   LIG    1       25.479 -26.572   6.813  0.00  0.00    +0.045 A 
BRANCH  14  20
ATOM     20  O   LIG    1       24.192 -25.747   4.963  0.00  0.00    -0.507 OA
ATOM     21  H   LIG    1       23.753 -26.125   4.184  0.00  0.00    +0.292 HD
ENDBRANCH  14  20
ENDBRANCH   1  17
BRANCH   6  22
ATOM     22  O   LIG    1       29.134 -29.530  11.726  0.00  0.00    -0.503 OA
ATOM     23  H   LIG    1       29.599 -29.416  10.873  0.00  0.00    +0.292 HD
ENDBRANCH   6  22
BRANCH   5  24
ATOM     24  O   LIG    1       27.284 -29.194  13.659  0.00  0.00    -0.502 OA
ATOM     25  H   LIG    1       28.097 -29.726  13.766  0.00  0.00    +0.292 HD
ENDBRANCH   5  24
TORSDOF 4
ENDMDL
MODEL 7
REMARK VINA RESULT:      -6.0      7.730      9.365
REMARK  Name = *****
REMARK                            x       y       z     vdW  Elec       q    Type
REMARK                         _______ _______ _______ _____ _____    ______ ____
ROOT
ATOM      1  C   LIG    1       25.681 -31.174   9.506  0.00  0.00    +0.063 C 
ATOM      2  C   LIG    1       26.203 -30.232  10.598  0.00  0.00    -0.030 A 
ATOM      3  C   LIG    1       25.344 -29.534  11.490  0.00  0.00    -0.020 A 
ATOM      4  C   LIG    1       25.926 -28.709  12.481  0.00  0.00    +0.089 A 
ATOM      5  C   LIG    1       27.316 -28.575  12.566  0.00  0.00    +0.177 A 
ATOM      6  C   LIG    1       28.139 -29.249  11.679  0.00  0.00    +0.160 A 
ATOM      7 CL   LIG    1       24.976 -27.838  13.641  0.00  0.00    -0.079 Cl
ATOM      8  C   LIG    1       23.840 -29.669  11.349  0.00  0.00    +0.052 C 
ATOM      9  C   LIG    1       23.328 -31.083  11.632  0.00  0.00    +0.085 C 
ATOM     10  N   LIG    1       23.436 -31.997  10.494  0.00  0.00    -0.315 NA
ATOM     11  H   LIG    1       22.955 -32.865  10.730  0.00  0.00    +0.122 HD
ATOM     12  C   LIG    1       27.601 -30.069  10.704  0.00  0.00    +0.053 A 
ATOM     13  C   LIG    1       24.825 -32.313  10.142  0.00  0.00    +0.093 C 
ENDROOT
BRANCH   1  17
ATOM     14  C   LIG    1       24.135 -29.320   5.885  0.00  0.00    +0.117 A 
ATOM     15  C   LIG    1       23.994 -30.685   6.084  0.00  0.00    +0.045 A 
ATOM     16  C   LIG    1       24.477 -31.270   7.257  0.00  0.00    +0.008 A 
ATOM     17  C   LIG    1       25.102 -30.500   8.255  0.00  0.00    -0.038 A 
ATOM     18  C   LIG    1       25.253 -29.120   8.008  0.00  0.00    +0.008 A 
ATOM     19  C   LIG    1       24.762 -28.532   6.838  0.00  0.00    +0.045 A 
BRANCH  14  20
ATOM     20  O   LIG    1       23.649 -28.791   4.727  0.00  0.00    -0.507 OA
ATOM     21  H   LIG    1       23.019 -29.422   4.343  0.00  0.00    +0.292 HD
ENDBRANCH  14  20
ENDBRANCH   1  17
BRANCH   6  22
ATOM     22  O   LIG    1       29.495 -29.113  11.760  0.00  0.00    -0.503 OA
ATOM     23  H   LIG    1       29.802 -29.112  10.832  0.00  0.00    +0.292 HD
ENDBRANCH   6  22
BRANCH   5  24
ATOM     24  O   LIG    1       27.929 -27.787  13.509  0.00  0.00    -0.502 OA
ATOM     25  H   LIG    1       27.706 -26.862  13.286  0.00  0.00    +0.292 HD
ENDBRANCH   5  24
TORSDOF 4
ENDMDL
MODEL 8
REMARK VINA RESULT:      -6.0      6.677      8.870
REMARK  Name = *****
REMARK                            x       y       z     vdW  Elec       q    Type
REMARK                         _______ _______ _______ _____ _____    ______ ____
ROOT
ATOM      1  C   LIG    1       26.621 -29.273   9.490  0.00  0.00    +0.063 C 
ATOM      2  C   LIG    1       26.192 -28.707  10.850  0.00  0.00    -0.030 A 
ATOM      3  C   LIG    1       24.976 -29.071  11.489  0.00  0.00    -0.020 A 
ATOM      4  C   LIG    1       24.685 -28.513  12.755  0.00  0.00    +0.089 A 
ATOM      5  C   LIG    1       25.571 -27.610  13.354  0.00  0.00    +0.177 A 
ATOM      6  C   LIG    1       26.745 -27.253  12.711  0.00  0.00    +0.160 A 
ATOM      7 CL   LIG    1       23.246 -28.911  13.639  0.00  0.00    -0.079 Cl
ATOM      8  C   LIG    1       24.017 -30.022  10.798  0.00  0.00    +0.052 C 
ATOM      9  C   LIG    1       24.585 -31.431  10.615  0.00  0.00    +0.085 C 
ATOM     10  N   LIG    1       25.449 -31.580   9.444  0.00  0.00    -0.315 NA
ATOM     11  H   LIG    1       25.670 -32.569   9.329  0.00  0.00    +0.122 HD
ATOM     12  C   LIG    1       27.061 -27.788  11.475  0.00  0.00    +0.053 A 
ATOM     13  C   LIG    1       26.705 -30.830   9.559  0.00  0.00    +0.093 C 
ENDROOT
BRANCH   1  17
ATOM     14  C   LIG    1       24.567 -27.501   6.088  0.00  0.00    +0.117 A 
ATOM     15  C   LIG    1       25.572 -26.800   6.738  0.00  0.00    +0.045 A 
ATOM     16  C   LIG    1       26.239 -27.383   7.818  0.00  0.00    +0.008 A 
ATOM     17  C   LIG    1       25.919 -28.680   8.262  0.00  0.00    -0.038 A 
ATOM     18  C   LIG    1       24.875 -29.353   7.596  0.00  0.00    +0.008 A 
ATOM     19  C   LIG    1       24.212 -28.773   6.509  0.00  0.00    +0.045 A 
BRANCH  14  20
ATOM     20  O   LIG    1       23.944 -26.895   5.039  0.00  0.00    -0.507 OA
ATOM     21  H   LIG    1       23.199 -26.377   5.383  0.00  0.00    +0.292 HD
ENDBRANCH  14  20
ENDBRANCH   1  17
BRANCH   6  22
ATOM     22  O   LIG    1       27.606 -26.368  13.293  0.00  0.00    -0.503 OA
ATOM     23  H   LIG    1       28.046 -26.877  14.003  0.00  0.00    +0.292 HD
ENDBRANCH   6  22
BRANCH   5  24
ATOM     24  O   LIG    1       25.334 -27.040  14.581  0.00  0.00    -0.502 OA
ATOM     25  H   LIG    1       25.185 -26.088  14.420  0.00  0.00    +0.292 HD
ENDBRANCH   5  24
TORSDOF 4
ENDMDL
MODEL 9
REMARK VINA RESULT:      -5.9      7.782      8.924
REMARK  Name = *****
REMARK                            x       y       z     vdW  Elec       q    Type
REMARK                         _______ _______ _______ _____ _____    ______ ____
ROOT
ATOM      1  C   LIG    1       26.095 -29.374  11.599  0.00  0.00    +0.063 C 
ATOM      2  C   LIG    1       25.808 -28.060  12.336  0.00  0.00    -0.030 A 
ATOM      3  C   LIG    1       24.557 -27.776  12.950  0.00  0.00    -0.020 A 
ATOM      4  C   LIG    1       24.402 -26.546  13.629  0.00  0.00    +0.089 A 
ATOM      5  C   LIG    1       25.453 -25.624  13.679  0.00  0.00    +0.177 A 
ATOM      6  C   LIG    1       26.661 -25.907  13.061  0.00  0.00    +0.160 A 
ATOM      7 CL   LIG    1       22.932 -26.111  14.441  0.00  0.00    -0.079 Cl
ATOM      8  C   LIG    1       23.423 -28.778  12.847  0.00  0.00    +0.052 C 
ATOM      9  C   LIG    1       23.711 -30.099  13.563  0.00  0.00    +0.085 C 
ATOM     10  N   LIG    1       24.509 -31.043  12.780  0.00  0.00    -0.315 NA
ATOM     11  H   LIG    1       24.538 -31.933  13.277  0.00  0.00    +0.122 HD
ATOM     12  C   LIG    1       26.847 -27.106  12.396  0.00  0.00    +0.053 A 
ATOM     13  C   LIG    1       25.886 -30.586  12.560  0.00  0.00    +0.093 C 
ENDROOT
BRANCH   1  17
ATOM     14  C   LIG    1       24.346 -29.611   7.621  0.00  0.00    +0.117 A 
ATOM     15  C   LIG    1       25.481 -28.845   7.839  0.00  0.00    +0.045 A 
ATOM     16  C   LIG    1       26.047 -28.788   9.115  0.00  0.00    +0.008 A 
ATOM     17  C   LIG    1       25.494 -29.503  10.193  0.00  0.00    -0.038 A 
ATOM     18  C   LIG    1       24.325 -30.250   9.943  0.00  0.00    +0.008 A 
ATOM     19  C   LIG    1       23.762 -30.314   8.664  0.00  0.00    +0.045 A 
BRANCH  14  20
ATOM     20  O   LIG    1       23.828 -29.639   6.362  0.00  0.00    -0.507 OA
ATOM     21  H   LIG    1       24.407 -30.183   5.804  0.00  0.00    +0.292 HD
ENDBRANCH  14  20
ENDBRANCH   1  17
BRANCH   6  22
ATOM     22  O   LIG    1       27.684 -25.006  13.106  0.00  0.00    -0.503 OA
ATOM     23  H   LIG    1       27.264 -24.162  13.365  0.00  0.00    +0.292 HD
ENDBRANCH   6  22
BRANCH   5  24
ATOM     24  O   LIG    1       25.352 -24.416  14.324  0.00  0.00    -0.502 OA
ATOM     25  H   LIG    1       24.469 -24.059  14.109  0.00  0.00    +0.292 HD
ENDBRANCH   5  24
TORSDOF 4
ENDMDL
