MODEL 1
REMARK VINA RESULT:      -3.3      0.000      0.000
REMARK  Name = *****
REMARK                            x       y       z     vdW  Elec       q    Type
REMARK                         _______ _______ _______ _____ _____    ______ ____
ROOT
ATOM      1  C   LIG    1       25.541 -14.366   3.398  0.00  0.00    +0.019 A 
ATOM      2  C   LIG    1       25.795 -15.751   3.407  0.00  0.00    +0.035 A 
ATOM      3  C   LIG    1       24.829 -16.721   3.764  0.00  0.00    +0.049 A 
ATOM      4  N   LIG    1       25.107 -18.124   3.776  0.00  0.00    -0.298 N 
ATOM      5  C   LIG    1       24.192 -19.147   4.181  0.00  0.00    +0.048 A 
ATOM      6  C   LIG    1       22.857 -18.857   4.533  0.00  0.00    +0.034 A 
ATOM      7  S   LIG    1       22.169 -17.223   4.554  0.00  0.00    -0.086 S 
ATOM      8  C   LIG    1       21.957 -19.879   4.906  0.00  0.00    +0.017 A 
ATOM      9  C   LIG    1       22.356 -21.207   4.951  0.00  0.00    +0.001 A 
ATOM     10  C   LIG    1       23.663 -21.524   4.630  0.00  0.00    +0.002 A 
ATOM     11  C   LIG    1       24.559 -20.512   4.257  0.00  0.00    +0.024 A 
ATOM     12  C   LIG    1       23.558 -16.215   4.111  0.00  0.00    +0.034 A 
ATOM     13  C   LIG    1       23.298 -14.829   4.114  0.00  0.00    +0.017 A 
ATOM     14  C   LIG    1       24.275 -13.907   3.764  0.00  0.00    +0.012 A 
ENDROOT
BRANCH   1  16
ATOM     15  C   LIG    1       27.987 -13.587   3.646  0.00  0.00    +0.091 C 
ATOM     16  C   LIG    1       26.632 -13.426   3.010  0.00  0.00    +0.160 C 
ATOM     17  O   LIG    1       26.415 -12.534   2.182  0.00  0.00    -0.292 OA
ENDBRANCH   1  16
BRANCH   4  18
ATOM     18  C   LIG    1       26.489 -18.551   3.415  0.00  0.00    +0.112 C 
BRANCH  18  19
ATOM     19  C   LIG    1       27.436 -18.396   4.614  0.00  0.00    +0.035 C 
BRANCH  19  20
ATOM     20  C   LIG    1       28.005 -19.728   5.128  0.00  0.00    +0.085 C 
BRANCH  20  21
ATOM     21  N   LIG    1       27.976 -19.908   6.590  0.00  0.00    -0.308 NA
ATOM     22  C   LIG    1       29.062 -20.807   7.004  0.00  0.00    +0.104 C 
ATOM     23  C   LIG    1       26.701 -20.456   7.061  0.00  0.00    +0.104 C 
ENDBRANCH  20  21
ENDBRANCH  19  20
ENDBRANCH  18  19
ENDBRANCH   4  18
TORSDOF 5
ENDMDL
MODEL 2
REMARK VINA RESULT:      -2.8      2.409      5.941
REMARK  Name = *****
REMARK                            x       y       z     vdW  Elec       q    Type
REMARK                         _______ _______ _______ _____ _____    ______ ____
ROOT
ATOM      1  C   LIG    1       22.068 -19.392   4.180  0.00  0.00    +0.019 A 
ATOM      2  C   LIG    1       23.410 -19.037   3.942  0.00  0.00    +0.035 A 
ATOM      3  C   LIG    1       24.496 -19.537   4.697  0.00  0.00    +0.049 A 
ATOM      4  N   LIG    1       25.853 -19.159   4.447  0.00  0.00    -0.298 N 
ATOM      5  C   LIG    1       26.986 -19.585   5.209  0.00  0.00    +0.048 A 
ATOM      6  C   LIG    1       26.870 -20.520   6.258  0.00  0.00    +0.034 A 
ATOM      7  S   LIG    1       25.336 -21.241   6.780  0.00  0.00    -0.086 S 
ATOM      8  C   LIG    1       28.000 -20.952   6.987  0.00  0.00    +0.017 A 
ATOM      9  C   LIG    1       29.268 -20.462   6.703  0.00  0.00    +0.001 A 
ATOM     10  C   LIG    1       29.414 -19.530   5.692  0.00  0.00    +0.002 A 
ATOM     11  C   LIG    1       28.294 -19.101   4.966  0.00  0.00    +0.024 A 
ATOM     12  C   LIG    1       24.157 -20.443   5.724  0.00  0.00    +0.034 A 
ATOM     13  C   LIG    1       22.816 -20.796   5.975  0.00  0.00    +0.017 A 
ATOM     14  C   LIG    1       21.775 -20.279   5.216  0.00  0.00    +0.012 A 
ENDROOT
BRANCH   1  16
ATOM     15  C   LIG    1       19.584 -19.303   3.492  0.00  0.00    +0.091 C 
ATOM     16  C   LIG    1       20.994 -18.802   3.328  0.00  0.00    +0.160 C 
ATOM     17  O   LIG    1       21.269 -17.921   2.507  0.00  0.00    -0.292 OA
ENDBRANCH   1  16
BRANCH   4  18
ATOM     18  C   LIG    1       26.099 -18.175   3.353  0.00  0.00    +0.112 C 
BRANCH  18  19
ATOM     19  C   LIG    1       25.541 -16.795   3.727  0.00  0.00    +0.035 C 
BRANCH  19  20
ATOM     20  C   LIG    1       26.484 -15.633   3.381  0.00  0.00    +0.085 C 
BRANCH  20  21
ATOM     21  N   LIG    1       25.999 -14.291   3.747  0.00  0.00    -0.308 NA
ATOM     22  C   LIG    1       26.037 -13.408   2.574  0.00  0.00    +0.104 C 
ATOM     23  C   LIG    1       26.789 -13.685   4.822  0.00  0.00    +0.104 C 
ENDBRANCH  20  21
ENDBRANCH  19  20
ENDBRANCH  18  19
ENDBRANCH   4  18
TORSDOF 5
ENDMDL
MODEL 3
REMARK VINA RESULT:      -2.8      2.233      5.422
REMARK  Name = *****
REMARK                            x       y       z     vdW  Elec       q    Type
REMARK                         _______ _______ _______ _____ _____    ______ ____
ROOT
ATOM      1  C   LIG    1       23.258 -19.384   4.316  0.00  0.00    +0.019 A 
ATOM      2  C   LIG    1       24.478 -18.740   4.037  0.00  0.00    +0.035 A 
ATOM      3  C   LIG    1       24.617 -17.337   3.937  0.00  0.00    +0.049 A 
ATOM      4  N   LIG    1       25.863 -16.699   3.643  0.00  0.00    -0.298 N 
ATOM      5  C   LIG    1       26.055 -15.292   3.473  0.00  0.00    +0.048 A 
ATOM      6  C   LIG    1       25.009 -14.367   3.674  0.00  0.00    +0.034 A 
ATOM      7  S   LIG    1       23.354 -14.823   4.116  0.00  0.00    -0.086 S 
ATOM      8  C   LIG    1       25.218 -12.978   3.528  0.00  0.00    +0.017 A 
ATOM      9  C   LIG    1       26.459 -12.472   3.169  0.00  0.00    +0.001 A 
ATOM     10  C   LIG    1       27.502 -13.353   2.947  0.00  0.00    +0.002 A 
ATOM     11  C   LIG    1       27.299 -14.732   3.094  0.00  0.00    +0.024 A 
ATOM     12  C   LIG    1       23.436 -16.593   4.146  0.00  0.00    +0.034 A 
ATOM     13  C   LIG    1       22.208 -17.229   4.416  0.00  0.00    +0.017 A 
ATOM     14  C   LIG    1       22.110 -18.612   4.501  0.00  0.00    +0.012 A 
ENDROOT
BRANCH   1  16
ATOM     15  C   LIG    1       22.120 -21.527   5.190  0.00  0.00    +0.091 C 
ATOM     16  C   LIG    1       23.218 -20.874   4.396  0.00  0.00    +0.160 C 
ATOM     17  O   LIG    1       24.078 -21.547   3.817  0.00  0.00    -0.292 OA
ENDBRANCH   1  16
BRANCH   4  18
ATOM     18  C   LIG    1       27.045 -17.580   3.416  0.00  0.00    +0.112 C 
BRANCH  18  19
ATOM     19  C   LIG    1       27.885 -17.702   4.695  0.00  0.00    +0.035 C 
BRANCH  19  20
ATOM     20  C   LIG    1       28.373 -19.131   4.980  0.00  0.00    +0.085 C 
BRANCH  20  21
ATOM     21  N   LIG    1       28.039 -19.664   6.311  0.00  0.00    -0.308 NA
ATOM     22  C   LIG    1       29.128 -20.522   6.796  0.00  0.00    +0.104 C 
ATOM     23  C   LIG    1       26.793 -20.435   6.308  0.00  0.00    +0.104 C 
ENDBRANCH  20  21
ENDBRANCH  19  20
ENDBRANCH  18  19
ENDBRANCH   4  18
TORSDOF 5
ENDMDL
MODEL 4
REMARK VINA RESULT:      -1.7      2.782      5.683
REMARK  Name = *****
REMARK                            x       y       z     vdW  Elec       q    Type
REMARK                         _______ _______ _______ _____ _____    ______ ____
ROOT
ATOM      1  C   LIG    1       27.316 -20.552   6.278  0.00  0.00    +0.019 A 
ATOM      2  C   LIG    1       26.597 -19.747   5.375  0.00  0.00    +0.035 A 
ATOM      3  C   LIG    1       25.194 -19.816   5.211  0.00  0.00    +0.049 A 
ATOM      4  N   LIG    1       24.480 -18.995   4.282  0.00  0.00    -0.298 N 
ATOM      5  C   LIG    1       23.073 -19.058   4.031  0.00  0.00    +0.048 A 
ATOM      6  C   LIG    1       22.221 -19.905   4.770  0.00  0.00    +0.034 A 
ATOM      7  S   LIG    1       22.777 -21.003   6.047  0.00  0.00    -0.086 S 
ATOM      8  C   LIG    1       20.830 -19.939   4.530  0.00  0.00    +0.017 A 
ATOM      9  C   LIG    1       20.250 -19.147   3.549  0.00  0.00    +0.001 A 
ATOM     10  C   LIG    1       21.060 -18.318   2.794  0.00  0.00    +0.002 A 
ATOM     11  C   LIG    1       22.441 -18.280   3.031  0.00  0.00    +0.024 A 
ATOM     12  C   LIG    1       24.532 -20.754   6.031  0.00  0.00    +0.034 A 
ATOM     13  C   LIG    1       25.245 -21.572   6.931  0.00  0.00    +0.017 A 
ATOM     14  C   LIG    1       26.624 -21.479   7.058  0.00  0.00    +0.012 A 
ENDROOT
BRANCH   1  16
ATOM     15  C   LIG    1       29.440 -19.174   5.787  0.00  0.00    +0.091 C 
ATOM     16  C   LIG    1       28.798 -20.404   6.370  0.00  0.00    +0.160 C 
ATOM     17  O   LIG    1       29.475 -21.282   6.916  0.00  0.00    -0.292 OA
ENDBRANCH   1  16
BRANCH   4  18
ATOM     18  C   LIG    1       25.279 -18.053   3.447  0.00  0.00    +0.112 C 
BRANCH  18  19
ATOM     19  C   LIG    1       25.000 -16.599   3.852  0.00  0.00    +0.035 C 
BRANCH  19  20
ATOM     20  C   LIG    1       26.102 -15.616   3.425  0.00  0.00    +0.085 C 
BRANCH  20  21
ATOM     21  N   LIG    1       25.777 -14.189   3.587  0.00  0.00    -0.308 NA
ATOM     22  C   LIG    1       24.423 -14.042   4.137  0.00  0.00    +0.104 C 
ATOM     23  C   LIG    1       25.857 -13.450   2.323  0.00  0.00    +0.104 C 
ENDBRANCH  20  21
ENDBRANCH  19  20
ENDBRANCH  18  19
ENDBRANCH   4  18
TORSDOF 5
ENDMDL
