MODEL 1
REMARK VINA RESULT:      -6.1      0.000      0.000
REMARK  Name = *****
REMARK                            x       y       z     vdW  Elec       q    Type
REMARK                         _______ _______ _______ _____ _____    ______ ____
ROOT
ATOM      1  C   LIG    1       24.945 -13.275   2.710  0.00  0.00    +0.165 C 
ATOM      2  O   LIG    1       25.220 -12.265   2.073  0.00  0.00    -0.294 OA
ENDROOT
BRANCH   1   3
ATOM      3  C   LIG    1       25.807 -14.476   2.634  0.00  0.00    +0.223 C 
ATOM      4  C   LIG    1       27.164 -14.578   3.289  0.00  0.00    +0.240 C 
ATOM      5  O   LIG    1       27.020 -14.275   1.883  0.00  0.00    -0.350 OA
BRANCH   4   6
ATOM      6  C   LIG    1       27.764 -13.521   4.129  0.00  0.00    +0.242 C 
ATOM      7  O   LIG    1       27.340 -13.291   5.252  0.00  0.00    -0.273 OA
ATOM      8  N   LIG    1       28.867 -12.888   3.615  0.00  0.00    -0.327 N 
ATOM      9  H   LIG    1       29.158 -13.024   2.659  0.00  0.00    +0.145 HD
ATOM     10  H   LIG    1       29.274 -12.136   4.160  0.00  0.00    +0.145 HD
ENDBRANCH   4   6
ENDBRANCH   1   3
BRANCH   1  11
ATOM     11  C   LIG    1       23.775 -13.366   3.671  0.00  0.00    +0.081 C 
BRANCH  11  12
ATOM     12  C   LIG    1       23.939 -14.554   4.617  0.00  0.00    +0.034 C 
BRANCH  12  14
ATOM     13  C   LIG    1       23.118 -16.916   4.385  0.00  0.00    -0.027 C 
ATOM     14  C   LIG    1       22.870 -15.596   4.425  0.00  0.00    -0.030 C 
BRANCH  13  15
ATOM     15  C   LIG    1       22.054 -17.973   4.294  0.00  0.00    +0.053 C 
BRANCH  15  18
ATOM     16  C   LIG    1       24.265 -20.073   3.514  0.00  0.00    +0.035 C 
ATOM     17  C   LIG    1       23.396 -20.093   4.732  0.00  0.00    -0.034 C 
ATOM     18  C   LIG    1       22.430 -19.215   5.052  0.00  0.00    -0.027 C 
ENDBRANCH  15  18
ENDBRANCH  13  15
ENDBRANCH  12  14
ENDBRANCH  11  12
ENDBRANCH   1  11
TORSDOF 7
ENDMDL
MODEL 2
REMARK VINA RESULT:      -6.0      3.763      6.341
REMARK  Name = *****
REMARK                            x       y       z     vdW  Elec       q    Type
REMARK                         _______ _______ _______ _____ _____    ______ ____
ROOT
ATOM      1  C   LIG    1       23.387 -19.426   4.317  0.00  0.00    +0.165 C 
ATOM      2  O   LIG    1       24.102 -18.936   3.451  0.00  0.00    -0.294 OA
ENDROOT
BRANCH   1   3
ATOM      3  C   LIG    1       23.529 -20.849   4.700  0.00  0.00    +0.223 C 
ATOM      4  C   LIG    1       24.734 -21.409   5.419  0.00  0.00    +0.240 C 
ATOM      5  O   LIG    1       24.573 -21.542   3.988  0.00  0.00    -0.350 OA
BRANCH   4   6
ATOM      6  C   LIG    1       25.880 -20.597   5.877  0.00  0.00    +0.242 C 
ATOM      7  O   LIG    1       26.048 -20.354   7.062  0.00  0.00    -0.273 OA
ATOM      8  N   LIG    1       26.781 -20.219   4.913  0.00  0.00    -0.327 N 
ATOM      9  H   LIG    1       26.593 -20.352   3.932  0.00  0.00    +0.145 HD
ATOM     10  H   LIG    1       27.558 -19.633   5.199  0.00  0.00    +0.145 HD
ENDBRANCH   4   6
ENDBRANCH   1   3
BRANCH   1  11
ATOM     11  C   LIG    1       22.371 -18.630   5.114  0.00  0.00    +0.081 C 
BRANCH  11  12
ATOM     12  C   LIG    1       21.937 -17.382   4.347  0.00  0.00    +0.034 C 
BRANCH  12  14
ATOM     13  C   LIG    1       23.350 -15.329   4.042  0.00  0.00    -0.027 C 
ATOM     14  C   LIG    1       22.627 -16.136   4.836  0.00  0.00    -0.030 C 
BRANCH  13  15
ATOM     15  C   LIG    1       23.962 -14.031   4.491  0.00  0.00    +0.053 C 
BRANCH  15  18
ATOM     16  C   LIG    1       26.347 -13.913   2.441  0.00  0.00    +0.035 C 
ATOM     17  C   LIG    1       25.134 -13.039   2.459  0.00  0.00    -0.034 C 
ATOM     18  C   LIG    1       24.128 -13.066   3.351  0.00  0.00    -0.027 C 
ENDBRANCH  15  18
ENDBRANCH  13  15
ENDBRANCH  12  14
ENDBRANCH  11  12
ENDBRANCH   1  11
TORSDOF 7
ENDMDL
MODEL 3
REMARK VINA RESULT:      -5.9      4.218      6.982
REMARK  Name = *****
REMARK                            x       y       z     vdW  Elec       q    Type
REMARK                         _______ _______ _______ _____ _____    ______ ____
ROOT
ATOM      1  C   LIG    1       25.651 -19.414   3.963  0.00  0.00    +0.165 C 
ATOM      2  O   LIG    1       26.503 -19.636   4.814  0.00  0.00    -0.294 OA
ENDROOT
BRANCH   1   3
ATOM      3  C   LIG    1       24.699 -20.469   3.551  0.00  0.00    +0.223 C 
ATOM      4  C   LIG    1       23.420 -20.782   4.290  0.00  0.00    +0.240 C 
ATOM      5  O   LIG    1       24.616 -21.572   4.475  0.00  0.00    -0.350 OA
BRANCH   4   6
ATOM      6  C   LIG    1       22.939 -20.035   5.471  0.00  0.00    +0.242 C 
ATOM      7  O   LIG    1       22.336 -18.980   5.348  0.00  0.00    -0.273 OA
ATOM      8  N   LIG    1       23.126 -20.638   6.689  0.00  0.00    -0.327 N 
ATOM      9  H   LIG    1       23.695 -21.464   6.789  0.00  0.00    +0.145 HD
ATOM     10  H   LIG    1       22.834 -20.129   7.516  0.00  0.00    +0.145 HD
ENDBRANCH   4   6
ENDBRANCH   1   3
BRANCH   1  11
ATOM     11  C   LIG    1       25.441 -18.054   3.323  0.00  0.00    +0.081 C 
BRANCH  11  12
ATOM     12  C   LIG    1       26.649 -17.150   3.560  0.00  0.00    +0.034 C 
BRANCH  12  14
ATOM     13  C   LIG    1       27.223 -14.706   3.489  0.00  0.00    -0.027 C 
ATOM     14  C   LIG    1       26.357 -15.705   3.252  0.00  0.00    -0.030 C 
BRANCH  13  15
ATOM     15  C   LIG    1       26.988 -13.274   3.097  0.00  0.00    +0.053 C 
BRANCH  15  18
ATOM     16  C   LIG    1       24.163 -12.686   4.354  0.00  0.00    +0.035 C 
ATOM     17  C   LIG    1       24.490 -12.818   2.900  0.00  0.00    -0.034 C 
ATOM     18  C   LIG    1       25.689 -13.099   2.362  0.00  0.00    -0.027 C 
ENDBRANCH  15  18
ENDBRANCH  13  15
ENDBRANCH  12  14
ENDBRANCH  11  12
ENDBRANCH   1  11
TORSDOF 7
ENDMDL
MODEL 4
REMARK VINA RESULT:      -5.8      2.042      3.271
REMARK  Name = *****
REMARK                            x       y       z     vdW  Elec       q    Type
REMARK                         _______ _______ _______ _____ _____    ______ ____
ROOT
ATOM      1  C   LIG    1       27.007 -15.194   3.655  0.00  0.00    +0.165 C 
ATOM      2  O   LIG    1       27.881 -15.394   4.489  0.00  0.00    -0.294 OA
ENDROOT
BRANCH   1   3
ATOM      3  C   LIG    1       27.004 -13.959   2.841  0.00  0.00    +0.223 C 
ATOM      4  C   LIG    1       25.884 -12.946   2.854  0.00  0.00    +0.240 C 
ATOM      5  O   LIG    1       25.995 -13.941   1.812  0.00  0.00    -0.350 OA
BRANCH   4   6
ATOM      6  C   LIG    1       24.692 -13.036   3.723  0.00  0.00    +0.242 C 
ATOM      7  O   LIG    1       24.681 -12.528   4.834  0.00  0.00    -0.273 OA
ATOM      8  N   LIG    1       23.586 -13.636   3.177  0.00  0.00    -0.327 N 
ATOM      9  H   LIG    1       23.629 -14.124   2.296  0.00  0.00    +0.145 HD
ATOM     10  H   LIG    1       22.767 -13.739   3.767  0.00  0.00    +0.145 HD
ENDBRANCH   4   6
ENDBRANCH   1   3
BRANCH   1  11
ATOM     11  C   LIG    1       25.917 -16.198   3.328  0.00  0.00    +0.081 C 
BRANCH  11  12
ATOM     12  C   LIG    1       26.469 -17.623   3.339  0.00  0.00    +0.034 C 
BRANCH  12  14
ATOM     13  C   LIG    1       25.430 -19.770   4.125  0.00  0.00    -0.027 C 
ATOM     14  C   LIG    1       25.381 -18.662   3.365  0.00  0.00    -0.030 C 
BRANCH  13  15
ATOM     15  C   LIG    1       24.311 -20.766   4.238  0.00  0.00    +0.053 C 
BRANCH  15  18
ATOM     16  C   LIG    1       22.046 -18.591   4.445  0.00  0.00    +0.035 C 
ATOM     17  C   LIG    1       22.442 -19.578   5.497  0.00  0.00    -0.034 C 
ATOM     18  C   LIG    1       23.430 -20.488   5.423  0.00  0.00    -0.027 C 
ENDBRANCH  15  18
ENDBRANCH  13  15
ENDBRANCH  12  14
ENDBRANCH  11  12
ENDBRANCH   1  11
TORSDOF 7
ENDMDL
MODEL 5
REMARK VINA RESULT:      -5.8      1.299      1.551
REMARK  Name = *****
REMARK                            x       y       z     vdW  Elec       q    Type
REMARK                         _______ _______ _______ _____ _____    ______ ____
ROOT
ATOM      1  C   LIG    1       24.455 -13.872   3.690  0.00  0.00    +0.165 C 
ATOM      2  O   LIG    1       24.156 -12.887   4.354  0.00  0.00    -0.294 OA
ENDROOT
BRANCH   1   3
ATOM      3  C   LIG    1       25.276 -13.740   2.466  0.00  0.00    +0.223 C 
ATOM      4  C   LIG    1       26.785 -13.810   2.454  0.00  0.00    +0.240 C 
ATOM      5  O   LIG    1       26.083 -12.546   2.432  0.00  0.00    -0.350 OA
BRANCH   4   6
ATOM      6  C   LIG    1       27.613 -14.079   3.647  0.00  0.00    +0.242 C 
ATOM      7  O   LIG    1       28.052 -13.167   4.331  0.00  0.00    -0.273 OA
ATOM      8  N   LIG    1       27.779 -15.398   3.987  0.00  0.00    -0.327 N 
ATOM      9  H   LIG    1       27.486 -16.143   3.375  0.00  0.00    +0.145 HD
ATOM     10  H   LIG    1       28.371 -15.608   4.783  0.00  0.00    +0.145 HD
ENDBRANCH   4   6
ENDBRANCH   1   3
BRANCH   1  11
ATOM     11  C   LIG    1       24.093 -15.291   4.087  0.00  0.00    +0.081 C 
BRANCH  11  12
ATOM     12  C   LIG    1       22.781 -15.319   4.868  0.00  0.00    +0.034 C 
BRANCH  12  14
ATOM     13  C   LIG    1       22.728 -17.776   4.352  0.00  0.00    -0.027 C 
ATOM     14  C   LIG    1       22.156 -16.689   4.895  0.00  0.00    -0.030 C 
BRANCH  13  15
ATOM     15  C   LIG    1       22.167 -19.167   4.456  0.00  0.00    +0.053 C 
BRANCH  15  18
ATOM     16  C   LIG    1       24.972 -20.595   4.477  0.00  0.00    +0.035 C 
ATOM     17  C   LIG    1       23.994 -20.518   5.606  0.00  0.00    -0.034 C 
ATOM     18  C   LIG    1       22.782 -19.936   5.591  0.00  0.00    -0.027 C 
ENDBRANCH  15  18
ENDBRANCH  13  15
ENDBRANCH  12  14
ENDBRANCH  11  12
ENDBRANCH   1  11
TORSDOF 7
ENDMDL
MODEL 6
REMARK VINA RESULT:      -5.7      2.222      3.338
REMARK  Name = *****
REMARK                            x       y       z     vdW  Elec       q    Type
REMARK                         _______ _______ _______ _____ _____    ______ ____
ROOT
ATOM      1  C   LIG    1       26.868 -15.243   3.338  0.00  0.00    +0.165 C 
ATOM      2  O   LIG    1       26.846 -14.820   2.188  0.00  0.00    -0.294 OA
ENDROOT
BRANCH   1   3
ATOM      3  C   LIG    1       26.812 -14.313   4.487  0.00  0.00    +0.223 C 
ATOM      4  C   LIG    1       25.591 -13.502   4.853  0.00  0.00    +0.240 C 
ATOM      5  O   LIG    1       26.689 -12.927   4.110  0.00  0.00    -0.350 OA
BRANCH   4   6
ATOM      6  C   LIG    1       24.295 -13.586   4.148  0.00  0.00    +0.242 C 
ATOM      7  O   LIG    1       23.480 -14.453   4.427  0.00  0.00    -0.273 OA
ATOM      8  N   LIG    1       24.030 -12.591   3.242  0.00  0.00    -0.327 N 
ATOM      9  H   LIG    1       24.737 -11.931   2.959  0.00  0.00    +0.145 HD
ATOM     10  H   LIG    1       23.161 -12.647   2.722  0.00  0.00    +0.145 HD
ENDBRANCH   4   6
ENDBRANCH   1   3
BRANCH   1  11
ATOM     11  C   LIG    1       26.873 -16.719   3.687  0.00  0.00    +0.081 C 
BRANCH  11  12
ATOM     12  C   LIG    1       25.696 -17.438   3.030  0.00  0.00    +0.034 C 
BRANCH  12  14
ATOM     13  C   LIG    1       24.164 -19.319   3.678  0.00  0.00    -0.027 C 
ATOM     14  C   LIG    1       25.383 -18.753   3.692  0.00  0.00    -0.030 C 
BRANCH  13  15
ATOM     15  C   LIG    1       23.857 -20.676   4.246  0.00  0.00    +0.053 C 
BRANCH  15  18
ATOM     16  C   LIG    1       25.256 -20.821   7.062  0.00  0.00    +0.035 C 
ATOM     17  C   LIG    1       23.799 -20.615   6.792  0.00  0.00    -0.034 C 
ATOM     18  C   LIG    1       23.194 -20.584   5.592  0.00  0.00    -0.027 C 
ENDBRANCH  15  18
ENDBRANCH  13  15
ENDBRANCH  12  14
ENDBRANCH  11  12
ENDBRANCH   1  11
TORSDOF 7
ENDMDL
MODEL 7
REMARK VINA RESULT:      -5.6      4.054      6.540
REMARK  Name = *****
REMARK                            x       y       z     vdW  Elec       q    Type
REMARK                         _______ _______ _______ _____ _____    ______ ____
ROOT
ATOM      1  C   LIG    1       22.173 -18.537   4.435  0.00  0.00    +0.165 C 
ATOM      2  O   LIG    1       21.164 -18.747   3.772  0.00  0.00    -0.294 OA
ENDROOT
BRANCH   1   3
ATOM      3  C   LIG    1       22.596 -19.483   5.491  0.00  0.00    +0.223 C 
ATOM      4  C   LIG    1       23.670 -20.528   5.302  0.00  0.00    +0.240 C 
ATOM      5  O   LIG    1       22.266 -20.857   5.208  0.00  0.00    -0.350 OA
BRANCH   4   6
ATOM      6  C   LIG    1       24.465 -20.688   4.067  0.00  0.00    +0.242 C 
ATOM      7  O   LIG    1       23.984 -21.201   3.068  0.00  0.00    -0.273 OA
ATOM      8  N   LIG    1       25.727 -20.150   4.082  0.00  0.00    -0.327 N 
ATOM      9  H   LIG    1       26.145 -19.804   4.932  0.00  0.00    +0.145 HD
ATOM     10  H   LIG    1       26.303 -20.277   3.257  0.00  0.00    +0.145 HD
ENDBRANCH   4   6
ENDBRANCH   1   3
BRANCH   1  11
ATOM     11  C   LIG    1       23.104 -17.364   4.193  0.00  0.00    +0.081 C 
BRANCH  11  12
ATOM     12  C   LIG    1       22.508 -16.072   4.749  0.00  0.00    +0.034 C 
BRANCH  12  14
ATOM     13  C   LIG    1       23.810 -14.255   3.605  0.00  0.00    -0.027 C 
ATOM     14  C   LIG    1       23.485 -14.928   4.722  0.00  0.00    -0.030 C 
BRANCH  13  15
ATOM     15  C   LIG    1       24.706 -13.049   3.575  0.00  0.00    +0.053 C 
BRANCH  15  18
ATOM     16  C   LIG    1       27.348 -14.751   3.755  0.00  0.00    +0.035 C 
ATOM     17  C   LIG    1       26.889 -13.924   2.596  0.00  0.00    -0.034 C 
ATOM     18  C   LIG    1       25.777 -13.171   2.528  0.00  0.00    -0.027 C 
ENDBRANCH  15  18
ENDBRANCH  13  15
ENDBRANCH  12  14
ENDBRANCH  11  12
ENDBRANCH   1  11
TORSDOF 7
ENDMDL
MODEL 8
REMARK VINA RESULT:      -5.6      4.258      6.552
REMARK  Name = *****
REMARK                            x       y       z     vdW  Elec       q    Type
REMARK                         _______ _______ _______ _____ _____    ______ ____
ROOT
ATOM      1  C   LIG    1       23.017 -19.478   4.386  0.00  0.00    +0.165 C 
ATOM      2  O   LIG    1       21.980 -19.889   4.892  0.00  0.00    -0.294 OA
ENDROOT
BRANCH   1   3
ATOM      3  C   LIG    1       24.084 -20.417   3.977  0.00  0.00    +0.223 C 
ATOM      4  C   LIG    1       25.000 -21.123   4.950  0.00  0.00    +0.240 C 
ATOM      5  O   LIG    1       25.417 -19.935   4.240  0.00  0.00    -0.350 OA
BRANCH   4   6
ATOM      6  C   LIG    1       24.899 -21.007   6.419  0.00  0.00    +0.242 C 
ATOM      7  O   LIG    1       25.725 -20.375   7.060  0.00  0.00    -0.273 OA
ATOM      8  N   LIG    1       23.788 -21.565   6.998  0.00  0.00    -0.327 N 
ATOM      9  H   LIG    1       23.158 -22.154   6.476  0.00  0.00    +0.145 HD
ATOM     10  H   LIG    1       23.715 -21.527   8.009  0.00  0.00    +0.145 HD
ENDBRANCH   4   6
ENDBRANCH   1   3
BRANCH   1  11
ATOM     11  C   LIG    1       23.270 -18.017   4.064  0.00  0.00    +0.081 C 
BRANCH  11  12
ATOM     12  C   LIG    1       22.225 -17.124   4.731  0.00  0.00    +0.034 C 
BRANCH  12  14
ATOM     13  C   LIG    1       23.704 -15.179   4.154  0.00  0.00    -0.027 C 
ATOM     14  C   LIG    1       22.683 -15.696   4.858  0.00  0.00    -0.030 C 
BRANCH  13  15
ATOM     15  C   LIG    1       24.111 -13.733   4.194  0.00  0.00    +0.053 C 
BRANCH  15  18
ATOM     16  C   LIG    1       27.000 -14.378   3.124  0.00  0.00    +0.035 C 
ATOM     17  C   LIG    1       25.939 -13.588   2.426  0.00  0.00    -0.034 C 
ATOM     18  C   LIG    1       24.715 -13.284   2.893  0.00  0.00    -0.027 C 
ENDBRANCH  15  18
ENDBRANCH  13  15
ENDBRANCH  12  14
ENDBRANCH  11  12
ENDBRANCH   1  11
TORSDOF 7
ENDMDL
MODEL 9
REMARK VINA RESULT:      -5.2      4.352      6.925
REMARK  Name = *****
REMARK                            x       y       z     vdW  Elec       q    Type
REMARK                         _______ _______ _______ _____ _____    ______ ____
ROOT
ATOM      1  C   LIG    1       25.998 -19.749   4.552  0.00  0.00    +0.165 C 
ATOM      2  O   LIG    1       26.228 -20.248   5.648  0.00  0.00    -0.294 OA
ENDROOT
BRANCH   1   3
ATOM      3  C   LIG    1       24.965 -20.323   3.661  0.00  0.00    +0.223 C 
ATOM      4  C   LIG    1       23.496 -20.377   4.004  0.00  0.00    +0.240 C 
ATOM      5  O   LIG    1       24.357 -21.525   4.173  0.00  0.00    -0.350 OA
BRANCH   4   6
ATOM      6  C   LIG    1       22.908 -19.811   5.236  0.00  0.00    +0.242 C 
ATOM      7  O   LIG    1       22.241 -18.788   5.205  0.00  0.00    -0.273 OA
ATOM      8  N   LIG    1       23.078 -20.544   6.383  0.00  0.00    -0.327 N 
ATOM      9  H   LIG    1       23.697 -21.339   6.416  0.00  0.00    +0.145 HD
ATOM     10  H   LIG    1       22.713 -20.159   7.247  0.00  0.00    +0.145 HD
ENDBRANCH   4   6
ENDBRANCH   1   3
BRANCH   1  11
ATOM     11  C   LIG    1       26.672 -18.487   4.049  0.00  0.00    +0.081 C 
BRANCH  11  12
ATOM     12  C   LIG    1       25.686 -17.616   3.273  0.00  0.00    +0.034 C 
BRANCH  12  14
ATOM     13  C   LIG    1       25.094 -15.202   3.631  0.00  0.00    -0.027 C 
ATOM     14  C   LIG    1       26.011 -16.149   3.372  0.00  0.00    -0.030 C 
BRANCH  13  15
ATOM     15  C   LIG    1       25.416 -13.747   3.832  0.00  0.00    +0.053 C 
BRANCH  15  18
ATOM     16  C   LIG    1       28.512 -13.188   3.779  0.00  0.00    +0.035 C 
ATOM     17  C   LIG    1       27.633 -13.261   4.987  0.00  0.00    -0.034 C 
ATOM     18  C   LIG    1       26.316 -13.530   5.015  0.00  0.00    -0.027 C 
ENDBRANCH  15  18
ENDBRANCH  13  15
ENDBRANCH  12  14
ENDBRANCH  11  12
ENDBRANCH   1  11
TORSDOF 7
ENDMDL
