MODEL 1
REMARK VINA RESULT:     -10.2      0.000      0.000
REMARK  Name = *****
REMARK                            x       y       z     vdW  Elec       q    Type
REMARK                         _______ _______ _______ _____ _____    ______ ____
ROOT
ATOM      1  C   LIG    1       23.797 -23.925   6.866  0.00  0.00    +0.019 C 
ATOM      2  C   LIG    1       24.594 -22.605   6.940  0.00  0.00    +0.029 C 
ATOM      3  C   LIG    1       23.582 -21.481   6.776  0.00  0.00    +0.140 C 
ATOM      4  O   LIG    1       22.921 -21.001   7.687  0.00  0.00    -0.297 OA
ATOM      5  C   LIG    1       23.441 -21.051   5.334  0.00  0.00    +0.075 C 
ATOM      6  C   LIG    1       24.449 -21.943   4.608  0.00  0.00    +0.012 C 
ATOM      7  C   LIG    1       25.463 -22.395   5.675  0.00  0.00    +0.006 C 
ATOM      8  C   LIG    1       26.697 -21.452   5.823  0.00  0.00    +0.001 C 
ATOM      9  C   LIG    1       27.425 -21.677   7.171  0.00  0.00    +0.023 C 
ATOM     10  C   LIG    1       28.611 -20.747   7.369  0.00  0.00    -0.041 A 
ATOM     11  C   LIG    1       28.748 -19.568   6.625  0.00  0.00    -0.040 A 
ATOM     12  C   LIG    1       27.768 -19.182   5.552  0.00  0.00    +0.036 C 
ATOM     13  C   LIG    1       29.861 -18.737   6.835  0.00  0.00    +0.052 A 
ATOM     14  C   LIG    1       30.822 -19.058   7.792  0.00  0.00    +0.159 A 
ATOM     15  C   LIG    1       30.666 -20.209   8.561  0.00  0.00    +0.049 A 
ATOM     16  C   LIG    1       29.577 -21.055   8.343  0.00  0.00    +0.008 A 
ATOM     17  C   LIG    1       26.449 -21.535   8.348  0.00  0.00    +0.009 C 
ATOM     18  C   LIG    1       26.448 -19.947   5.614  0.00  0.00    +0.009 C 
ATOM     19  C   LIG    1       25.350 -22.579   8.269  0.00  0.00    +0.015 C 
ENDROOT
BRANCH  14  20
ATOM     20  O   LIG    1       31.926 -18.291   8.065  0.00  0.00    -0.325 OA
BRANCH  20  21
ATOM     21  S   LIG    1       31.929 -17.219   9.295  0.00  0.00    +0.251 S 
ATOM     22  O   LIG    1       32.694 -17.755  10.399  0.00  0.00    -0.108 OA
ATOM     23  O   LIG    1       30.590 -16.698   9.477  0.00  0.00    -0.108 OA
BRANCH  21  24
ATOM     24  O   LIG    1       32.768 -15.987   8.696  0.00  0.00    -0.222 OA
ATOM     25  H   LIG    1       32.350 -15.745   7.847  0.00  0.00    +0.248 HD
ENDBRANCH  21  24
ENDBRANCH  20  21
ENDBRANCH  14  20
TORSDOF 3
ENDMDL
MODEL 2
REMARK VINA RESULT:      -9.9      0.971      1.052
REMARK  Name = *****
REMARK                            x       y       z     vdW  Elec       q    Type
REMARK                         _______ _______ _______ _____ _____    ______ ____
ROOT
ATOM      1  C   LIG    1       22.886 -22.657   6.300  0.00  0.00    +0.019 C 
ATOM      2  C   LIG    1       23.904 -21.497   6.267  0.00  0.00    +0.029 C 
ATOM      3  C   LIG    1       23.171 -20.296   5.690  0.00  0.00    +0.140 C 
ATOM      4  O   LIG    1       22.481 -19.522   6.342  0.00  0.00    -0.297 OA
ATOM      5  C   LIG    1       23.345 -20.190   4.193  0.00  0.00    +0.075 C 
ATOM      6  C   LIG    1       24.260 -21.372   3.868  0.00  0.00    +0.012 C 
ATOM      7  C   LIG    1       24.985 -21.722   5.180  0.00  0.00    +0.006 C 
ATOM      8  C   LIG    1       26.341 -20.976   5.379  0.00  0.00    +0.001 C 
ATOM      9  C   LIG    1       26.790 -20.998   6.861  0.00  0.00    +0.023 C 
ATOM     10  C   LIG    1       28.089 -20.246   7.100  0.00  0.00    -0.041 A 
ATOM     11  C   LIG    1       28.570 -19.305   6.180  0.00  0.00    -0.040 A 
ATOM     12  C   LIG    1       27.865 -19.025   4.882  0.00  0.00    +0.036 C 
ATOM     13  C   LIG    1       29.777 -18.634   6.436  0.00  0.00    +0.052 A 
ATOM     14  C   LIG    1       30.494 -18.875   7.606  0.00  0.00    +0.159 A 
ATOM     15  C   LIG    1       29.997 -19.780   8.541  0.00  0.00    +0.049 A 
ATOM     16  C   LIG    1       28.811 -20.471   8.285  0.00  0.00    +0.008 A 
ATOM     17  C   LIG    1       25.689 -20.439   7.773  0.00  0.00    +0.009 C 
ATOM     18  C   LIG    1       26.428 -19.539   4.833  0.00  0.00    +0.009 C 
ATOM     19  C   LIG    1       24.433 -21.287   7.687  0.00  0.00    +0.015 C 
ENDROOT
BRANCH  14  20
ATOM     20  O   LIG    1       31.670 -18.249   7.934  0.00  0.00    -0.325 OA
BRANCH  20  21
ATOM     21  S   LIG    1       31.771 -17.260   9.227  0.00  0.00    +0.251 S 
ATOM     22  O   LIG    1       32.444 -17.947  10.308  0.00  0.00    -0.108 OA
ATOM     23  O   LIG    1       30.499 -16.595   9.420  0.00  0.00    -0.108 OA
BRANCH  21  24
ATOM     24  O   LIG    1       32.763 -16.102   8.718  0.00  0.00    -0.222 OA
ATOM     25  H   LIG    1       32.628 -16.019   7.753  0.00  0.00    +0.248 HD
ENDBRANCH  21  24
ENDBRANCH  20  21
ENDBRANCH  14  20
TORSDOF 3
ENDMDL
MODEL 3
REMARK VINA RESULT:      -8.3      1.299      2.729
REMARK  Name = *****
REMARK                            x       y       z     vdW  Elec       q    Type
REMARK                         _______ _______ _______ _____ _____    ______ ____
ROOT
ATOM      1  C   LIG    1       22.464 -21.415   4.683  0.00  0.00    +0.019 C 
ATOM      2  C   LIG    1       23.884 -21.614   5.254  0.00  0.00    +0.029 C 
ATOM      3  C   LIG    1       24.048 -23.107   5.493  0.00  0.00    +0.140 C 
ATOM      4  O   LIG    1       24.400 -23.914   4.642  0.00  0.00    -0.297 OA
ATOM      5  C   LIG    1       23.673 -23.501   6.902  0.00  0.00    +0.075 C 
ATOM      6  C   LIG    1       23.300 -22.164   7.546  0.00  0.00    +0.012 C 
ATOM      7  C   LIG    1       23.994 -21.078   6.703  0.00  0.00    +0.006 C 
ATOM      8  C   LIG    1       25.422 -20.699   7.202  0.00  0.00    +0.001 C 
ATOM      9  C   LIG    1       26.236 -19.975   6.101  0.00  0.00    +0.023 C 
ATOM     10  C   LIG    1       27.648 -19.625   6.537  0.00  0.00    -0.041 A 
ATOM     11  C   LIG    1       28.256 -20.260   7.629  0.00  0.00    -0.040 A 
ATOM     12  C   LIG    1       27.531 -21.278   8.464  0.00  0.00    +0.036 C 
ATOM     13  C   LIG    1       29.562 -19.905   8.004  0.00  0.00    +0.052 A 
ATOM     14  C   LIG    1       30.273 -18.943   7.289  0.00  0.00    +0.159 A 
ATOM     15  C   LIG    1       29.687 -18.340   6.179  0.00  0.00    +0.049 A 
ATOM     16  C   LIG    1       28.379 -18.667   5.813  0.00  0.00    +0.008 A 
ATOM     17  C   LIG    1       26.280 -20.814   4.816  0.00  0.00    +0.009 C 
ATOM     18  C   LIG    1       26.268 -21.833   7.809  0.00  0.00    +0.009 C 
ATOM     19  C   LIG    1       24.884 -21.025   4.258  0.00  0.00    +0.015 C 
ENDROOT
BRANCH  14  20
ATOM     20  O   LIG    1       31.556 -18.555   7.583  0.00  0.00    -0.325 OA
BRANCH  20  21
ATOM     21  S   LIG    1       31.884 -17.642   8.895  0.00  0.00    +0.251 S 
ATOM     22  O   LIG    1       32.686 -16.503   8.502  0.00  0.00    -0.108 OA
ATOM     23  O   LIG    1       32.270 -18.504   9.992  0.00  0.00    -0.108 OA
BRANCH  21  24
ATOM     24  O   LIG    1       30.438 -17.077   9.310  0.00  0.00    -0.222 OA
ATOM     25  H   LIG    1       29.839 -17.847   9.366  0.00  0.00    +0.248 HD
ENDBRANCH  21  24
ENDBRANCH  20  21
ENDBRANCH  14  20
TORSDOF 3
ENDMDL
MODEL 4
REMARK VINA RESULT:      -7.3      5.672      8.878
REMARK  Name = *****
REMARK                            x       y       z     vdW  Elec       q    Type
REMARK                         _______ _______ _______ _____ _____    ______ ____
ROOT
ATOM      1  C   LIG    1       26.320 -20.114   8.328  0.00  0.00    +0.019 C 
ATOM      2  C   LIG    1       25.950 -21.257   7.359  0.00  0.00    +0.029 C 
ATOM      3  C   LIG    1       25.616 -20.602   6.028  0.00  0.00    +0.140 C 
ATOM      4  O   LIG    1       26.440 -20.298   5.174  0.00  0.00    -0.297 OA
ATOM      5  C   LIG    1       24.138 -20.315   5.891  0.00  0.00    +0.075 C 
ATOM      6  C   LIG    1       23.559 -20.860   7.198  0.00  0.00    +0.012 C 
ATOM      7  C   LIG    1       24.582 -21.887   7.720  0.00  0.00    +0.006 C 
ATOM      8  C   LIG    1       24.331 -23.345   7.226  0.00  0.00    +0.001 C 
ATOM      9  C   LIG    1       25.596 -24.224   7.385  0.00  0.00    +0.023 C 
ATOM     10  C   LIG    1       25.403 -25.643   6.877  0.00  0.00    -0.041 A 
ATOM     11  C   LIG    1       24.364 -25.969   5.995  0.00  0.00    -0.040 A 
ATOM     12  C   LIG    1       23.350 -24.954   5.546  0.00  0.00    +0.036 C 
ATOM     13  C   LIG    1       24.216 -27.294   5.551  0.00  0.00    +0.052 A 
ATOM     14  C   LIG    1       25.105 -28.287   5.959  0.00  0.00    +0.159 A 
ATOM     15  C   LIG    1       26.162 -27.957   6.803  0.00  0.00    +0.049 A 
ATOM     16  C   LIG    1       26.303 -26.648   7.270  0.00  0.00    +0.008 A 
ATOM     17  C   LIG    1       26.800 -23.579   6.684  0.00  0.00    +0.009 C 
ATOM     18  C   LIG    1       23.765 -23.507   5.804  0.00  0.00    +0.009 C 
ATOM     19  C   LIG    1       27.128 -22.231   7.301  0.00  0.00    +0.015 C 
ENDROOT
BRANCH  14  20
ATOM     20  O   LIG    1       25.035 -29.597   5.557  0.00  0.00    -0.325 OA
BRANCH  20  21
ATOM     21  S   LIG    1       24.413 -30.749   6.530  0.00  0.00    +0.251 S 
ATOM     22  O   LIG    1       23.692 -30.124   7.618  0.00  0.00    -0.108 OA
ATOM     23  O   LIG    1       25.416 -31.767   6.765  0.00  0.00    -0.108 OA
BRANCH  21  24
ATOM     24  O   LIG    1       23.321 -31.462   5.591  0.00  0.00    -0.222 OA
ATOM     25  H   LIG    1       23.152 -32.345   5.974  0.00  0.00    +0.248 HD
ENDBRANCH  21  24
ENDBRANCH  20  21
ENDBRANCH  14  20
TORSDOF 3
ENDMDL
MODEL 5
REMARK VINA RESULT:      -7.3      2.377      3.225
REMARK  Name = *****
REMARK                            x       y       z     vdW  Elec       q    Type
REMARK                         _______ _______ _______ _____ _____    ______ ____
ROOT
ATOM      1  C   LIG    1       21.509 -21.464   4.769  0.00  0.00    +0.019 C 
ATOM      2  C   LIG    1       22.811 -20.714   5.128  0.00  0.00    +0.029 C 
ATOM      3  C   LIG    1       22.614 -19.273   4.686  0.00  0.00    +0.140 C 
ATOM      4  O   LIG    1       22.065 -18.407   5.356  0.00  0.00    -0.297 OA
ATOM      5  C   LIG    1       23.131 -19.033   3.286  0.00  0.00    +0.075 C 
ATOM      6  C   LIG    1       23.698 -20.397   2.890  0.00  0.00    +0.012 C 
ATOM      7  C   LIG    1       23.983 -21.139   4.209  0.00  0.00    +0.006 C 
ATOM      8  C   LIG    1       25.423 -20.920   4.765  0.00  0.00    +0.001 C 
ATOM      9  C   LIG    1       25.514 -21.287   6.267  0.00  0.00    +0.023 C 
ATOM     10  C   LIG    1       26.894 -21.048   6.856  0.00  0.00    -0.041 A 
ATOM     11  C   LIG    1       27.822 -20.207   6.228  0.00  0.00    -0.040 A 
ATOM     12  C   LIG    1       27.532 -19.539   4.913  0.00  0.00    +0.036 C 
ATOM     13  C   LIG    1       29.090 -20.016   6.802  0.00  0.00    +0.052 A 
ATOM     14  C   LIG    1       29.430 -20.634   8.003  0.00  0.00    +0.159 A 
ATOM     15  C   LIG    1       28.495 -21.438   8.651  0.00  0.00    +0.049 A 
ATOM     16  C   LIG    1       27.241 -21.655   8.075  0.00  0.00    +0.008 A 
ATOM     17  C   LIG    1       24.461 -20.520   7.080  0.00  0.00    +0.009 C 
ATOM     18  C   LIG    1       26.053 -19.535   4.533  0.00  0.00    +0.009 C 
ATOM     19  C   LIG    1       23.058 -20.883   6.628  0.00  0.00    +0.015 C 
ENDROOT
BRANCH  14  20
ATOM     20  O   LIG    1       30.640 -20.484   8.633  0.00  0.00    -0.325 OA
BRANCH  20  21
ATOM     21  S   LIG    1       31.367 -21.738   9.381  0.00  0.00    +0.251 S 
ATOM     22  O   LIG    1       30.656 -22.049  10.602  0.00  0.00    -0.108 OA
ATOM     23  O   LIG    1       32.801 -21.539   9.364  0.00  0.00    -0.108 OA
BRANCH  21  24
ATOM     24  O   LIG    1       31.113 -22.959   8.366  0.00  0.00    -0.222 OA
ATOM     25  H   LIG    1       30.279 -22.765   7.895  0.00  0.00    +0.248 HD
ENDBRANCH  21  24
ENDBRANCH  20  21
ENDBRANCH  14  20
TORSDOF 3
ENDMDL
MODEL 6
REMARK VINA RESULT:      -7.3      5.725      8.918
REMARK  Name = *****
REMARK                            x       y       z     vdW  Elec       q    Type
REMARK                         _______ _______ _______ _____ _____    ______ ____
ROOT
ATOM      1  C   LIG    1       22.809 -20.278   5.314  0.00  0.00    +0.019 C 
ATOM      2  C   LIG    1       23.413 -21.487   6.061  0.00  0.00    +0.029 C 
ATOM      3  C   LIG    1       23.804 -20.988   7.443  0.00  0.00    +0.140 C 
ATOM      4  O   LIG    1       23.043 -20.921   8.400  0.00  0.00    -0.297 OA
ATOM      5  C   LIG    1       25.242 -20.527   7.495  0.00  0.00    +0.075 C 
ATOM      6  C   LIG    1       25.743 -20.800   6.075  0.00  0.00    +0.012 C 
ATOM      7  C   LIG    1       24.802 -21.870   5.491  0.00  0.00    +0.006 C 
ATOM      8  C   LIG    1       25.276 -23.337   5.732  0.00  0.00    +0.001 C 
ATOM      9  C   LIG    1       24.116 -24.346   5.548  0.00  0.00    +0.023 C 
ATOM     10  C   LIG    1       24.530 -25.784   5.814  0.00  0.00    -0.041 A 
ATOM     11  C   LIG    1       25.687 -26.089   6.543  0.00  0.00    -0.040 A 
ATOM     12  C   LIG    1       26.613 -25.021   7.054  0.00  0.00    +0.036 C 
ATOM     13  C   LIG    1       26.038 -27.431   6.764  0.00  0.00    +0.052 A 
ATOM     14  C   LIG    1       25.237 -28.466   6.286  0.00  0.00    +0.159 A 
ATOM     15  C   LIG    1       24.065 -28.165   5.596  0.00  0.00    +0.049 A 
ATOM     16  C   LIG    1       23.721 -26.835   5.350  0.00  0.00    +0.008 A 
ATOM     17  C   LIG    1       22.923 -23.974   6.441  0.00  0.00    +0.009 C 
ATOM     18  C   LIG    1       26.003 -23.621   7.058  0.00  0.00    +0.009 C 
ATOM     19  C   LIG    1       22.374 -22.608   6.069  0.00  0.00    +0.015 C 
ENDROOT
BRANCH  14  20
ATOM     20  O   LIG    1       25.505 -29.799   6.474  0.00  0.00    -0.325 OA
BRANCH  20  21
ATOM     21  S   LIG    1       24.394 -30.803   7.121  0.00  0.00    +0.251 S 
ATOM     22  O   LIG    1       23.655 -30.105   8.151  0.00  0.00    -0.108 OA
ATOM     23  O   LIG    1       25.000 -32.095   7.361  0.00  0.00    -0.108 OA
BRANCH  21  24
ATOM     24  O   LIG    1       23.378 -31.049   5.900  0.00  0.00    -0.222 OA
ATOM     25  H   LIG    1       22.485 -30.825   6.226  0.00  0.00    +0.248 HD
ENDBRANCH  21  24
ENDBRANCH  20  21
ENDBRANCH  14  20
TORSDOF 3
ENDMDL
MODEL 7
REMARK VINA RESULT:      -7.2      6.692      9.742
REMARK  Name = *****
REMARK                            x       y       z     vdW  Elec       q    Type
REMARK                         _______ _______ _______ _____ _____    ______ ____
ROOT
ATOM      1  C   LIG    1       24.493 -33.650   6.666  0.00  0.00    +0.019 C 
ATOM      2  C   LIG    1       25.233 -32.298   6.756  0.00  0.00    +0.029 C 
ATOM      3  C   LIG    1       26.654 -32.612   7.195  0.00  0.00    +0.140 C 
ATOM      4  O   LIG    1       27.563 -32.930   6.438  0.00  0.00    -0.297 OA
ATOM      5  C   LIG    1       26.814 -32.540   8.696  0.00  0.00    +0.075 C 
ATOM      6  C   LIG    1       25.420 -32.126   9.171  0.00  0.00    +0.012 C 
ATOM      7  C   LIG    1       24.739 -31.459   7.961  0.00  0.00    +0.006 C 
ATOM      8  C   LIG    1       24.956 -29.917   7.876  0.00  0.00    +0.001 C 
ATOM      9  C   LIG    1       24.662 -29.379   6.454  0.00  0.00    +0.023 C 
ATOM     10  C   LIG    1       24.902 -27.885   6.321  0.00  0.00    -0.041 A 
ATOM     11  C   LIG    1       25.692 -27.185   7.243  0.00  0.00    -0.040 A 
ATOM     12  C   LIG    1       26.299 -27.856   8.444  0.00  0.00    +0.036 C 
ATOM     13  C   LIG    1       25.885 -25.803   7.088  0.00  0.00    +0.052 A 
ATOM     14  C   LIG    1       25.320 -25.119   6.014  0.00  0.00    +0.159 A 
ATOM     15  C   LIG    1       24.569 -25.819   5.073  0.00  0.00    +0.049 A 
ATOM     16  C   LIG    1       24.349 -27.189   5.232  0.00  0.00    +0.008 A 
ATOM     17  C   LIG    1       25.490 -30.135   5.404  0.00  0.00    +0.009 C 
ATOM     18  C   LIG    1       26.315 -29.381   8.361  0.00  0.00    +0.009 C 
ATOM     19  C   LIG    1       25.134 -31.611   5.393  0.00  0.00    +0.015 C 
ENDROOT
BRANCH  14  20
ATOM     20  O   LIG    1       25.477 -23.775   5.787  0.00  0.00    -0.325 OA
BRANCH  20  21
ATOM     21  S   LIG    1       24.383 -22.692   6.326  0.00  0.00    +0.251 S 
ATOM     22  O   LIG    1       25.068 -21.598   6.980  0.00  0.00    -0.108 OA
ATOM     23  O   LIG    1       23.289 -23.396   6.962  0.00  0.00    -0.108 OA
BRANCH  21  24
ATOM     24  O   LIG    1       23.756 -22.107   4.967  0.00  0.00    -0.222 OA
ATOM     25  H   LIG    1       23.764 -22.835   4.315  0.00  0.00    +0.248 HD
ENDBRANCH  21  24
ENDBRANCH  20  21
ENDBRANCH  14  20
TORSDOF 3
ENDMDL
