MODEL 1
REMARK VINA RESULT:      -6.0      0.000      0.000
REMARK  Name = *****
REMARK                            x       y       z     vdW  Elec       q    Type
REMARK                         _______ _______ _______ _____ _____    ______ ____
ROOT
ATOM      1  N   LIG    1       25.738 -16.066   3.261  0.00  0.00    -0.109 NA
ATOM      2  C   LIG    1       26.465 -17.104   3.488  0.00  0.00    +0.400 C 
ENDROOT
BRANCH   1   4
ATOM      3  C   LIG    1       26.908 -14.148   2.349  0.00  0.00    +0.052 C 
ATOM      4  C   LIG    1       26.116 -14.680   3.547  0.00  0.00    +0.191 C 
BRANCH   4   5
ATOM      5  C   LIG    1       24.815 -13.863   3.874  0.00  0.00    -0.001 C 
ATOM      6  C   LIG    1       23.635 -14.766   4.287  0.00  0.00    +0.014 C 
ATOM      7  C   LIG    1       24.365 -13.026   2.658  0.00  0.00    +0.014 C 
ATOM      8  C   LIG    1       25.107 -12.882   5.031  0.00  0.00    +0.014 C 
ENDBRANCH   4   5
ENDBRANCH   1   4
BRANCH   2   9
ATOM      9  N   LIG    1       26.013 -18.373   3.177  0.00  0.00    -0.243 N 
ATOM     10  H   LIG    1       26.413 -18.859   2.385  0.00  0.00    +0.265 HD
BRANCH   9  11
ATOM     11  C   LIG    1       24.991 -19.114   3.817  0.00  0.00    +0.103 A 
ATOM     12  C   LIG    1       23.656 -18.711   3.843  0.00  0.00    +0.062 A 
ATOM     13  C   LIG    1       22.729 -19.471   4.541  0.00  0.00    +0.114 A 
ATOM     14  N   LIG    1       23.035 -20.598   5.212  0.00  0.00    -0.263 NA
ATOM     15  C   LIG    1       24.329 -20.972   5.192  0.00  0.00    +0.114 A 
ATOM     16  C   LIG    1       25.327 -20.272   4.525  0.00  0.00    +0.062 A 
ENDBRANCH   9  11
ENDBRANCH   2   9
BRANCH   2  17
ATOM     17  N   LIG    1       27.733 -17.049   4.017  0.00  0.00    -0.177 N 
ATOM     18  H   LIG    1       28.038 -16.130   4.296  0.00  0.00    +0.278 HD
BRANCH  17  19
ATOM     19  C   LIG    1       28.277 -18.118   4.809  0.00  0.00    +0.255 C 
ATOM     20  N   LIG    1       28.698 -18.981   5.450  0.00  0.00    -0.154 NA
ENDBRANCH  17  19
ENDBRANCH   2  17
TORSDOF 6
ENDMDL
MODEL 2
REMARK VINA RESULT:      -4.5      1.437      5.335
REMARK  Name = *****
REMARK                            x       y       z     vdW  Elec       q    Type
REMARK                         _______ _______ _______ _____ _____    ______ ____
ROOT
ATOM      1  N   LIG    1       24.568 -19.411   3.457  0.00  0.00    -0.109 NA
ATOM      2  C   LIG    1       25.769 -19.064   3.767  0.00  0.00    +0.400 C 
ENDROOT
BRANCH   1   4
ATOM      3  C   LIG    1       24.878 -21.486   4.673  0.00  0.00    +0.052 C 
ATOM      4  C   LIG    1       23.857 -20.580   3.979  0.00  0.00    +0.191 C 
BRANCH   4   5
ATOM      5  C   LIG    1       22.696 -20.084   4.914  0.00  0.00    -0.001 C 
ATOM      6  C   LIG    1       22.296 -18.621   4.637  0.00  0.00    +0.014 C 
ATOM      7  C   LIG    1       23.096 -20.190   6.400  0.00  0.00    +0.014 C 
ATOM      8  C   LIG    1       21.455 -20.978   4.701  0.00  0.00    +0.014 C 
ENDBRANCH   4   5
ENDBRANCH   1   4
BRANCH   2   9
ATOM      9  N   LIG    1       26.349 -17.935   3.217  0.00  0.00    -0.243 N 
ATOM     10  H   LIG    1       27.067 -18.043   2.513  0.00  0.00    +0.265 HD
BRANCH   9  11
ATOM     11  C   LIG    1       26.096 -16.581   3.541  0.00  0.00    +0.103 A 
ATOM     12  C   LIG    1       24.812 -16.051   3.665  0.00  0.00    +0.062 A 
ATOM     13  C   LIG    1       24.656 -14.699   3.932  0.00  0.00    +0.114 A 
ATOM     14  N   LIG    1       25.683 -13.841   4.083  0.00  0.00    -0.263 NA
ATOM     15  C   LIG    1       26.919 -14.360   3.948  0.00  0.00    +0.114 A 
ATOM     16  C   LIG    1       27.172 -15.698   3.676  0.00  0.00    +0.062 A 
ENDBRANCH   9  11
ENDBRANCH   2   9
BRANCH   2  17
ATOM     17  N   LIG    1       26.554 -19.744   4.668  0.00  0.00    -0.177 N 
ATOM     18  H   LIG    1       26.510 -20.748   4.596  0.00  0.00    +0.278 HD
BRANCH  17  19
ATOM     19  C   LIG    1       27.824 -19.237   5.108  0.00  0.00    +0.255 C 
ATOM     20  N   LIG    1       28.839 -18.813   5.464  0.00  0.00    -0.154 NA
ENDBRANCH  17  19
ENDBRANCH   2  17
TORSDOF 6
ENDMDL
MODEL 3
REMARK VINA RESULT:      -4.3      1.450      5.357
REMARK  Name = *****
REMARK                            x       y       z     vdW  Elec       q    Type
REMARK                         _______ _______ _______ _____ _____    ______ ____
ROOT
ATOM      1  N   LIG    1       24.599 -19.395   3.458  0.00  0.00    -0.109 NA
ATOM      2  C   LIG    1       25.798 -19.032   3.756  0.00  0.00    +0.400 C 
ENDROOT
BRANCH   1   4
ATOM      3  C   LIG    1       24.930 -21.429   4.735  0.00  0.00    +0.052 C 
ATOM      4  C   LIG    1       23.903 -20.564   4.000  0.00  0.00    +0.191 C 
BRANCH   4   5
ATOM      5  C   LIG    1       22.716 -20.067   4.901  0.00  0.00    -0.001 C 
ATOM      6  C   LIG    1       22.292 -18.620   4.579  0.00  0.00    +0.014 C 
ATOM      7  C   LIG    1       23.091 -20.127   6.396  0.00  0.00    +0.014 C 
ATOM      8  C   LIG    1       21.496 -20.991   4.689  0.00  0.00    +0.014 C 
ENDBRANCH   4   5
ENDBRANCH   1   4
BRANCH   2   9
ATOM      9  N   LIG    1       26.363 -17.904   3.188  0.00  0.00    -0.243 N 
ATOM     10  H   LIG    1       27.086 -18.013   2.490  0.00  0.00    +0.265 HD
BRANCH   9  11
ATOM     11  C   LIG    1       26.088 -16.548   3.486  0.00  0.00    +0.103 A 
ATOM     12  C   LIG    1       27.082 -15.585   3.655  0.00  0.00    +0.062 A 
ATOM     13  C   LIG    1       26.724 -14.290   3.999  0.00  0.00    +0.114 A 
ATOM     14  N   LIG    1       25.452 -13.888   4.188  0.00  0.00    -0.263 NA
ATOM     15  C   LIG    1       24.500 -14.829   4.036  0.00  0.00    +0.114 A 
ATOM     16  C   LIG    1       24.764 -16.150   3.697  0.00  0.00    +0.062 A 
ENDBRANCH   9  11
ENDBRANCH   2   9
BRANCH   2  17
ATOM     17  N   LIG    1       26.596 -19.692   4.660  0.00  0.00    -0.177 N 
ATOM     18  H   LIG    1       26.566 -20.697   4.598  0.00  0.00    +0.278 HD
BRANCH  17  19
ATOM     19  C   LIG    1       27.861 -19.164   5.091  0.00  0.00    +0.255 C 
ATOM     20  N   LIG    1       28.872 -18.723   5.435  0.00  0.00    -0.154 NA
ENDBRANCH  17  19
ENDBRANCH   2  17
TORSDOF 6
ENDMDL
MODEL 4
REMARK VINA RESULT:      -4.2      1.557      3.581
REMARK  Name = *****
REMARK                            x       y       z     vdW  Elec       q    Type
REMARK                         _______ _______ _______ _____ _____    ______ ____
ROOT
ATOM      1  N   LIG    1       25.745 -17.034   3.449  0.00  0.00    -0.109 NA
ATOM      2  C   LIG    1       25.050 -18.106   3.615  0.00  0.00    +0.400 C 
ENDROOT
BRANCH   1   4
ATOM      3  C   LIG    1       23.979 -15.559   4.214  0.00  0.00    +0.052 C 
ATOM      4  C   LIG    1       25.203 -15.682   3.303  0.00  0.00    +0.191 C 
BRANCH   4   5
ATOM      5  C   LIG    1       26.345 -14.648   3.614  0.00  0.00    -0.001 C 
ATOM      6  C   LIG    1       25.982 -13.692   4.768  0.00  0.00    +0.014 C 
ATOM      7  C   LIG    1       26.670 -13.790   2.374  0.00  0.00    +0.014 C 
ATOM      8  C   LIG    1       27.631 -15.413   4.001  0.00  0.00    +0.014 C 
ENDBRANCH   4   5
ENDBRANCH   1   4
BRANCH   2   9
ATOM      9  N   LIG    1       25.663 -19.339   3.747  0.00  0.00    -0.243 N 
ATOM     10  H   LIG    1       25.598 -20.005   2.989  0.00  0.00    +0.265 HD
BRANCH   9  11
ATOM     11  C   LIG    1       26.373 -19.844   4.863  0.00  0.00    +0.103 A 
ATOM     12  C   LIG    1       27.687 -19.485   5.159  0.00  0.00    +0.062 A 
ATOM     13  C   LIG    1       28.324 -20.070   6.243  0.00  0.00    +0.114 A 
ATOM     14  N   LIG    1       27.749 -20.984   7.049  0.00  0.00    -0.263 NA
ATOM     15  C   LIG    1       26.484 -21.334   6.745  0.00  0.00    +0.114 A 
ATOM     16  C   LIG    1       25.768 -20.806   5.679  0.00  0.00    +0.062 A 
ENDBRANCH   9  11
ENDBRANCH   2   9
BRANCH   2  17
ATOM     17  N   LIG    1       23.678 -18.123   3.704  0.00  0.00    -0.177 N 
ATOM     18  H   LIG    1       23.197 -17.719   2.917  0.00  0.00    +0.278 HD
BRANCH  17  19
ATOM     19  C   LIG    1       22.969 -19.195   4.346  0.00  0.00    +0.255 C 
ATOM     20  N   LIG    1       22.409 -20.068   4.855  0.00  0.00    -0.154 NA
ENDBRANCH  17  19
ENDBRANCH   2  17
TORSDOF 6
ENDMDL
MODEL 5
REMARK VINA RESULT:      -4.1      1.403      2.252
REMARK  Name = *****
REMARK                            x       y       z     vdW  Elec       q    Type
REMARK                         _______ _______ _______ _____ _____    ______ ____
ROOT
ATOM      1  N   LIG    1       25.555 -15.286   2.925  0.00  0.00    -0.109 NA
ATOM      2  C   LIG    1       26.471 -16.083   3.354  0.00  0.00    +0.400 C 
ENDROOT
BRANCH   1   4
ATOM      3  C   LIG    1       25.106 -13.179   1.812  0.00  0.00    +0.052 C 
ATOM      4  C   LIG    1       25.523 -13.836   3.130  0.00  0.00    +0.191 C 
BRANCH   4   5
ATOM      5  C   LIG    1       24.568 -13.522   4.338  0.00  0.00    -0.001 C 
ATOM      6  C   LIG    1       23.515 -14.625   4.563  0.00  0.00    +0.014 C 
ATOM      7  C   LIG    1       23.819 -12.190   4.121  0.00  0.00    +0.014 C 
ATOM      8  C   LIG    1       25.408 -13.379   5.626  0.00  0.00    +0.014 C 
ENDBRANCH   4   5
ENDBRANCH   1   4
BRANCH   2   9
ATOM      9  N   LIG    1       26.408 -17.442   3.101  0.00  0.00    -0.243 N 
ATOM     10  H   LIG    1       27.004 -17.839   2.389  0.00  0.00    +0.265 HD
BRANCH   9  11
ATOM     11  C   LIG    1       25.556 -18.400   3.703  0.00  0.00    +0.103 A 
ATOM     12  C   LIG    1       26.027 -19.544   4.345  0.00  0.00    +0.062 A 
ATOM     13  C   LIG    1       25.119 -20.458   4.860  0.00  0.00    +0.114 A 
ATOM     14  N   LIG    1       23.782 -20.315   4.779  0.00  0.00    -0.263 NA
ATOM     15  C   LIG    1       23.338 -19.213   4.144  0.00  0.00    +0.114 A 
ATOM     16  C   LIG    1       24.171 -18.246   3.594  0.00  0.00    +0.062 A 
ENDBRANCH   9  11
ENDBRANCH   2   9
BRANCH   2  17
ATOM     17  N   LIG    1       27.579 -15.670   4.056  0.00  0.00    -0.177 N 
ATOM     18  H   LIG    1       28.240 -16.399   4.272  0.00  0.00    +0.278 HD
BRANCH  17  19
ATOM     19  C   LIG    1       28.169 -14.375   3.857  0.00  0.00    +0.255 C 
ATOM     20  N   LIG    1       28.629 -13.329   3.688  0.00  0.00    -0.154 NA
ENDBRANCH  17  19
ENDBRANCH   2  17
TORSDOF 6
ENDMDL
MODEL 6
REMARK VINA RESULT:      -3.4      2.132      5.109
REMARK  Name = *****
REMARK                            x       y       z     vdW  Elec       q    Type
REMARK                         _______ _______ _______ _____ _____    ______ ____
ROOT
ATOM      1  N   LIG    1       24.980 -19.669   3.806  0.00  0.00    -0.109 NA
ATOM      2  C   LIG    1       25.688 -18.595   3.750  0.00  0.00    +0.400 C 
ENDROOT
BRANCH   1   4
ATOM      3  C   LIG    1       23.451 -21.117   2.605  0.00  0.00    +0.052 C 
ATOM      4  C   LIG    1       23.589 -19.797   3.368  0.00  0.00    +0.191 C 
BRANCH   4   5
ATOM      5  C   LIG    1       22.655 -19.678   4.626  0.00  0.00    -0.001 C 
ATOM      6  C   LIG    1       23.347 -20.138   5.924  0.00  0.00    +0.014 C 
ATOM      7  C   LIG    1       21.375 -20.522   4.448  0.00  0.00    +0.014 C 
ATOM      8  C   LIG    1       22.221 -18.206   4.800  0.00  0.00    +0.014 C 
ENDBRANCH   4   5
ENDBRANCH   1   4
BRANCH   2   9
ATOM      9  N   LIG    1       27.000 -18.582   4.189  0.00  0.00    -0.243 N 
ATOM     10  H   LIG    1       27.655 -17.939   3.766  0.00  0.00    +0.265 HD
BRANCH   9  11
ATOM     11  C   LIG    1       27.597 -19.408   5.171  0.00  0.00    +0.103 A 
ATOM     12  C   LIG    1       28.929 -19.287   5.566  0.00  0.00    +0.062 A 
ATOM     13  C   LIG    1       29.447 -20.175   6.497  0.00  0.00    +0.114 A 
ATOM     14  N   LIG    1       28.736 -21.172   7.060  0.00  0.00    -0.263 NA
ATOM     15  C   LIG    1       27.455 -21.289   6.661  0.00  0.00    +0.114 A 
ATOM     16  C   LIG    1       26.852 -20.450   5.732  0.00  0.00    +0.062 A 
ENDBRANCH   9  11
ENDBRANCH   2   9
BRANCH   2  17
ATOM     17  N   LIG    1       25.233 -17.404   3.236  0.00  0.00    -0.177 N 
ATOM     18  H   LIG    1       24.248 -17.236   3.364  0.00  0.00    +0.278 HD
BRANCH  17  19
ATOM     19  C   LIG    1       26.041 -16.215   3.233  0.00  0.00    +0.255 C 
ATOM     20  N   LIG    1       26.692 -15.261   3.247  0.00  0.00    -0.154 NA
ENDBRANCH  17  19
ENDBRANCH   2  17
TORSDOF 6
ENDMDL
