MODEL 1
REMARK VINA RESULT:      -7.1      0.000      0.000
REMARK  Name = *****
REMARK                            x       y       z     vdW  Elec       q    Type
REMARK                         _______ _______ _______ _____ _____    ______ ____
ROOT
ATOM      1  N   LIG    1       29.478 -19.415   6.552  0.00  0.00    -0.322 N 
ATOM      2  C   LIG    1       28.336 -20.166   6.590  0.00  0.00    +0.151 A 
ATOM      3  C   LIG    1       27.904 -21.199   7.475  0.00  0.00    +0.282 C 
ATOM      4  N   LIG    1       26.667 -21.740   7.114  0.00  0.00    -0.262 N 
ATOM      5  C   LIG    1       25.824 -21.252   6.097  0.00  0.00    +0.333 C 
ATOM      6  N   LIG    1       26.312 -20.202   5.316  0.00  0.00    -0.280 N 
ATOM      7  C   LIG    1       25.491 -19.616   4.271  0.00  0.00    +0.155 C 
ATOM      8  O   LIG    1       24.698 -21.726   5.923  0.00  0.00    -0.246 OA
ATOM      9  C   LIG    1       26.155 -22.841   7.906  0.00  0.00    +0.157 C 
ATOM     10  O   LIG    1       28.541 -21.538   8.455  0.00  0.00    -0.265 OA
ATOM     11  C   LIG    1       27.567 -19.705   5.566  0.00  0.00    +0.168 A 
ATOM     12  N   LIG    1       28.185 -18.709   4.876  0.00  0.00    -0.218 NA
ATOM     13  C   LIG    1       29.354 -18.574   5.468  0.00  0.00    +0.202 A 
ENDROOT
BRANCH   1  14
ATOM     14  C   LIG    1       30.623 -19.471   7.451  0.00  0.00    +0.156 C 
BRANCH  14  15
ATOM     15  C   LIG    1       30.370 -18.848   8.846  0.00  0.00    +0.148 C 
BRANCH  15  16
ATOM     16  O   LIG    1       30.865 -19.766   9.829  0.00  0.00    -0.389 OA
ATOM     17  H   LIG    1       31.558 -19.322  10.349  0.00  0.00    +0.210 HD
ENDBRANCH  15  16
BRANCH  15  18
ATOM     18  C   LIG    1       30.933 -17.392   8.986  0.00  0.00    +0.117 C 
BRANCH  18  20
ATOM     19  C   LIG    1       32.825 -16.033   9.748  0.00  0.00    +0.105 C 
ATOM     20  N   LIG    1       31.862 -17.084  10.106  0.00  0.00    -0.301 NA
BRANCH  20  21
ATOM     21  C   LIG    1       31.128 -16.617  11.318  0.00  0.00    +0.112 C 
BRANCH  21  22
ATOM     22  C   LIG    1       31.959 -16.243  12.563  0.00  0.00    +0.171 C 
BRANCH  22  23
ATOM     23  O   LIG    1       31.434 -15.126  13.272  0.00  0.00    -0.394 OA
ATOM     24  H   LIG    1       31.196 -14.445  12.619  0.00  0.00    +0.209 HD
ENDBRANCH  22  23
ENDBRANCH  21  22
ENDBRANCH  20  21
ENDBRANCH  18  20
ENDBRANCH  15  18
ENDBRANCH  14  15
ENDBRANCH   1  14
TORSDOF 8
ENDMDL
MODEL 2
REMARK VINA RESULT:      -7.0      2.012      3.693
REMARK  Name = *****
REMARK                            x       y       z     vdW  Elec       q    Type
REMARK                         _______ _______ _______ _____ _____    ______ ____
ROOT
ATOM      1  N   LIG    1       26.927 -21.295   6.656  0.00  0.00    -0.322 N 
ATOM      2  C   LIG    1       25.713 -21.049   6.076  0.00  0.00    +0.151 A 
ATOM      3  C   LIG    1       25.310 -20.125   5.067  0.00  0.00    +0.282 C 
ATOM      4  N   LIG    1       23.939 -20.177   4.801  0.00  0.00    -0.262 N 
ATOM      5  C   LIG    1       23.038 -21.124   5.325  0.00  0.00    +0.333 C 
ATOM      6  N   LIG    1       23.537 -22.023   6.269  0.00  0.00    -0.280 N 
ATOM      7  C   LIG    1       22.682 -23.054   6.831  0.00  0.00    +0.155 C 
ATOM      8  O   LIG    1       21.863 -21.160   4.946  0.00  0.00    -0.246 OA
ATOM      9  C   LIG    1       23.403 -19.239   3.835  0.00  0.00    +0.157 C 
ATOM     10  O   LIG    1       26.095 -19.400   4.483  0.00  0.00    -0.265 OA
ATOM     11  C   LIG    1       24.857 -21.944   6.640  0.00  0.00    +0.168 A 
ATOM     12  N   LIG    1       25.477 -22.729   7.562  0.00  0.00    -0.218 NA
ATOM     13  C   LIG    1       26.720 -22.295   7.582  0.00  0.00    +0.202 A 
ENDROOT
BRANCH   1  14
ATOM     14  C   LIG    1       28.202 -20.644   6.387  0.00  0.00    +0.156 C 
BRANCH  14  15
ATOM     15  C   LIG    1       29.055 -20.364   7.649  0.00  0.00    +0.148 C 
BRANCH  15  16
ATOM     16  O   LIG    1       30.070 -21.373   7.720  0.00  0.00    -0.389 OA
ATOM     17  H   LIG    1       30.525 -21.297   8.577  0.00  0.00    +0.210 HD
ENDBRANCH  15  16
BRANCH  15  18
ATOM     18  C   LIG    1       29.601 -18.897   7.715  0.00  0.00    +0.117 C 
BRANCH  18  20
ATOM     19  C   LIG    1       31.937 -18.373   8.241  0.00  0.00    +0.105 C 
ATOM     20  N   LIG    1       30.579 -18.539   8.778  0.00  0.00    -0.301 NA
BRANCH  20  21
ATOM     21  C   LIG    1       30.213 -17.263   9.457  0.00  0.00    +0.112 C 
BRANCH  21  22
ATOM     22  C   LIG    1       30.627 -17.088  10.933  0.00  0.00    +0.171 C 
BRANCH  22  23
ATOM     23  O   LIG    1       30.845 -18.325  11.605  0.00  0.00    -0.394 OA
ATOM     24  H   LIG    1       30.012 -18.576  12.040  0.00  0.00    +0.209 HD
ENDBRANCH  22  23
ENDBRANCH  21  22
ENDBRANCH  20  21
ENDBRANCH  18  20
ENDBRANCH  15  18
ENDBRANCH  14  15
ENDBRANCH   1  14
TORSDOF 8
ENDMDL
MODEL 3
REMARK VINA RESULT:      -6.7      1.536      2.785
REMARK  Name = *****
REMARK                            x       y       z     vdW  Elec       q    Type
REMARK                         _______ _______ _______ _____ _____    ______ ____
ROOT
ATOM      1  N   LIG    1       28.121 -20.554   7.130  0.00  0.00    -0.322 N 
ATOM      2  C   LIG    1       26.995 -20.569   6.354  0.00  0.00    +0.151 A 
ATOM      3  C   LIG    1       26.628 -19.823   5.195  0.00  0.00    +0.282 C 
ATOM      4  N   LIG    1       25.342 -20.127   4.739  0.00  0.00    -0.262 N 
ATOM      5  C   LIG    1       24.519 -21.157   5.234  0.00  0.00    +0.333 C 
ATOM      6  N   LIG    1       24.987 -21.869   6.340  0.00  0.00    -0.280 N 
ATOM      7  C   LIG    1       24.217 -22.972   6.888  0.00  0.00    +0.155 C 
ATOM      8  O   LIG    1       23.441 -21.423   4.695  0.00  0.00    -0.246 OA
ATOM      9  C   LIG    1       24.835 -19.384   3.602  0.00  0.00    +0.157 C 
ATOM     10  O   LIG    1       27.379 -19.035   4.651  0.00  0.00    -0.265 OA
ATOM     11  C   LIG    1       26.202 -21.538   6.888  0.00  0.00    +0.168 A 
ATOM     12  N   LIG    1       26.774 -22.119   7.976  0.00  0.00    -0.218 NA
ATOM     13  C   LIG    1       27.919 -21.485   8.126  0.00  0.00    +0.202 A 
ENDROOT
BRANCH   1  14
ATOM     14  C   LIG    1       29.311 -19.728   6.975  0.00  0.00    +0.156 C 
BRANCH  14  15
ATOM     15  C   LIG    1       30.225 -19.686   8.223  0.00  0.00    +0.148 C 
BRANCH  15  16
ATOM     16  O   LIG    1       31.533 -20.111   7.819  0.00  0.00    -0.389 OA
ATOM     17  H   LIG    1       31.984 -19.364   7.388  0.00  0.00    +0.210 HD
ENDBRANCH  15  16
BRANCH  15  18
ATOM     18  C   LIG    1       30.200 -18.304   8.963  0.00  0.00    +0.117 C 
BRANCH  18  20
ATOM     19  C   LIG    1       32.277 -17.025   9.199  0.00  0.00    +0.105 C 
ATOM     20  N   LIG    1       31.336 -17.944   9.854  0.00  0.00    -0.301 NA
BRANCH  20  21
ATOM     21  C   LIG    1       30.866 -17.280  11.105  0.00  0.00    +0.112 C 
BRANCH  21  22
ATOM     22  C   LIG    1       31.831 -16.301  11.806  0.00  0.00    +0.171 C 
BRANCH  22  23
ATOM     23  O   LIG    1       31.178 -15.436  12.730  0.00  0.00    -0.394 OA
ATOM     24  H   LIG    1       30.245 -15.707  12.781  0.00  0.00    +0.209 HD
ENDBRANCH  22  23
ENDBRANCH  21  22
ENDBRANCH  20  21
ENDBRANCH  18  20
ENDBRANCH  15  18
ENDBRANCH  14  15
ENDBRANCH   1  14
TORSDOF 8
ENDMDL
MODEL 4
REMARK VINA RESULT:      -6.6      1.226      1.273
REMARK  Name = *****
REMARK                            x       y       z     vdW  Elec       q    Type
REMARK                         _______ _______ _______ _____ _____    ______ ____
ROOT
ATOM      1  N   LIG    1       28.895 -20.489   7.275  0.00  0.00    -0.322 N 
ATOM      2  C   LIG    1       27.592 -20.810   7.006  0.00  0.00    +0.151 A 
ATOM      3  C   LIG    1       26.644 -21.610   7.710  0.00  0.00    +0.282 C 
ATOM      4  N   LIG    1       25.420 -21.712   7.044  0.00  0.00    -0.262 N 
ATOM      5  C   LIG    1       25.055 -20.999   5.886  0.00  0.00    +0.333 C 
ATOM      6  N   LIG    1       26.035 -20.199   5.296  0.00  0.00    -0.280 N 
ATOM      7  C   LIG    1       25.729 -19.401   4.121  0.00  0.00    +0.155 C 
ATOM      8  O   LIG    1       23.910 -21.071   5.430  0.00  0.00    -0.246 OA
ATOM      9  C   LIG    1       24.397 -22.552   7.635  0.00  0.00    +0.157 C 
ATOM     10  O   LIG    1       26.880 -22.114   8.793  0.00  0.00    -0.265 OA
ATOM     11  C   LIG    1       27.288 -20.147   5.857  0.00  0.00    +0.168 A 
ATOM     12  N   LIG    1       28.347 -19.438   5.384  0.00  0.00    -0.218 NA
ATOM     13  C   LIG    1       29.319 -19.688   6.237  0.00  0.00    +0.202 A 
ENDROOT
BRANCH   1  14
ATOM     14  C   LIG    1       29.707 -20.901   8.411  0.00  0.00    +0.156 C 
BRANCH  14  15
ATOM     15  C   LIG    1       30.993 -20.063   8.613  0.00  0.00    +0.148 C 
BRANCH  15  16
ATOM     16  O   LIG    1       31.725 -20.085   7.381  0.00  0.00    -0.389 OA
ATOM     17  H   LIG    1       31.096 -19.999   6.643  0.00  0.00    +0.210 HD
ENDBRANCH  15  16
BRANCH  15  18
ATOM     18  C   LIG    1       30.714 -18.624   9.168  0.00  0.00    +0.117 C 
BRANCH  18  20
ATOM     19  C   LIG    1       32.479 -16.960   9.521  0.00  0.00    +0.105 C 
ATOM     20  N   LIG    1       31.674 -18.026  10.134  0.00  0.00    -0.301 NA
BRANCH  20  21
ATOM     21  C   LIG    1       30.974 -17.432  11.310  0.00  0.00    +0.112 C 
BRANCH  21  22
ATOM     22  C   LIG    1       31.814 -16.606  12.306  0.00  0.00    +0.171 C 
BRANCH  22  23
ATOM     23  O   LIG    1       31.191 -15.384  12.689  0.00  0.00    -0.394 OA
ATOM     24  H   LIG    1       31.520 -14.686  12.097  0.00  0.00    +0.209 HD
ENDBRANCH  22  23
ENDBRANCH  21  22
ENDBRANCH  20  21
ENDBRANCH  18  20
ENDBRANCH  15  18
ENDBRANCH  14  15
ENDBRANCH   1  14
TORSDOF 8
ENDMDL
MODEL 5
REMARK VINA RESULT:      -6.5      2.200      3.237
REMARK  Name = *****
REMARK                            x       y       z     vdW  Elec       q    Type
REMARK                         _______ _______ _______ _____ _____    ______ ____
ROOT
ATOM      1  N   LIG    1       26.913 -20.761   6.173  0.00  0.00    -0.322 N 
ATOM      2  C   LIG    1       25.595 -21.100   6.043  0.00  0.00    +0.151 A 
ATOM      3  C   LIG    1       24.780 -22.040   6.743  0.00  0.00    +0.282 C 
ATOM      4  N   LIG    1       23.475 -22.101   6.247  0.00  0.00    -0.262 N 
ATOM      5  C   LIG    1       22.927 -21.243   5.273  0.00  0.00    +0.333 C 
ATOM      6  N   LIG    1       23.790 -20.320   4.681  0.00  0.00    -0.280 N 
ATOM      7  C   LIG    1       23.296 -19.374   3.695  0.00  0.00    +0.155 C 
ATOM      8  O   LIG    1       21.730 -21.302   4.977  0.00  0.00    -0.246 OA
ATOM      9  C   LIG    1       22.571 -23.067   6.841  0.00  0.00    +0.157 C 
ATOM     10  O   LIG    1       25.184 -22.686   7.693  0.00  0.00    -0.265 OA
ATOM     11  C   LIG    1       25.109 -20.291   5.062  0.00  0.00    +0.168 A 
ATOM     12  N   LIG    1       26.070 -19.471   4.559  0.00  0.00    -0.218 NA
ATOM     13  C   LIG    1       27.161 -19.797   5.220  0.00  0.00    +0.202 A 
ENDROOT
BRANCH   1  14
ATOM     14  C   LIG    1       27.893 -21.297   7.109  0.00  0.00    +0.156 C 
BRANCH  14  15
ATOM     15  C   LIG    1       28.859 -20.239   7.695  0.00  0.00    +0.148 C 
BRANCH  15  16
ATOM     16  O   LIG    1       28.141 -19.496   8.688  0.00  0.00    -0.389 OA
ATOM     17  H   LIG    1       27.701 -20.124   9.289  0.00  0.00    +0.210 HD
ENDBRANCH  15  16
BRANCH  15  18
ATOM     18  C   LIG    1       30.211 -20.849   8.203  0.00  0.00    +0.117 C 
BRANCH  18  20
ATOM     19  C   LIG    1       31.519 -19.188   6.962  0.00  0.00    +0.105 C 
ATOM     20  N   LIG    1       31.435 -20.004   8.182  0.00  0.00    -0.301 NA
BRANCH  20  21
ATOM     21  C   LIG    1       31.481 -19.069   9.343  0.00  0.00    +0.112 C 
BRANCH  21  22
ATOM     22  C   LIG    1       31.245 -17.569   9.071  0.00  0.00    +0.171 C 
BRANCH  22  23
ATOM     23  O   LIG    1       29.967 -17.114   9.502  0.00  0.00    -0.394 OA
ATOM     24  H   LIG    1       29.758 -16.305   9.004  0.00  0.00    +0.209 HD
ENDBRANCH  22  23
ENDBRANCH  21  22
ENDBRANCH  20  21
ENDBRANCH  18  20
ENDBRANCH  15  18
ENDBRANCH  14  15
ENDBRANCH   1  14
TORSDOF 8
ENDMDL
MODEL 6
REMARK VINA RESULT:      -6.3      3.736      8.402
REMARK  Name = *****
REMARK                            x       y       z     vdW  Elec       q    Type
REMARK                         _______ _______ _______ _____ _____    ______ ____
ROOT
ATOM      1  N   LIG    1       25.326 -21.964   7.498  0.00  0.00    -0.322 N 
ATOM      2  C   LIG    1       25.996 -21.086   6.691  0.00  0.00    +0.151 A 
ATOM      3  C   LIG    1       25.614 -20.413   5.492  0.00  0.00    +0.282 C 
ATOM      4  N   LIG    1       26.641 -19.629   4.960  0.00  0.00    -0.262 N 
ATOM      5  C   LIG    1       27.879 -19.370   5.578  0.00  0.00    +0.333 C 
ATOM      6  N   LIG    1       28.143 -20.035   6.777  0.00  0.00    -0.280 N 
ATOM      7  C   LIG    1       29.381 -19.795   7.498  0.00  0.00    +0.155 C 
ATOM      8  O   LIG    1       28.683 -18.575   5.082  0.00  0.00    -0.246 OA
ATOM      9  C   LIG    1       26.388 -18.945   3.707  0.00  0.00    +0.157 C 
ATOM     10  O   LIG    1       24.497 -20.495   5.016  0.00  0.00    -0.265 OA
ATOM     11  C   LIG    1       27.205 -20.897   7.288  0.00  0.00    +0.168 A 
ATOM     12  N   LIG    1       27.329 -21.632   8.426  0.00  0.00    -0.218 NA
ATOM     13  C   LIG    1       26.196 -22.298   8.514  0.00  0.00    +0.202 A 
ENDROOT
BRANCH   1  14
ATOM     14  C   LIG    1       23.972 -22.477   7.341  0.00  0.00    +0.156 C 
BRANCH  14  15
ATOM     15  C   LIG    1       23.897 -23.915   6.771  0.00  0.00    +0.148 C 
BRANCH  15  16
ATOM     16  O   LIG    1       22.518 -24.214   6.526  0.00  0.00    -0.389 OA
ATOM     17  H   LIG    1       22.285 -23.905   5.633  0.00  0.00    +0.210 HD
ENDBRANCH  15  16
BRANCH  15  18
ATOM     18  C   LIG    1       24.833 -24.139   5.533  0.00  0.00    +0.117 C 
BRANCH  18  20
ATOM     19  C   LIG    1       26.000 -25.844   6.852  0.00  0.00    +0.105 C 
ATOM     20  N   LIG    1       25.710 -25.340   5.502  0.00  0.00    -0.301 NA
BRANCH  20  21
ATOM     21  C   LIG    1       25.088 -26.458   4.736  0.00  0.00    +0.112 C 
BRANCH  21  22
ATOM     22  C   LIG    1       24.967 -27.830   5.433  0.00  0.00    +0.171 C 
BRANCH  22  23
ATOM     23  O   LIG    1       23.821 -28.568   5.024  0.00  0.00    -0.394 OA
ATOM     24  H   LIG    1       23.078 -27.944   4.948  0.00  0.00    +0.209 HD
ENDBRANCH  22  23
ENDBRANCH  21  22
ENDBRANCH  20  21
ENDBRANCH  18  20
ENDBRANCH  15  18
ENDBRANCH  14  15
ENDBRANCH   1  14
TORSDOF 8
ENDMDL
MODEL 7
REMARK VINA RESULT:      -6.1      3.333      8.064
REMARK  Name = *****
REMARK                            x       y       z     vdW  Elec       q    Type
REMARK                         _______ _______ _______ _____ _____    ______ ____
ROOT
ATOM      1  N   LIG    1       26.174 -21.152   7.069  0.00  0.00    -0.322 N 
ATOM      2  C   LIG    1       27.440 -20.670   6.882  0.00  0.00    +0.151 A 
ATOM      3  C   LIG    1       27.974 -19.738   5.943  0.00  0.00    +0.282 C 
ATOM      4  N   LIG    1       29.354 -19.564   6.078  0.00  0.00    -0.262 N 
ATOM      5  C   LIG    1       30.151 -20.100   7.107  0.00  0.00    +0.333 C 
ATOM      6  N   LIG    1       29.528 -20.961   8.012  0.00  0.00    -0.280 N 
ATOM      7  C   LIG    1       30.270 -21.527   9.125  0.00  0.00    +0.155 C 
ATOM      8  O   LIG    1       31.345 -19.802   7.207  0.00  0.00    -0.246 OA
ATOM      9  C   LIG    1       30.019 -18.685   5.136  0.00  0.00    +0.157 C 
ATOM     10  O   LIG    1       27.283 -19.139   5.140  0.00  0.00    -0.265 OA
ATOM     11  C   LIG    1       28.193 -21.245   7.859  0.00  0.00    +0.168 A 
ATOM     12  N   LIG    1       27.458 -22.082   8.640  0.00  0.00    -0.218 NA
ATOM     13  C   LIG    1       26.248 -22.038   8.122  0.00  0.00    +0.202 A 
ENDROOT
BRANCH   1  14
ATOM     14  C   LIG    1       24.967 -20.830   6.319  0.00  0.00    +0.156 C 
BRANCH  14  15
ATOM     15  C   LIG    1       24.064 -22.048   6.010  0.00  0.00    +0.148 C 
BRANCH  15  16
ATOM     16  O   LIG    1       22.851 -21.554   5.429  0.00  0.00    -0.389 OA
ATOM     17  H   LIG    1       22.421 -22.279   4.942  0.00  0.00    +0.210 HD
ENDBRANCH  15  16
BRANCH  15  18
ATOM     18  C   LIG    1       24.781 -23.151   5.158  0.00  0.00    +0.117 C 
BRANCH  18  20
ATOM     19  C   LIG    1       23.812 -24.947   6.516  0.00  0.00    +0.105 C 
ATOM     20  N   LIG    1       24.985 -24.500   5.752  0.00  0.00    -0.301 NA
BRANCH  20  21
ATOM     21  C   LIG    1       25.248 -25.529   4.704  0.00  0.00    +0.112 C 
BRANCH  21  22
ATOM     22  C   LIG    1       25.830 -26.885   5.155  0.00  0.00    +0.171 C 
BRANCH  22  23
ATOM     23  O   LIG    1       27.229 -26.837   5.414  0.00  0.00    -0.394 OA
ATOM     24  H   LIG    1       27.511 -25.908   5.347  0.00  0.00    +0.209 HD
ENDBRANCH  22  23
ENDBRANCH  21  22
ENDBRANCH  20  21
ENDBRANCH  18  20
ENDBRANCH  15  18
ENDBRANCH  14  15
ENDBRANCH   1  14
TORSDOF 8
ENDMDL
MODEL 8
REMARK VINA RESULT:      -6.0      2.627      4.065
REMARK  Name = *****
REMARK                            x       y       z     vdW  Elec       q    Type
REMARK                         _______ _______ _______ _____ _____    ______ ____
ROOT
ATOM      1  N   LIG    1       27.712 -20.639   6.448  0.00  0.00    -0.322 N 
ATOM      2  C   LIG    1       26.430 -20.453   6.007  0.00  0.00    +0.151 A 
ATOM      3  C   LIG    1       25.911 -19.949   4.777  0.00  0.00    +0.282 C 
ATOM      4  N   LIG    1       24.515 -19.884   4.765  0.00  0.00    -0.262 N 
ATOM      5  C   LIG    1       23.662 -20.392   5.764  0.00  0.00    +0.333 C 
ATOM      6  N   LIG    1       24.264 -20.914   6.910  0.00  0.00    -0.280 N 
ATOM      7  C   LIG    1       23.457 -21.492   7.971  0.00  0.00    +0.155 C 
ATOM      8  O   LIG    1       22.436 -20.388   5.615  0.00  0.00    -0.246 OA
ATOM      9  C   LIG    1       23.875 -19.329   3.589  0.00  0.00    +0.157 C 
ATOM     10  O   LIG    1       26.619 -19.646   3.835  0.00  0.00    -0.265 OA
ATOM     11  C   LIG    1       25.633 -20.905   7.013  0.00  0.00    +0.168 A 
ATOM     12  N   LIG    1       26.359 -21.352   8.073  0.00  0.00    -0.218 NA
ATOM     13  C   LIG    1       27.612 -21.148   7.725  0.00  0.00    +0.202 A 
ENDROOT
BRANCH   1  14
ATOM     14  C   LIG    1       28.956 -20.357   5.745  0.00  0.00    +0.156 C 
BRANCH  14  15
ATOM     15  C   LIG    1       29.471 -18.907   5.918  0.00  0.00    +0.148 C 
BRANCH  15  16
ATOM     16  O   LIG    1       28.779 -18.084   4.971  0.00  0.00    -0.389 OA
ATOM     17  H   LIG    1       27.845 -18.021   5.237  0.00  0.00    +0.210 HD
ENDBRANCH  15  16
BRANCH  15  18
ATOM     18  C   LIG    1       29.390 -18.393   7.396  0.00  0.00    +0.117 C 
BRANCH  18  20
ATOM     19  C   LIG    1       30.385 -17.499   9.450  0.00  0.00    +0.105 C 
ATOM     20  N   LIG    1       30.643 -17.985   8.087  0.00  0.00    -0.301 NA
BRANCH  20  21
ATOM     21  C   LIG    1       31.606 -19.119   8.196  0.00  0.00    +0.112 C 
BRANCH  21  22
ATOM     22  C   LIG    1       31.109 -20.426   8.848  0.00  0.00    +0.171 C 
BRANCH  22  23
ATOM     23  O   LIG    1       31.880 -21.565   8.480  0.00  0.00    -0.394 OA
ATOM     24  H   LIG    1       31.265 -22.245   8.153  0.00  0.00    +0.209 HD
ENDBRANCH  22  23
ENDBRANCH  21  22
ENDBRANCH  20  21
ENDBRANCH  18  20
ENDBRANCH  15  18
ENDBRANCH  14  15
ENDBRANCH   1  14
TORSDOF 8
ENDMDL
MODEL 9
REMARK VINA RESULT:      -5.9      2.532      7.149
REMARK  Name = *****
REMARK                            x       y       z     vdW  Elec       q    Type
REMARK                         _______ _______ _______ _____ _____    ______ ____
ROOT
ATOM      1  N   LIG    1       28.470 -19.661   5.708  0.00  0.00    -0.322 N 
ATOM      2  C   LIG    1       29.290 -19.981   6.754  0.00  0.00    +0.151 A 
ATOM      3  C   LIG    1       29.426 -21.172   7.528  0.00  0.00    +0.282 C 
ATOM      4  N   LIG    1       30.370 -21.050   8.551  0.00  0.00    -0.262 N 
ATOM      5  C   LIG    1       31.232 -19.953   8.743  0.00  0.00    +0.333 C 
ATOM      6  N   LIG    1       31.059 -18.852   7.903  0.00  0.00    -0.280 N 
ATOM      7  C   LIG    1       31.932 -17.696   8.010  0.00  0.00    +0.155 C 
ATOM      8  O   LIG    1       32.112 -19.981   9.609  0.00  0.00    -0.246 OA
ATOM      9  C   LIG    1       30.550 -22.179   9.442  0.00  0.00    +0.157 C 
ATOM     10  O   LIG    1       28.804 -22.190   7.287  0.00  0.00    -0.265 OA
ATOM     11  C   LIG    1       30.073 -18.884   6.947  0.00  0.00    +0.168 A 
ATOM     12  N   LIG    1       29.768 -17.884   6.078  0.00  0.00    -0.218 NA
ATOM     13  C   LIG    1       28.772 -18.361   5.362  0.00  0.00    +0.202 A 
ENDROOT
BRANCH   1  14
ATOM     14  C   LIG    1       27.460 -20.493   5.068  0.00  0.00    +0.156 C 
BRANCH  14  15
ATOM     15  C   LIG    1       26.019 -19.935   5.167  0.00  0.00    +0.148 C 
BRANCH  15  16
ATOM     16  O   LIG    1       25.733 -19.250   3.941  0.00  0.00    -0.389 OA
ATOM     17  H   LIG    1       26.276 -19.639   3.233  0.00  0.00    +0.210 HD
ENDBRANCH  15  16
BRANCH  15  18
ATOM     18  C   LIG    1       24.959 -21.022   5.557  0.00  0.00    +0.117 C 
BRANCH  18  20
ATOM     19  C   LIG    1       22.610 -20.329   5.439  0.00  0.00    +0.105 C 
ATOM     20  N   LIG    1       23.752 -20.608   6.322  0.00  0.00    -0.301 NA
BRANCH  20  21
ATOM     21  C   LIG    1       23.320 -21.664   7.283  0.00  0.00    +0.112 C 
BRANCH  21  22
ATOM     22  C   LIG    1       23.461 -23.137   6.846  0.00  0.00    +0.171 C 
BRANCH  22  23
ATOM     23  O   LIG    1       22.210 -23.781   6.631  0.00  0.00    -0.394 OA
ATOM     24  H   LIG    1       22.188 -24.579   7.187  0.00  0.00    +0.209 HD
ENDBRANCH  22  23
ENDBRANCH  21  22
ENDBRANCH  20  21
ENDBRANCH  18  20
ENDBRANCH  15  18
ENDBRANCH  14  15
ENDBRANCH   1  14
TORSDOF 8
ENDMDL
