MODEL 1
REMARK VINA RESULT:      -8.1      0.000      0.000
REMARK  Name = *****
REMARK                            x       y       z     vdW  Elec       q    Type
REMARK                         _______ _______ _______ _____ _____    ______ ____
ROOT
ATOM      1  C   LIG    1       25.461 -25.114   6.560  0.00  0.00    +0.122 A 
ATOM      2  C   LIG    1       25.999 -23.839   6.369  0.00  0.00    +0.070 A 
ATOM      3  C   LIG    1       25.183 -22.700   6.235  0.00  0.00    +0.051 A 
ATOM      4  N   LIG    1       25.819 -21.468   5.869  0.00  0.00    -0.298 N 
ATOM      5  C   LIG    1       25.115 -20.502   5.094  0.00  0.00    +0.048 A 
ATOM      6  C   LIG    1       23.710 -20.392   5.113  0.00  0.00    +0.034 A 
ATOM      7  S   LIG    1       22.674 -21.510   6.048  0.00  0.00    -0.086 S 
ATOM      8  C   LIG    1       23.086 -19.355   4.401  0.00  0.00    +0.017 A 
ATOM      9  C   LIG    1       23.840 -18.469   3.630  0.00  0.00    +0.001 A 
ATOM     10  C   LIG    1       25.216 -18.637   3.529  0.00  0.00    +0.002 A 
ATOM     11  C   LIG    1       25.844 -19.648   4.252  0.00  0.00    +0.024 A 
ATOM     12  C   LIG    1       23.802 -22.864   6.326  0.00  0.00    +0.034 A 
ATOM     13  C   LIG    1       23.259 -24.134   6.624  0.00  0.00    +0.020 A 
ATOM     14  C   LIG    1       24.103 -25.248   6.742  0.00  0.00    +0.047 A 
ENDROOT
BRANCH   1  16
ATOM     15  C   LIG    1       26.253 -26.939   5.298  0.00  0.00    +0.277 C 
ATOM     16  O   LIG    1       26.221 -26.256   6.562  0.00  0.00    -0.495 OA
ENDBRANCH   1  16
BRANCH   4  17
ATOM     17  C   LIG    1       26.553 -20.809   7.015  0.00  0.00    +0.115 C 
BRANCH  17  18
ATOM     18  C   LIG    1       28.116 -20.909   6.926  0.00  0.00    +0.018 C 
ATOM     19  C   LIG    1       28.671 -21.825   8.010  0.00  0.00    +0.010 C 
BRANCH  18  20
ATOM     20  C   LIG    1       28.761 -19.484   7.011  0.00  0.00    +0.088 C 
BRANCH  20  21
ATOM     21  N   LIG    1       29.969 -19.288   7.850  0.00  0.00    -0.308 NA
ATOM     22  C   LIG    1       29.988 -18.098   8.699  0.00  0.00    +0.104 C 
ATOM     23  C   LIG    1       31.195 -19.297   7.041  0.00  0.00    +0.104 C 
ENDBRANCH  20  21
ENDBRANCH  18  20
ENDBRANCH  17  18
ENDBRANCH   4  17
TORSDOF 5
ENDMDL
MODEL 2
REMARK VINA RESULT:      -7.5      2.313      5.625
REMARK  Name = *****
REMARK                            x       y       z     vdW  Elec       q    Type
REMARK                         _______ _______ _______ _____ _____    ______ ____
ROOT
ATOM      1  C   LIG    1       28.519 -21.075   7.580  0.00  0.00    +0.122 A 
ATOM      2  C   LIG    1       27.266 -21.588   7.235  0.00  0.00    +0.070 A 
ATOM      3  C   LIG    1       26.537 -21.094   6.137  0.00  0.00    +0.051 A 
ATOM      4  N   LIG    1       25.191 -21.561   5.970  0.00  0.00    -0.298 N 
ATOM      5  C   LIG    1       24.207 -20.713   5.386  0.00  0.00    +0.048 A 
ATOM      6  C   LIG    1       24.533 -19.688   4.475  0.00  0.00    +0.034 A 
ATOM      7  S   LIG    1       26.221 -19.301   4.032  0.00  0.00    -0.086 S 
ATOM      8  C   LIG    1       23.505 -18.954   3.861  0.00  0.00    +0.017 A 
ATOM      9  C   LIG    1       22.170 -19.191   4.189  0.00  0.00    +0.001 A 
ATOM     10  C   LIG    1       21.851 -20.132   5.161  0.00  0.00    +0.002 A 
ATOM     11  C   LIG    1       22.864 -20.881   5.756  0.00  0.00    +0.024 A 
ATOM     12  C   LIG    1       27.110 -20.082   5.367  0.00  0.00    +0.034 A 
ATOM     13  C   LIG    1       28.419 -19.635   5.648  0.00  0.00    +0.020 A 
ATOM     14  C   LIG    1       29.112 -20.145   6.756  0.00  0.00    +0.047 A 
ENDROOT
BRANCH   1  16
ATOM     15  C   LIG    1       30.618 -21.281   8.630  0.00  0.00    +0.277 C 
ATOM     16  O   LIG    1       29.193 -21.442   8.716  0.00  0.00    -0.495 OA
ENDBRANCH   1  16
BRANCH   4  17
ATOM     17  C   LIG    1       25.110 -22.958   5.398  0.00  0.00    +0.115 C 
BRANCH  17  18
ATOM     18  C   LIG    1       24.649 -24.052   6.424  0.00  0.00    +0.018 C 
ATOM     19  C   LIG    1       25.734 -24.326   7.459  0.00  0.00    +0.010 C 
BRANCH  18  20
ATOM     20  C   LIG    1       24.243 -25.366   5.675  0.00  0.00    +0.088 C 
BRANCH  20  21
ATOM     21  N   LIG    1       25.101 -26.569   5.810  0.00  0.00    -0.308 NA
ATOM     22  C   LIG    1       25.944 -26.903   4.664  0.00  0.00    +0.104 C 
ATOM     23  C   LIG    1       24.313 -27.757   6.164  0.00  0.00    +0.104 C 
ENDBRANCH  20  21
ENDBRANCH  18  20
ENDBRANCH  17  18
ENDBRANCH   4  17
TORSDOF 5
ENDMDL
MODEL 3
REMARK VINA RESULT:      -5.8      2.684      6.196
REMARK  Name = *****
REMARK                            x       y       z     vdW  Elec       q    Type
REMARK                         _______ _______ _______ _____ _____    ______ ____
ROOT
ATOM      1  C   LIG    1       27.880 -19.674   5.918  0.00  0.00    +0.122 A 
ATOM      2  C   LIG    1       26.852 -20.442   5.364  0.00  0.00    +0.070 A 
ATOM      3  C   LIG    1       26.283 -21.530   6.052  0.00  0.00    +0.051 A 
ATOM      4  N   LIG    1       25.360 -22.360   5.334  0.00  0.00    -0.298 N 
ATOM      5  C   LIG    1       25.259 -23.748   5.640  0.00  0.00    +0.048 A 
ATOM      6  C   LIG    1       25.565 -24.268   6.914  0.00  0.00    +0.034 A 
ATOM      7  S   LIG    1       26.190 -23.246   8.241  0.00  0.00    -0.086 S 
ATOM      8  C   LIG    1       25.349 -25.630   7.176  0.00  0.00    +0.017 A 
ATOM      9  C   LIG    1       24.890 -26.483   6.171  0.00  0.00    +0.001 A 
ATOM     10  C   LIG    1       24.684 -25.993   4.887  0.00  0.00    +0.002 A 
ATOM     11  C   LIG    1       24.872 -24.637   4.627  0.00  0.00    +0.024 A 
ATOM     12  C   LIG    1       26.753 -21.818   7.334  0.00  0.00    +0.034 A 
ATOM     13  C   LIG    1       27.716 -20.980   7.938  0.00  0.00    +0.020 A 
ATOM     14  C   LIG    1       28.267 -19.910   7.218  0.00  0.00    +0.047 A 
ENDROOT
BRANCH   1  16
ATOM     15  C   LIG    1       29.849 -18.393   5.738  0.00  0.00    +0.277 C 
ATOM     16  O   LIG    1       28.542 -18.695   5.223  0.00  0.00    -0.495 OA
ENDBRANCH   1  16
BRANCH   4  17
ATOM     17  C   LIG    1       23.991 -21.739   5.181  0.00  0.00    +0.115 C 
BRANCH  17  18
ATOM     18  C   LIG    1       23.624 -20.696   6.294  0.00  0.00    +0.018 C 
ATOM     19  C   LIG    1       23.023 -21.382   7.514  0.00  0.00    +0.010 C 
BRANCH  18  20
ATOM     20  C   LIG    1       22.651 -19.608   5.725  0.00  0.00    +0.088 C 
BRANCH  20  21
ATOM     21  N   LIG    1       22.707 -19.275   4.281  0.00  0.00    -0.308 NA
ATOM     22  C   LIG    1       23.946 -18.669   3.796  0.00  0.00    +0.104 C 
ATOM     23  C   LIG    1       21.587 -18.413   3.882  0.00  0.00    +0.104 C 
ENDBRANCH  20  21
ENDBRANCH  18  20
ENDBRANCH  17  18
ENDBRANCH   4  17
TORSDOF 5
ENDMDL
MODEL 4
REMARK VINA RESULT:      -5.5      6.324      9.681
REMARK  Name = *****
REMARK                            x       y       z     vdW  Elec       q    Type
REMARK                         _______ _______ _______ _____ _____    ______ ____
ROOT
ATOM      1  C   LIG    1       25.875 -26.911   6.131  0.00  0.00    +0.122 A 
ATOM      2  C   LIG    1       25.920 -27.454   7.417  0.00  0.00    +0.070 A 
ATOM      3  C   LIG    1       25.477 -28.762   7.688  0.00  0.00    +0.051 A 
ATOM      4  N   LIG    1       25.401 -29.166   9.062  0.00  0.00    -0.298 N 
ATOM      5  C   LIG    1       24.414 -30.105   9.478  0.00  0.00    +0.048 A 
ATOM      6  C   LIG    1       23.871 -31.072   8.606  0.00  0.00    +0.034 A 
ATOM      7  S   LIG    1       24.311 -31.155   6.876  0.00  0.00    -0.086 S 
ATOM      8  C   LIG    1       22.975 -32.030   9.106  0.00  0.00    +0.017 A 
ATOM      9  C   LIG    1       22.572 -31.997  10.441  0.00  0.00    +0.001 A 
ATOM     10  C   LIG    1       23.027 -30.985  11.278  0.00  0.00    +0.002 A 
ATOM     11  C   LIG    1       23.936 -30.046  10.796  0.00  0.00    +0.024 A 
ATOM     12  C   LIG    1       25.009 -29.533   6.624  0.00  0.00    +0.034 A 
ATOM     13  C   LIG    1       25.060 -29.026   5.307  0.00  0.00    +0.020 A 
ATOM     14  C   LIG    1       25.500 -27.713   5.077  0.00  0.00    +0.047 A 
ENDROOT
BRANCH   1  16
ATOM     15  C   LIG    1       25.162 -24.913   5.105  0.00  0.00    +0.277 C 
ATOM     16  O   LIG    1       26.174 -25.600   5.859  0.00  0.00    -0.495 OA
ENDBRANCH   1  16
BRANCH   4  17
ATOM     17  C   LIG    1       26.747 -29.496   9.665  0.00  0.00    +0.115 C 
BRANCH  17  18
ATOM     18  C   LIG    1       26.931 -29.009  11.145  0.00  0.00    +0.018 C 
ATOM     19  C   LIG    1       26.782 -27.496  11.248  0.00  0.00    +0.010 C 
BRANCH  18  20
ATOM     20  C   LIG    1       28.316 -29.476  11.706  0.00  0.00    +0.088 C 
BRANCH  20  21
ATOM     21  N   LIG    1       28.374 -30.113  13.045  0.00  0.00    -0.308 NA
ATOM     22  C   LIG    1       27.109 -30.231  13.769  0.00  0.00    +0.104 C 
ATOM     23  C   LIG    1       29.344 -29.442  13.920  0.00  0.00    +0.104 C 
ENDBRANCH  20  21
ENDBRANCH  18  20
ENDBRANCH  17  18
ENDBRANCH   4  17
TORSDOF 5
ENDMDL
MODEL 5
REMARK VINA RESULT:      -5.4      5.465      9.526
REMARK  Name = *****
REMARK                            x       y       z     vdW  Elec       q    Type
REMARK                         _______ _______ _______ _____ _____    ______ ____
ROOT
ATOM      1  C   LIG    1       25.863 -29.122   9.999  0.00  0.00    +0.122 A 
ATOM      2  C   LIG    1       25.681 -29.102   8.613  0.00  0.00    +0.070 A 
ATOM      3  C   LIG    1       25.054 -30.161   7.931  0.00  0.00    +0.051 A 
ATOM      4  N   LIG    1       25.070 -30.128   6.497  0.00  0.00    -0.298 N 
ATOM      5  C   LIG    1       25.095 -31.343   5.754  0.00  0.00    +0.048 A 
ATOM      6  C   LIG    1       24.565 -32.550   6.254  0.00  0.00    +0.034 A 
ATOM      7  S   LIG    1       23.885 -32.687   7.902  0.00  0.00    -0.086 S 
ATOM      8  C   LIG    1       24.534 -33.687   5.431  0.00  0.00    +0.017 A 
ATOM      9  C   LIG    1       25.075 -33.649   4.146  0.00  0.00    +0.001 A 
ATOM     10  C   LIG    1       25.690 -32.490   3.687  0.00  0.00    +0.002 A 
ATOM     11  C   LIG    1       25.702 -31.350   4.488  0.00  0.00    +0.024 A 
ATOM     12  C   LIG    1       24.582 -31.240   8.678  0.00  0.00    +0.034 A 
ATOM     13  C   LIG    1       24.670 -31.216  10.087  0.00  0.00    +0.020 A 
ATOM     14  C   LIG    1       25.310 -30.147  10.733  0.00  0.00    +0.047 A 
ENDROOT
BRANCH   1  16
ATOM     15  C   LIG    1       27.632 -28.708  11.499  0.00  0.00    +0.277 C 
ATOM     16  O   LIG    1       26.585 -28.172  10.674  0.00  0.00    -0.495 OA
ENDBRANCH   1  16
BRANCH   4  17
ATOM     17  C   LIG    1       24.073 -29.157   5.909  0.00  0.00    +0.115 C 
BRANCH  17  18
ATOM     18  C   LIG    1       24.694 -27.794   5.442  0.00  0.00    +0.018 C 
ATOM     19  C   LIG    1       26.191 -27.929   5.193  0.00  0.00    +0.010 C 
BRANCH  18  20
ATOM     20  C   LIG    1       24.398 -26.670   6.492  0.00  0.00    +0.088 C 
BRANCH  20  21
ATOM     21  N   LIG    1       24.602 -25.252   6.107  0.00  0.00    -0.308 NA
ATOM     22  C   LIG    1       25.845 -24.625   6.554  0.00  0.00    +0.104 C 
ATOM     23  C   LIG    1       23.480 -24.408   6.540  0.00  0.00    +0.104 C 
ENDBRANCH  20  21
ENDBRANCH  18  20
ENDBRANCH  17  18
ENDBRANCH   4  17
TORSDOF 5
ENDMDL
MODEL 6
REMARK VINA RESULT:      -5.3      5.969      9.450
REMARK  Name = *****
REMARK                            x       y       z     vdW  Elec       q    Type
REMARK                         _______ _______ _______ _____ _____    ______ ____
ROOT
ATOM      1  C   LIG    1       25.909 -26.953   6.341  0.00  0.00    +0.122 A 
ATOM      2  C   LIG    1       25.965 -27.587   7.585  0.00  0.00    +0.070 A 
ATOM      3  C   LIG    1       25.487 -28.897   7.774  0.00  0.00    +0.051 A 
ATOM      4  N   LIG    1       25.428 -29.394   9.118  0.00  0.00    -0.298 N 
ATOM      5  C   LIG    1       24.420 -30.330   9.491  0.00  0.00    +0.048 A 
ATOM      6  C   LIG    1       23.828 -31.215   8.568  0.00  0.00    +0.034 A 
ATOM      7  S   LIG    1       24.226 -31.190   6.826  0.00  0.00    -0.086 S 
ATOM      8  C   LIG    1       22.912 -32.178   9.021  0.00  0.00    +0.017 A 
ATOM      9  C   LIG    1       22.540 -32.228  10.365  0.00  0.00    +0.001 A 
ATOM     10  C   LIG    1       23.046 -31.291  11.259  0.00  0.00    +0.002 A 
ATOM     11  C   LIG    1       23.974 -30.349  10.821  0.00  0.00    +0.024 A 
ATOM     12  C   LIG    1       24.970 -29.576   6.671  0.00  0.00    +0.034 A 
ATOM     13  C   LIG    1       25.009 -28.979   5.392  0.00  0.00    +0.020 A 
ATOM     14  C   LIG    1       25.486 -27.668   5.243  0.00  0.00    +0.047 A 
ENDROOT
BRANCH   1  16
ATOM     15  C   LIG    1       25.235 -24.866   5.483  0.00  0.00    +0.277 C 
ATOM     16  O   LIG    1       26.244 -25.637   6.155  0.00  0.00    -0.495 OA
ENDBRANCH   1  16
BRANCH   4  17
ATOM     17  C   LIG    1       26.775 -29.806   9.664  0.00  0.00    +0.115 C 
BRANCH  17  18
ATOM     18  C   LIG    1       27.437 -28.753  10.619  0.00  0.00    +0.018 C 
ATOM     19  C   LIG    1       28.329 -29.431  11.652  0.00  0.00    +0.010 C 
BRANCH  18  20
ATOM     20  C   LIG    1       26.339 -27.878  11.314  0.00  0.00    +0.088 C 
BRANCH  20  21
ATOM     21  N   LIG    1       26.463 -27.579  12.761  0.00  0.00    -0.308 NA
ATOM     22  C   LIG    1       25.325 -27.941  13.604  0.00  0.00    +0.104 C 
ATOM     23  C   LIG    1       26.778 -26.164  12.995  0.00  0.00    +0.104 C 
ENDBRANCH  20  21
ENDBRANCH  18  20
ENDBRANCH  17  18
ENDBRANCH   4  17
TORSDOF 5
ENDMDL
MODEL 7
REMARK VINA RESULT:      -5.3      1.270      1.688
REMARK  Name = *****
REMARK                            x       y       z     vdW  Elec       q    Type
REMARK                         _______ _______ _______ _____ _____    ______ ____
ROOT
ATOM      1  C   LIG    1       24.929 -25.827   5.422  0.00  0.00    +0.122 A 
ATOM      2  C   LIG    1       25.451 -24.568   5.112  0.00  0.00    +0.070 A 
ATOM      3  C   LIG    1       24.840 -23.380   5.556  0.00  0.00    +0.051 A 
ATOM      4  N   LIG    1       25.347 -22.142   5.042  0.00  0.00    -0.298 N 
ATOM      5  C   LIG    1       24.476 -21.028   4.869  0.00  0.00    +0.048 A 
ATOM      6  C   LIG    1       23.312 -20.848   5.645  0.00  0.00    +0.034 A 
ATOM      7  S   LIG    1       22.777 -22.043   6.861  0.00  0.00    -0.086 S 
ATOM      8  C   LIG    1       22.551 -19.678   5.490  0.00  0.00    +0.017 A 
ATOM      9  C   LIG    1       22.902 -18.723   4.536  0.00  0.00    +0.001 A 
ATOM     10  C   LIG    1       23.991 -18.945   3.701  0.00  0.00    +0.002 A 
ATOM     11  C   LIG    1       24.765 -20.091   3.866  0.00  0.00    +0.024 A 
ATOM     12  C   LIG    1       23.698 -23.483   6.350  0.00  0.00    +0.034 A 
ATOM     13  C   LIG    1       23.229 -24.753   6.753  0.00  0.00    +0.020 A 
ATOM     14  C   LIG    1       23.859 -25.915   6.283  0.00  0.00    +0.047 A 
ENDROOT
BRANCH   1  16
ATOM     15  C   LIG    1       24.796 -28.179   5.412  0.00  0.00    +0.277 C 
ATOM     16  O   LIG    1       25.423 -26.993   4.897  0.00  0.00    -0.495 OA
ENDBRANCH   1  16
BRANCH   4  17
ATOM     17  C   LIG    1       26.647 -21.715   5.684  0.00  0.00    +0.115 C 
BRANCH  17  18
ATOM     18  C   LIG    1       26.646 -20.246   6.236  0.00  0.00    +0.018 C 
ATOM     19  C   LIG    1       27.675 -19.386   5.513  0.00  0.00    +0.010 C 
BRANCH  18  20
ATOM     20  C   LIG    1       26.898 -20.243   7.782  0.00  0.00    +0.088 C 
BRANCH  20  21
ATOM     21  N   LIG    1       28.291 -20.323   8.286  0.00  0.00    -0.308 NA
ATOM     22  C   LIG    1       29.163 -19.191   7.979  0.00  0.00    +0.104 C 
ATOM     23  C   LIG    1       28.957 -21.553   7.838  0.00  0.00    +0.104 C 
ENDBRANCH  20  21
ENDBRANCH  18  20
ENDBRANCH  17  18
ENDBRANCH   4  17
TORSDOF 5
ENDMDL
