MODEL 1
REMARK VINA RESULT:      -6.8      0.000      0.000
REMARK  Name = *****
REMARK                            x       y       z     vdW  Elec       q    Type
REMARK                         _______ _______ _______ _____ _____    ______ ____
ROOT
ATOM      1  C   LIG    1       22.472 -23.345   6.802  0.00  0.00    +0.027 C 
ATOM      2  C   LIG    1       23.775 -22.624   7.177  0.00  0.00    +0.084 C 
ATOM      3  C   LIG    1       24.932 -22.860   6.154  0.00  0.00    +0.165 C 
ATOM      4  O   LIG    1       24.634 -22.226   4.895  0.00  0.00    -0.369 OA
ATOM      5  C   LIG    1       24.449 -20.818   5.073  0.00  0.00    +0.176 C 
ATOM      6  C   LIG    1       23.315 -20.515   6.063  0.00  0.00    +0.109 C 
ATOM      7  N   LIG    1       23.504 -21.172   7.371  0.00  0.00    -0.309 NA
ATOM      8  H   LIG    1       24.322 -20.757   7.818  0.00  0.00    +0.122 HD
ENDROOT
BRANCH   3   9
ATOM      9  C   LIG    1       25.267 -24.327   5.950  0.00  0.00    -0.017 A 
ATOM     10  C   LIG    1       25.081 -24.965   4.714  0.00  0.00    +0.006 A 
ATOM     11  C   LIG    1       25.379 -26.320   4.556  0.00  0.00    +0.000 A 
ATOM     12  C   LIG    1       25.866 -27.057   5.633  0.00  0.00    +0.000 A 
ATOM     13  C   LIG    1       26.056 -26.440   6.868  0.00  0.00    +0.000 A 
ATOM     14  C   LIG    1       25.757 -25.085   7.027  0.00  0.00    +0.006 A 
ENDBRANCH   3   9
TORSDOF 1
ENDMDL
MODEL 2
REMARK VINA RESULT:      -6.7      1.814      5.297
REMARK  Name = *****
REMARK                            x       y       z     vdW  Elec       q    Type
REMARK                         _______ _______ _______ _____ _____    ______ ____
ROOT
ATOM      1  C   LIG    1       26.475 -20.956   6.814  0.00  0.00    +0.027 C 
ATOM      2  C   LIG    1       25.194 -21.712   7.193  0.00  0.00    +0.084 C 
ATOM      3  C   LIG    1       24.255 -21.993   5.976  0.00  0.00    +0.165 C 
ATOM      4  O   LIG    1       24.863 -22.939   5.075  0.00  0.00    -0.369 OA
ATOM      5  C   LIG    1       25.134 -24.173   5.749  0.00  0.00    +0.176 C 
ATOM      6  C   LIG    1       26.062 -23.968   6.954  0.00  0.00    +0.109 C 
ATOM      7  N   LIG    1       25.550 -22.968   7.911  0.00  0.00    -0.309 NA
ATOM      8  H   LIG    1       24.698 -23.341   8.332  0.00  0.00    +0.122 HD
ENDROOT
BRANCH   3   9
ATOM      9  C   LIG    1       23.838 -20.735   5.233  0.00  0.00    -0.017 A 
ATOM     10  C   LIG    1       22.703 -19.998   5.605  0.00  0.00    +0.006 A 
ATOM     11  C   LIG    1       22.330 -18.855   4.896  0.00  0.00    +0.000 A 
ATOM     12  C   LIG    1       23.085 -18.434   3.804  0.00  0.00    +0.000 A 
ATOM     13  C   LIG    1       24.214 -19.154   3.420  0.00  0.00    +0.000 A 
ATOM     14  C   LIG    1       24.588 -20.298   4.129  0.00  0.00    +0.006 A 
ENDBRANCH   3   9
TORSDOF 1
ENDMDL
MODEL 3
REMARK VINA RESULT:      -6.7      5.490      6.657
REMARK  Name = *****
REMARK                            x       y       z     vdW  Elec       q    Type
REMARK                         _______ _______ _______ _____ _____    ______ ____
ROOT
ATOM      1  C   LIG    1       30.103 -21.698   8.408  0.00  0.00    +0.027 C 
ATOM      2  C   LIG    1       30.228 -20.524   7.427  0.00  0.00    +0.084 C 
ATOM      3  C   LIG    1       29.083 -19.470   7.571  0.00  0.00    +0.165 C 
ATOM      4  O   LIG    1       29.188 -18.775   8.830  0.00  0.00    -0.369 OA
ATOM      5  C   LIG    1       30.451 -18.108   8.932  0.00  0.00    +0.176 C 
ATOM      6  C   LIG    1       31.623 -19.092   8.807  0.00  0.00    +0.109 C 
ATOM      7  N   LIG    1       31.571 -19.895   7.571  0.00  0.00    -0.309 NA
ATOM      8  H   LIG    1       31.709 -19.265   6.779  0.00  0.00    +0.122 HD
ENDROOT
BRANCH   3   9
ATOM      9  C   LIG    1       27.695 -20.061   7.398  0.00  0.00    -0.017 A 
ATOM     10  C   LIG    1       27.145 -20.301   6.129  0.00  0.00    +0.006 A 
ATOM     11  C   LIG    1       25.859 -20.828   5.995  0.00  0.00    +0.000 A 
ATOM     12  C   LIG    1       25.104 -21.122   7.128  0.00  0.00    +0.000 A 
ATOM     13  C   LIG    1       25.634 -20.889   8.395  0.00  0.00    +0.000 A 
ATOM     14  C   LIG    1       26.919 -20.360   8.530  0.00  0.00    +0.006 A 
ENDBRANCH   3   9
TORSDOF 1
ENDMDL
MODEL 4
REMARK VINA RESULT:      -6.7      1.825      5.255
REMARK  Name = *****
REMARK                            x       y       z     vdW  Elec       q    Type
REMARK                         _______ _______ _______ _____ _____    ______ ____
ROOT
ATOM      1  C   LIG    1       26.386 -20.903   6.906  0.00  0.00    +0.027 C 
ATOM      2  C   LIG    1       25.094 -21.672   7.214  0.00  0.00    +0.084 C 
ATOM      3  C   LIG    1       24.224 -21.959   5.948  0.00  0.00    +0.165 C 
ATOM      4  O   LIG    1       24.889 -22.897   5.078  0.00  0.00    -0.369 OA
ATOM      5  C   LIG    1       25.135 -24.129   5.764  0.00  0.00    +0.176 C 
ATOM      6  C   LIG    1       25.995 -23.919   7.018  0.00  0.00    +0.109 C 
ATOM      7  N   LIG    1       25.422 -22.926   7.947  0.00  0.00    -0.309 NA
ATOM      8  H   LIG    1       24.553 -23.308   8.321  0.00  0.00    +0.122 HD
ENDROOT
BRANCH   3   9
ATOM      9  C   LIG    1       23.836 -20.704   5.187  0.00  0.00    -0.017 A 
ATOM     10  C   LIG    1       24.606 -20.217   4.119  0.00  0.00    +0.006 A 
ATOM     11  C   LIG    1       24.237 -19.050   3.446  0.00  0.00    +0.000 A 
ATOM     12  C   LIG    1       23.095 -18.353   3.832  0.00  0.00    +0.000 A 
ATOM     13  C   LIG    1       22.320 -18.822   4.890  0.00  0.00    +0.000 A 
ATOM     14  C   LIG    1       22.687 -19.988   5.564  0.00  0.00    +0.006 A 
ENDBRANCH   3   9
TORSDOF 1
ENDMDL
MODEL 5
REMARK VINA RESULT:      -6.4      3.858      5.242
REMARK  Name = *****
REMARK                            x       y       z     vdW  Elec       q    Type
REMARK                         _______ _______ _______ _____ _____    ______ ____
ROOT
ATOM      1  C   LIG    1       26.166 -20.342   8.710  0.00  0.00    +0.027 C 
ATOM      2  C   LIG    1       26.757 -21.387   7.752  0.00  0.00    +0.084 C 
ATOM      3  C   LIG    1       26.656 -20.977   6.248  0.00  0.00    +0.165 C 
ATOM      4  O   LIG    1       27.512 -19.852   5.970  0.00  0.00    -0.369 OA
ATOM      5  C   LIG    1       28.874 -20.168   6.277  0.00  0.00    +0.176 C 
ATOM      6  C   LIG    1       29.045 -20.572   7.748  0.00  0.00    +0.109 C 
ATOM      7  N   LIG    1       28.163 -21.686   8.145  0.00  0.00    -0.309 NA
ATOM      8  H   LIG    1       28.459 -22.520   7.637  0.00  0.00    +0.122 HD
ENDROOT
BRANCH   3   9
ATOM      9  C   LIG    1       25.235 -20.696   5.793  0.00  0.00    -0.017 A 
ATOM     10  C   LIG    1       24.122 -21.171   6.505  0.00  0.00    +0.006 A 
ATOM     11  C   LIG    1       22.825 -20.915   6.057  0.00  0.00    +0.000 A 
ATOM     12  C   LIG    1       22.621 -20.181   4.891  0.00  0.00    +0.000 A 
ATOM     13  C   LIG    1       23.714 -19.703   4.172  0.00  0.00    +0.000 A 
ATOM     14  C   LIG    1       25.012 -19.959   4.618  0.00  0.00    +0.006 A 
ENDBRANCH   3   9
TORSDOF 1
ENDMDL
MODEL 6
REMARK VINA RESULT:      -6.4      2.611      4.279
REMARK  Name = *****
REMARK                            x       y       z     vdW  Elec       q    Type
REMARK                         _______ _______ _______ _____ _____    ______ ____
ROOT
ATOM      1  C   LIG    1       23.630 -20.733   7.502  0.00  0.00    +0.027 C 
ATOM      2  C   LIG    1       23.840 -21.447   6.159  0.00  0.00    +0.084 C 
ATOM      3  C   LIG    1       25.146 -22.304   6.109  0.00  0.00    +0.165 C 
ATOM      4  O   LIG    1       25.045 -23.435   6.997  0.00  0.00    -0.369 OA
ATOM      5  C   LIG    1       23.933 -24.260   6.635  0.00  0.00    +0.176 C 
ATOM      6  C   LIG    1       22.611 -23.479   6.673  0.00  0.00    +0.109 C 
ATOM      7  N   LIG    1       22.637 -22.265   5.835  0.00  0.00    -0.309 NA
ATOM      8  H   LIG    1       22.709 -22.555   4.859  0.00  0.00    +0.122 HD
ENDROOT
BRANCH   3   9
ATOM      9  C   LIG    1       26.403 -21.503   6.400  0.00  0.00    -0.017 A 
ATOM     10  C   LIG    1       26.767 -20.389   5.628  0.00  0.00    +0.006 A 
ATOM     11  C   LIG    1       27.937 -19.680   5.904  0.00  0.00    +0.000 A 
ATOM     12  C   LIG    1       28.762 -20.075   6.955  0.00  0.00    +0.000 A 
ATOM     13  C   LIG    1       28.416 -21.179   7.731  0.00  0.00    +0.000 A 
ATOM     14  C   LIG    1       27.246 -21.890   7.455  0.00  0.00    +0.006 A 
ENDBRANCH   3   9
TORSDOF 1
ENDMDL
MODEL 7
REMARK VINA RESULT:      -6.4      3.468      4.850
REMARK  Name = *****
REMARK                            x       y       z     vdW  Elec       q    Type
REMARK                         _______ _______ _______ _____ _____    ______ ____
ROOT
ATOM      1  C   LIG    1       26.099 -20.397   8.751  0.00  0.00    +0.027 C 
ATOM      2  C   LIG    1       26.761 -21.442   7.842  0.00  0.00    +0.084 C 
ATOM      3  C   LIG    1       26.560 -21.156   6.318  0.00  0.00    +0.165 C 
ATOM      4  O   LIG    1       27.279 -19.971   5.925  0.00  0.00    -0.369 OA
ATOM      5  C   LIG    1       28.678 -20.120   6.190  0.00  0.00    +0.176 C 
ATOM      6  C   LIG    1       28.947 -20.394   7.677  0.00  0.00    +0.109 C 
ATOM      7  N   LIG    1       28.205 -21.563   8.189  0.00  0.00    -0.309 NA
ATOM      8  H   LIG    1       28.570 -22.396   7.727  0.00  0.00    +0.122 HD
ENDROOT
BRANCH   3   9
ATOM      9  C   LIG    1       25.100 -21.059   5.911  0.00  0.00    -0.017 A 
ATOM     10  C   LIG    1       24.655 -20.115   4.972  0.00  0.00    +0.006 A 
ATOM     11  C   LIG    1       23.304 -20.034   4.628  0.00  0.00    +0.000 A 
ATOM     12  C   LIG    1       22.380 -20.894   5.217  0.00  0.00    +0.000 A 
ATOM     13  C   LIG    1       22.805 -21.836   6.151  0.00  0.00    +0.000 A 
ATOM     14  C   LIG    1       24.155 -21.918   6.497  0.00  0.00    +0.006 A 
ENDBRANCH   3   9
TORSDOF 1
ENDMDL
MODEL 8
REMARK VINA RESULT:      -6.3      4.044      5.503
REMARK  Name = *****
REMARK                            x       y       z     vdW  Elec       q    Type
REMARK                         _______ _______ _______ _____ _____    ______ ____
ROOT
ATOM      1  C   LIG    1       25.906 -20.442   8.847  0.00  0.00    +0.027 C 
ATOM      2  C   LIG    1       25.688 -20.564   7.333  0.00  0.00    +0.084 C 
ATOM      3  C   LIG    1       26.847 -21.310   6.597  0.00  0.00    +0.165 C 
ATOM      4  O   LIG    1       26.875 -22.701   6.972  0.00  0.00    -0.369 OA
ATOM      5  C   LIG    1       25.633 -23.334   6.647  0.00  0.00    +0.176 C 
ATOM      6  C   LIG    1       24.448 -22.653   7.347  0.00  0.00    +0.109 C 
ATOM      7  N   LIG    1       24.370 -21.206   7.068  0.00  0.00    -0.309 NA
ATOM      8  H   LIG    1       24.156 -21.087   6.077  0.00  0.00    +0.122 HD
ENDROOT
BRANCH   3   9
ATOM      9  C   LIG    1       28.208 -20.669   6.810  0.00  0.00    -0.017 A 
ATOM     10  C   LIG    1       29.124 -21.171   7.748  0.00  0.00    +0.006 A 
ATOM     11  C   LIG    1       30.361 -20.554   7.939  0.00  0.00    +0.000 A 
ATOM     12  C   LIG    1       30.700 -19.425   7.196  0.00  0.00    +0.000 A 
ATOM     13  C   LIG    1       29.802 -18.912   6.263  0.00  0.00    +0.000 A 
ATOM     14  C   LIG    1       28.564 -19.529   6.071  0.00  0.00    +0.006 A 
ENDBRANCH   3   9
TORSDOF 1
ENDMDL
MODEL 9
REMARK VINA RESULT:      -6.3      2.988      4.613
REMARK  Name = *****
REMARK                            x       y       z     vdW  Elec       q    Type
REMARK                         _______ _______ _______ _____ _____    ______ ____
ROOT
ATOM      1  C   LIG    1       25.403 -23.297   6.408  0.00  0.00    +0.027 C 
ATOM      2  C   LIG    1       24.803 -22.200   7.298  0.00  0.00    +0.084 C 
ATOM      3  C   LIG    1       25.212 -20.755   6.865  0.00  0.00    +0.165 C 
ATOM      4  O   LIG    1       24.620 -20.419   5.595  0.00  0.00    -0.369 OA
ATOM      5  C   LIG    1       23.192 -20.496   5.671  0.00  0.00    +0.176 C 
ATOM      6  C   LIG    1       22.720 -21.897   6.084  0.00  0.00    +0.109 C 
ATOM      7  N   LIG    1       23.322 -22.355   7.352  0.00  0.00    -0.309 NA
ATOM      8  H   LIG    1       22.971 -21.759   8.102  0.00  0.00    +0.122 HD
ENDROOT
BRANCH   3   9
ATOM      9  C   LIG    1       26.715 -20.540   6.830  0.00  0.00    -0.017 A 
ATOM     10  C   LIG    1       27.544 -20.930   7.893  0.00  0.00    +0.006 A 
ATOM     11  C   LIG    1       28.922 -20.705   7.845  0.00  0.00    +0.000 A 
ATOM     12  C   LIG    1       29.489 -20.086   6.734  0.00  0.00    +0.000 A 
ATOM     13  C   LIG    1       28.681 -19.692   5.670  0.00  0.00    +0.000 A 
ATOM     14  C   LIG    1       27.304 -19.916   5.717  0.00  0.00    +0.006 A 
ENDBRANCH   3   9
TORSDOF 1
ENDMDL
