MODEL 1
REMARK VINA RESULT:      -4.9      0.000      0.000
REMARK  Name = *****
REMARK                            x       y       z     vdW  Elec       q    Type
REMARK                         _______ _______ _______ _____ _____    ______ ____
ROOT
ATOM      1  CA  LIG    1       24.466 -32.987   9.326  0.00  0.00    +0.191 C 
ATOM      2  C   LIG    1       24.582 -31.927  10.466  0.00  0.00    +0.169 C 
ATOM      3  N   LIG    1       23.206 -32.229  10.794  0.00  0.00    -0.249 N 
ATOM      4  CA  LIG    1       22.445 -31.546  11.704  0.00  0.00    +0.126 C 
ATOM      5  C   LIG    1       22.844 -30.329  12.157  0.00  0.00    -0.009 C 
ATOM      6  C   LIG    1       24.086 -29.604  11.656  0.00  0.00    +0.108 C 
ATOM      7  S   LIG    1       24.676 -30.176  10.027  0.00  0.00    -0.131 S 
ATOM      8  C   LIG    1       23.015 -33.180   9.856  0.00  0.00    +0.244 C 
ATOM      9  O   LIG    1       22.046 -33.824   9.499  0.00  0.00    -0.273 OA
ENDROOT
BRANCH   1  11
ATOM     10  C   LIG    1       25.784 -32.142   7.357  0.00  0.00    +0.268 C 
ATOM     11  N   LIG    1       24.586 -32.554   7.907  0.00  0.00    -0.296 N 
ATOM     12  H   LIG    1       23.764 -32.439   7.316  0.00  0.00    +0.150 HD
ATOM     13  O   LIG    1       26.846 -32.217   7.963  0.00  0.00    -0.268 OA
BRANCH  10  15
ATOM     14  N   LIG    1       25.172 -30.473   5.574  0.00  0.00    -0.078 NA
ATOM     15  C   LIG    1       25.737 -31.603   5.910  0.00  0.00    +0.190 C 
BRANCH  15  16
ATOM     16  C   LIG    1       26.348 -32.359   4.804  0.00  0.00    +0.107 A 
ATOM     17  N   LIG    1       25.799 -32.318   3.517  0.00  0.00    -0.223 NA
ATOM     18  C   LIG    1       26.490 -33.055   2.687  0.00  0.00    +0.156 A 
ATOM     19  S   LIG    1       27.864 -33.825   3.361  0.00  0.00    -0.060 S 
ATOM     20  C   LIG    1       27.484 -33.145   4.888  0.00  0.00    +0.078 A 
BRANCH  18  21
ATOM     21  N   LIG    1       26.169 -33.194   1.393  0.00  0.00    -0.338 N 
ATOM     22  H   LIG    1       26.187 -32.340   0.848  0.00  0.00    +0.144 HD
ATOM     23  H   LIG    1       26.505 -34.013   0.899  0.00  0.00    +0.144 HD
ENDBRANCH  18  21
ENDBRANCH  15  16
BRANCH  14  25
ATOM     24  C   LIG    1       25.008 -28.416   6.595  0.00  0.00    +0.313 C 
ATOM     25  O   LIG    1       24.604 -29.779   6.645  0.00  0.00    -0.396 OA
ENDBRANCH  14  25
ENDBRANCH  10  15
ENDBRANCH   1  11
BRANCH   4  26
ATOM     26  C   LIG    1       21.169 -32.185  12.184  0.00  0.00    +0.352 C 
ATOM     27  O   LIG    1       21.001 -32.839  13.198  0.00  0.00    -0.244 OA
BRANCH  26  28
ATOM     28  OXT LIG    1       20.157 -32.010  11.317  0.00  0.00    -0.476 OA
ATOM     29  HXT LIG    1       19.381 -31.806  11.877  0.00  0.00    +0.295 HD
ENDBRANCH  26  28
ENDBRANCH   4  26
BRANCH   5  30
ATOM     30  C   LIG    1       22.071 -29.547  13.130  0.00  0.00    +0.007 C 
ATOM     31  C   LIG    1       20.875 -28.991  12.877  0.00  0.00    +0.017 C 
BRANCH  31  32
ATOM     32  C   LIG    1       20.178 -28.162  13.812  0.00  0.00    +0.035 A 
ATOM     33  C   LIG    1       20.634 -27.022  14.477  0.00  0.00    +0.052 A 
ATOM     34  C   LIG    1       21.993 -26.420  14.386  0.00  0.00    +0.067 C 
ATOM     35  N   LIG    1       19.726 -26.413  15.331  0.00  0.00    -0.252 NA
ATOM     36  C   LIG    1       18.594 -27.074  15.315  0.00  0.00    +0.156 A 
ATOM     37  S   LIG    1       18.533 -28.431  14.281  0.00  0.00    -0.076 S 
ENDBRANCH  31  32
ENDBRANCH   5  30
TORSDOF 9
ENDMDL
MODEL 2
REMARK VINA RESULT:      -4.4      5.047      8.519
REMARK  Name = *****
REMARK                            x       y       z     vdW  Elec       q    Type
REMARK                         _______ _______ _______ _____ _____    ______ ____
ROOT
ATOM      1  CA  LIG    1       22.258 -31.202  10.566  0.00  0.00    +0.191 C 
ATOM      2  C   LIG    1       22.687 -29.794  11.087  0.00  0.00    +0.169 C 
ATOM      3  N   LIG    1       23.912 -30.413  11.547  0.00  0.00    -0.249 N 
ATOM      4  CA  LIG    1       24.865 -29.799  12.314  0.00  0.00    +0.126 C 
ATOM      5  C   LIG    1       24.585 -28.636  12.956  0.00  0.00    -0.009 C 
ATOM      6  C   LIG    1       23.214 -27.972  12.949  0.00  0.00    +0.108 C 
ATOM      7  S   LIG    1       21.843 -29.100  12.528  0.00  0.00    -0.131 S 
ATOM      8  C   LIG    1       23.643 -31.660  11.108  0.00  0.00    +0.244 C 
ATOM      9  O   LIG    1       24.213 -32.730  11.220  0.00  0.00    -0.273 OA
ENDROOT
BRANCH   1  11
ATOM     10  C   LIG    1       19.778 -31.531  10.824  0.00  0.00    +0.268 C 
ATOM     11  N   LIG    1       21.072 -31.875  11.162  0.00  0.00    -0.296 N 
ATOM     12  H   LIG    1       21.169 -32.540  11.928  0.00  0.00    +0.150 HD
ATOM     13  O   LIG    1       19.521 -30.735   9.930  0.00  0.00    -0.268 OA
BRANCH  10  15
ATOM     14  N   LIG    1       18.052 -33.323  11.217  0.00  0.00    -0.078 NA
ATOM     15  C   LIG    1       18.645 -32.227  11.612  0.00  0.00    +0.190 C 
BRANCH  15  16
ATOM     16  C   LIG    1       18.165 -31.671  12.888  0.00  0.00    +0.107 A 
ATOM     17  N   LIG    1       17.392 -30.504  12.917  0.00  0.00    -0.223 NA
ATOM     18  C   LIG    1       17.070 -30.183  14.144  0.00  0.00    +0.156 A 
ATOM     19  S   LIG    1       17.630 -31.259  15.353  0.00  0.00    -0.060 S 
ATOM     20  C   LIG    1       18.389 -32.209  14.144  0.00  0.00    +0.078 A 
BRANCH  18  21
ATOM     21  N   LIG    1       16.340 -29.101  14.447  0.00  0.00    -0.338 N 
ATOM     22  H   LIG    1       16.152 -28.474  13.674  0.00  0.00    +0.144 HD
ATOM     23  H   LIG    1       15.569 -29.208  15.095  0.00  0.00    +0.144 HD
ENDBRANCH  18  21
ENDBRANCH  15  16
BRANCH  14  25
ATOM     24  C   LIG    1       17.483 -33.825   9.043  0.00  0.00    +0.313 C 
ATOM     25  O   LIG    1       18.532 -33.825  10.005  0.00  0.00    -0.396 OA
ENDBRANCH  14  25
ENDBRANCH  10  15
ENDBRANCH   1  11
BRANCH   4  26
ATOM     26  C   LIG    1       26.220 -30.447  12.414  0.00  0.00    +0.352 C 
ATOM     27  O   LIG    1       27.234 -30.147  11.809  0.00  0.00    -0.244 OA
BRANCH  26  28
ATOM     28  OXT LIG    1       26.218 -31.500  13.250  0.00  0.00    -0.476 OA
ATOM     29  HXT LIG    1       26.698 -31.189  14.045  0.00  0.00    +0.295 HD
ENDBRANCH  26  28
ENDBRANCH   4  26
BRANCH   5  30
ATOM     30  C   LIG    1       25.563 -27.932  13.794  0.00  0.00    +0.007 C 
ATOM     31  C   LIG    1       26.371 -26.952  13.357  0.00  0.00    +0.017 C 
BRANCH  31  32
ATOM     32  C   LIG    1       27.375 -26.337  14.170  0.00  0.00    +0.035 A 
ATOM     33  C   LIG    1       28.496 -26.921  14.764  0.00  0.00    +0.052 A 
ATOM     34  C   LIG    1       28.886 -28.357  14.711  0.00  0.00    +0.067 C 
ATOM     35  N   LIG    1       29.306 -26.069  15.500  0.00  0.00    -0.252 NA
ATOM     36  C   LIG    1       28.815 -24.854  15.465  0.00  0.00    +0.156 A 
ATOM     37  S   LIG    1       27.389 -24.647  14.550  0.00  0.00    -0.076 S 
ENDBRANCH  31  32
ENDBRANCH   5  30
TORSDOF 9
ENDMDL
MODEL 3
REMARK VINA RESULT:      -4.2      6.647     10.760
REMARK  Name = *****
REMARK                            x       y       z     vdW  Elec       q    Type
REMARK                         _______ _______ _______ _____ _____    ______ ____
ROOT
ATOM      1  CA  LIG    1       24.546 -23.784   6.268  0.00  0.00    +0.191 C 
ATOM      2  C   LIG    1       24.290 -25.095   5.460  0.00  0.00    +0.169 C 
ATOM      3  N   LIG    1       25.025 -25.794   6.493  0.00  0.00    -0.249 N 
ATOM      4  CA  LIG    1       25.393 -27.112   6.443  0.00  0.00    +0.126 C 
ATOM      5  C   LIG    1       25.351 -27.792   5.268  0.00  0.00    -0.009 C 
ATOM      6  C   LIG    1       24.980 -27.158   3.934  0.00  0.00    +0.108 C 
ATOM      7  S   LIG    1       25.163 -25.343   3.896  0.00  0.00    -0.131 S 
ATOM      8  C   LIG    1       25.274 -24.723   7.274  0.00  0.00    +0.244 C 
ATOM      9  O   LIG    1       25.924 -24.559   8.289  0.00  0.00    -0.273 OA
ENDROOT
BRANCH   1  11
ATOM     10  C   LIG    1       25.479 -21.448   6.235  0.00  0.00    +0.268 C 
ATOM     11  N   LIG    1       25.378 -22.704   5.670  0.00  0.00    -0.296 N 
ATOM     12  H   LIG    1       25.817 -22.817   4.758  0.00  0.00    +0.150 HD
ATOM     13  O   LIG    1       24.987 -21.175   7.323  0.00  0.00    -0.268 OA
BRANCH  10  15
ATOM     14  N   LIG    1       25.816 -19.775   4.383  0.00  0.00    -0.078 NA
ATOM     15  C   LIG    1       26.277 -20.390   5.441  0.00  0.00    +0.190 C 
BRANCH  15  16
ATOM     16  C   LIG    1       27.639 -20.009   5.853  0.00  0.00    +0.107 A 
ATOM     17  N   LIG    1       28.341 -20.766   6.797  0.00  0.00    -0.223 NA
ATOM     18  C   LIG    1       29.526 -20.259   7.020  0.00  0.00    +0.156 A 
ATOM     19  S   LIG    1       29.911 -18.867   6.100  0.00  0.00    -0.060 S 
ATOM     20  C   LIG    1       28.360 -18.929   5.373  0.00  0.00    +0.078 A 
BRANCH  18  21
ATOM     21  N   LIG    1       30.396 -20.791   7.891  0.00  0.00    -0.338 N 
ATOM     22  H   LIG    1       30.050 -21.585   8.418  0.00  0.00    +0.144 HD
ATOM     23  H   LIG    1       31.368 -20.862   7.617  0.00  0.00    +0.144 HD
ENDBRANCH  18  21
ENDBRANCH  15  16
BRANCH  14  25
ATOM     24  C   LIG    1       23.748 -18.999   3.735  0.00  0.00    +0.313 C 
ATOM     25  O   LIG    1       24.523 -20.158   4.021  0.00  0.00    -0.396 OA
ENDBRANCH  14  25
ENDBRANCH  10  15
ENDBRANCH   1  11
BRANCH   4  26
ATOM     26  C   LIG    1       25.835 -27.773   7.721  0.00  0.00    +0.352 C 
ATOM     27  O   LIG    1       25.193 -28.531   8.426  0.00  0.00    -0.244 OA
BRANCH  26  28
ATOM     28  OXT LIG    1       27.073 -27.396   8.085  0.00  0.00    -0.476 OA
ATOM     29  HXT LIG    1       27.672 -27.957   7.551  0.00  0.00    +0.295 HD
ENDBRANCH  26  28
ENDBRANCH   4  26
BRANCH   5  30
ATOM     30  C   LIG    1       25.736 -29.204   5.150  0.00  0.00    +0.007 C 
ATOM     31  C   LIG    1       24.943 -30.236   5.484  0.00  0.00    +0.017 C 
BRANCH  31  32
ATOM     32  C   LIG    1       25.369 -31.602   5.439  0.00  0.00    +0.035 A 
ATOM     33  C   LIG    1       25.356 -32.554   6.462  0.00  0.00    +0.052 A 
ATOM     34  C   LIG    1       24.919 -32.344   7.869  0.00  0.00    +0.067 C 
ATOM     35  N   LIG    1       25.829 -33.813   6.124  0.00  0.00    -0.252 NA
ATOM     36  C   LIG    1       26.192 -33.824   4.865  0.00  0.00    +0.156 A 
ATOM     37  S   LIG    1       25.978 -32.363   4.008  0.00  0.00    -0.076 S 
ENDBRANCH  31  32
ENDBRANCH   5  30
TORSDOF 9
ENDMDL
MODEL 4
REMARK VINA RESULT:      -4.1      5.108      7.999
REMARK  Name = *****
REMARK                            x       y       z     vdW  Elec       q    Type
REMARK                         _______ _______ _______ _____ _____    ______ ____
ROOT
ATOM      1  CA  LIG    1       26.145 -26.698   6.670  0.00  0.00    +0.191 C 
ATOM      2  C   LIG    1       26.644 -27.726   7.734  0.00  0.00    +0.169 C 
ATOM      3  N   LIG    1       25.417 -28.458   7.502  0.00  0.00    -0.249 N 
ATOM      4  CA  LIG    1       24.995 -29.538   8.231  0.00  0.00    +0.126 C 
ATOM      5  C   LIG    1       25.564 -29.821   9.431  0.00  0.00    -0.009 C 
ATOM      6  C   LIG    1       26.628 -28.955  10.090  0.00  0.00    +0.108 C 
ATOM      7  S   LIG    1       26.676 -27.238   9.475  0.00  0.00    -0.131 S 
ATOM      8  C   LIG    1       24.913 -27.643   6.554  0.00  0.00    +0.244 C 
ATOM      9  O   LIG    1       23.855 -27.608   5.954  0.00  0.00    -0.273 OA
ENDROOT
BRANCH   1  11
ATOM     10  C   LIG    1       25.463 -24.326   6.183  0.00  0.00    +0.268 C 
ATOM     11  N   LIG    1       25.852 -25.299   7.084  0.00  0.00    -0.296 N 
ATOM     12  H   LIG    1       26.035 -24.977   8.033  0.00  0.00    +0.150 HD
ATOM     13  O   LIG    1       25.222 -24.576   5.009  0.00  0.00    -0.268 OA
BRANCH  10  15
ATOM     14  N   LIG    1       24.197 -22.410   7.217  0.00  0.00    -0.078 NA
ATOM     15  C   LIG    1       25.313 -22.890   6.732  0.00  0.00    +0.190 C 
BRANCH  15  16
ATOM     16  C   LIG    1       26.457 -21.963   6.739  0.00  0.00    +0.107 A 
ATOM     17  N   LIG    1       27.627 -22.273   7.443  0.00  0.00    -0.223 NA
ATOM     18  C   LIG    1       28.516 -21.321   7.319  0.00  0.00    +0.156 A 
ATOM     19  S   LIG    1       28.047 -20.005   6.329  0.00  0.00    -0.060 S 
ATOM     20  C   LIG    1       26.524 -20.750   6.075  0.00  0.00    +0.078 A 
BRANCH  18  21
ATOM     21  N   LIG    1       29.721 -21.368   7.905  0.00  0.00    -0.338 N 
ATOM     22  H   LIG    1       30.234 -20.493   7.911  0.00  0.00    +0.144 HD
ATOM     23  H   LIG    1       29.825 -21.919   8.748  0.00  0.00    +0.144 HD
ENDBRANCH  18  21
ENDBRANCH  15  16
BRANCH  14  25
ATOM     24  C   LIG    1       22.157 -22.879   6.258  0.00  0.00    +0.313 C 
ATOM     25  O   LIG    1       23.133 -23.314   7.198  0.00  0.00    -0.396 OA
ENDBRANCH  14  25
ENDBRANCH  10  15
ENDBRANCH   1  11
BRANCH   4  26
ATOM     26  C   LIG    1       23.896 -30.392   7.659  0.00  0.00    +0.352 C 
ATOM     27  O   LIG    1       22.992 -30.944   8.262  0.00  0.00    -0.244 OA
BRANCH  26  28
ATOM     28  OXT LIG    1       24.022 -30.559   6.330  0.00  0.00    -0.476 OA
ATOM     29  HXT LIG    1       24.762 -29.971   6.075  0.00  0.00    +0.295 HD
ENDBRANCH  26  28
ENDBRANCH   4  26
BRANCH   5  30
ATOM     30  C   LIG    1       25.153 -30.962  10.258  0.00  0.00    +0.007 C 
ATOM     31  C   LIG    1       24.545 -30.854  11.452  0.00  0.00    +0.017 C 
BRANCH  31  32
ATOM     32  C   LIG    1       24.229 -31.977  12.280  0.00  0.00    +0.035 A 
ATOM     33  C   LIG    1       23.098 -32.796  12.246  0.00  0.00    +0.052 A 
ATOM     34  C   LIG    1       21.924 -32.658  11.341  0.00  0.00    +0.067 C 
ATOM     35  N   LIG    1       23.066 -33.825  13.176  0.00  0.00    -0.252 NA
ATOM     36  C   LIG    1       24.154 -33.794  13.905  0.00  0.00    +0.156 A 
ATOM     37  S   LIG    1       25.281 -32.570  13.522  0.00  0.00    -0.076 S 
ENDBRANCH  31  32
ENDBRANCH   5  30
TORSDOF 9
ENDMDL
MODEL 5
REMARK VINA RESULT:      -3.6      5.051      8.851
REMARK  Name = *****
REMARK                            x       y       z     vdW  Elec       q    Type
REMARK                         _______ _______ _______ _____ _____    ______ ____
ROOT
ATOM      1  CA  LIG    1       23.270 -29.777  12.121  0.00  0.00    +0.191 C 
ATOM      2  C   LIG    1       24.216 -29.710  13.362  0.00  0.00    +0.169 C 
ATOM      3  N   LIG    1       25.313 -29.551  12.431  0.00  0.00    -0.249 N 
ATOM      4  CA  LIG    1       26.639 -29.555  12.769  0.00  0.00    +0.126 C 
ATOM      5  C   LIG    1       27.036 -30.013  13.984  0.00  0.00    -0.009 C 
ATOM      6  C   LIG    1       26.089 -30.614  15.015  0.00  0.00    +0.108 C 
ATOM      7  S   LIG    1       24.515 -31.216  14.317  0.00  0.00    -0.131 S 
ATOM      8  C   LIG    1       24.576 -29.570  11.301  0.00  0.00    +0.244 C 
ATOM      9  O   LIG    1       24.857 -29.561  10.117  0.00  0.00    -0.273 OA
ENDROOT
BRANCH   1  11
ATOM     10  C   LIG    1       21.430 -31.066  10.990  0.00  0.00    +0.268 C 
ATOM     11  N   LIG    1       22.518 -31.030  11.840  0.00  0.00    -0.296 N 
ATOM     12  H   LIG    1       22.710 -31.891  12.351  0.00  0.00    +0.150 HD
ATOM     13  O   LIG    1       21.083 -30.098  10.324  0.00  0.00    -0.268 OA
BRANCH  10  15
ATOM     14  N   LIG    1       21.157 -33.475  10.307  0.00  0.00    -0.078 NA
ATOM     15  C   LIG    1       20.671 -32.408  10.887  0.00  0.00    +0.190 C 
BRANCH  15  16
ATOM     16  C   LIG    1       19.322 -32.556  11.458  0.00  0.00    +0.107 A 
ATOM     17  N   LIG    1       19.058 -32.181  12.781  0.00  0.00    -0.223 NA
ATOM     18  C   LIG    1       17.804 -32.392  13.088  0.00  0.00    +0.156 A 
ATOM     19  S   LIG    1       16.835 -33.017  11.822  0.00  0.00    -0.060 S 
ATOM     20  C   LIG    1       18.207 -33.038  10.794  0.00  0.00    +0.078 A 
BRANCH  18  21
ATOM     21  N   LIG    1       17.295 -32.126  14.300  0.00  0.00    -0.338 N 
ATOM     22  H   LIG    1       16.710 -31.301  14.352  0.00  0.00    +0.144 HD
ATOM     23  H   LIG    1       16.976 -32.902  14.867  0.00  0.00    +0.144 HD
ENDBRANCH  18  21
ENDBRANCH  15  16
BRANCH  14  25
ATOM     24  C   LIG    1       22.367 -33.294   8.357  0.00  0.00    +0.313 C 
ATOM     25  O   LIG    1       22.438 -33.302   9.779  0.00  0.00    -0.396 OA
ENDBRANCH  14  25
ENDBRANCH  10  15
ENDBRANCH   1  11
BRANCH   4  26
ATOM     26  C   LIG    1       27.629 -29.036  11.761  0.00  0.00    +0.352 C 
ATOM     27  O   LIG    1       28.379 -29.685  11.053  0.00  0.00    -0.244 OA
BRANCH  26  28
ATOM     28  OXT LIG    1       27.665 -27.693  11.731  0.00  0.00    -0.476 OA
ATOM     29  HXT LIG    1       28.269 -27.476  10.992  0.00  0.00    +0.295 HD
ENDBRANCH  26  28
ENDBRANCH   4  26
BRANCH   5  30
ATOM     30  C   LIG    1       28.443 -30.046  14.403  0.00  0.00    +0.007 C 
ATOM     31  C   LIG    1       29.239 -28.966  14.474  0.00  0.00    +0.017 C 
BRANCH  31  32
ATOM     32  C   LIG    1       30.629 -29.033  14.804  0.00  0.00    +0.035 A 
ATOM     33  C   LIG    1       31.471 -28.011  15.249  0.00  0.00    +0.052 A 
ATOM     34  C   LIG    1       31.108 -26.581  15.449  0.00  0.00    +0.067 C 
ATOM     35  N   LIG    1       32.787 -28.374  15.499  0.00  0.00    -0.252 NA
ATOM     36  C   LIG    1       32.946 -29.652  15.254  0.00  0.00    +0.156 A 
ATOM     37  S   LIG    1       31.554 -30.496  14.737  0.00  0.00    -0.076 S 
ENDBRANCH  31  32
ENDBRANCH   5  30
TORSDOF 9
ENDMDL
MODEL 6
REMARK VINA RESULT:      -3.4      7.823     11.152
REMARK  Name = *****
REMARK                            x       y       z     vdW  Elec       q    Type
REMARK                         _______ _______ _______ _____ _____    ______ ____
ROOT
ATOM      1  CA  LIG    1       23.681 -23.372   6.547  0.00  0.00    +0.191 C 
ATOM      2  C   LIG    1       24.470 -22.441   7.520  0.00  0.00    +0.169 C 
ATOM      3  N   LIG    1       25.094 -21.861   6.350  0.00  0.00    -0.249 N 
ATOM      4  CA  LIG    1       26.125 -20.961   6.371  0.00  0.00    +0.126 C 
ATOM      5  C   LIG    1       26.845 -20.769   7.507  0.00  0.00    -0.009 C 
ATOM      6  C   LIG    1       26.632 -21.561   8.790  0.00  0.00    +0.108 C 
ATOM      7  S   LIG    1       25.776 -23.154   8.547  0.00  0.00    -0.131 S 
ATOM      8  C   LIG    1       24.442 -22.601   5.430  0.00  0.00    +0.244 C 
ATOM      9  O   LIG    1       24.527 -22.700   4.219  0.00  0.00    -0.273 OA
ENDROOT
BRANCH   1  11
ATOM     10  C   LIG    1       25.160 -25.403   6.412  0.00  0.00    +0.268 C 
ATOM     11  N   LIG    1       23.910 -24.842   6.591  0.00  0.00    -0.296 N 
ATOM     12  H   LIG    1       23.133 -25.499   6.646  0.00  0.00    +0.150 HD
ATOM     13  O   LIG    1       26.177 -24.727   6.321  0.00  0.00    -0.268 OA
BRANCH  10  15
ATOM     14  N   LIG    1       25.012 -27.647   5.279  0.00  0.00    -0.078 NA
ATOM     15  C   LIG    1       25.229 -26.946   6.361  0.00  0.00    +0.190 C 
BRANCH  15  16
ATOM     16  C   LIG    1       25.558 -27.725   7.566  0.00  0.00    +0.107 A 
ATOM     17  N   LIG    1       24.878 -28.913   7.859  0.00  0.00    -0.223 NA
ATOM     18  C   LIG    1       25.321 -29.447   8.968  0.00  0.00    +0.156 A 
ATOM     19  S   LIG    1       26.600 -28.600   9.728  0.00  0.00    -0.060 S 
ATOM     20  C   LIG    1       26.534 -27.411   8.496  0.00  0.00    +0.078 A 
BRANCH  18  21
ATOM     21  N   LIG    1       24.829 -30.586   9.478  0.00  0.00    -0.338 N 
ATOM     22  H   LIG    1       24.138 -31.054   8.903  0.00  0.00    +0.144 HD
ATOM     23  H   LIG    1       25.464 -31.209   9.961  0.00  0.00    +0.144 HD
ENDBRANCH  18  21
ENDBRANCH  15  16
BRANCH  14  25
ATOM     24  C   LIG    1       25.900 -26.583   3.441  0.00  0.00    +0.313 C 
ATOM     25  O   LIG    1       24.705 -26.878   4.154  0.00  0.00    -0.396 OA
ENDBRANCH  14  25
ENDBRANCH  10  15
ENDBRANCH   1  11
BRANCH   4  26
ATOM     26  C   LIG    1       26.425 -20.197   5.110  0.00  0.00    +0.352 C 
ATOM     27  O   LIG    1       25.632 -19.642   4.369  0.00  0.00    -0.244 OA
BRANCH  26  28
ATOM     28  OXT LIG    1       27.735 -20.214   4.806  0.00  0.00    -0.476 OA
ATOM     29  HXT LIG    1       28.179 -20.500   5.630  0.00  0.00    +0.295 HD
ENDBRANCH  26  28
ENDBRANCH   4  26
BRANCH   5  30
ATOM     30  C   LIG    1       27.962 -19.820   7.592  0.00  0.00    +0.007 C 
ATOM     31  C   LIG    1       28.910 -19.849   8.544  0.00  0.00    +0.017 C 
BRANCH  31  32
ATOM     32  C   LIG    1       29.942 -18.864   8.657  0.00  0.00    +0.035 A 
ATOM     33  C   LIG    1       30.992 -18.595   7.774  0.00  0.00    +0.052 A 
ATOM     34  C   LIG    1       31.297 -19.312   6.507  0.00  0.00    +0.067 C 
ATOM     35  N   LIG    1       31.847 -17.567   8.145  0.00  0.00    -0.252 NA
ATOM     36  C   LIG    1       31.455 -17.058   9.288  0.00  0.00    +0.156 A 
ATOM     37  S   LIG    1       30.052 -17.746   9.974  0.00  0.00    -0.076 S 
ENDBRANCH  31  32
ENDBRANCH   5  30
TORSDOF 9
ENDMDL
MODEL 7
REMARK VINA RESULT:      -3.3      2.926      9.800
REMARK  Name = *****
REMARK                            x       y       z     vdW  Elec       q    Type
REMARK                         _______ _______ _______ _____ _____    ______ ____
ROOT
ATOM      1  CA  LIG    1       25.203 -29.706  13.700  0.00  0.00    +0.191 C 
ATOM      2  C   LIG    1       24.793 -30.905  12.787  0.00  0.00    +0.169 C 
ATOM      3  N   LIG    1       25.301 -30.140  11.669  0.00  0.00    -0.249 N 
ATOM      4  CA  LIG    1       25.172 -30.490  10.352  0.00  0.00    +0.126 C 
ATOM      5  C   LIG    1       24.285 -31.448   9.980  0.00  0.00    -0.009 C 
ATOM      6  C   LIG    1       23.331 -32.141  10.945  0.00  0.00    +0.108 C 
ATOM      7  S   LIG    1       23.037 -31.219  12.492  0.00  0.00    -0.131 S 
ATOM      8  C   LIG    1       25.714 -29.067  12.375  0.00  0.00    +0.244 C 
ATOM      9  O   LIG    1       26.178 -27.986  12.064  0.00  0.00    -0.273 OA
ENDROOT
BRANCH   1  11
ATOM     10  C   LIG    1       23.307 -28.055  13.787  0.00  0.00    +0.268 C 
ATOM     11  N   LIG    1       24.151 -28.943  14.425  0.00  0.00    -0.296 N 
ATOM     12  H   LIG    1       24.086 -28.964  15.442  0.00  0.00    +0.150 HD
ATOM     13  O   LIG    1       23.291 -27.923  12.569  0.00  0.00    -0.268 OA
BRANCH  10  15
ATOM     14  N   LIG    1       22.738 -26.299  15.500  0.00  0.00    -0.078 NA
ATOM     15  C   LIG    1       22.346 -27.242  14.682  0.00  0.00    +0.190 C 
BRANCH  15  16
ATOM     16  C   LIG    1       20.897 -27.496  14.656  0.00  0.00    +0.107 A 
ATOM     17  N   LIG    1       19.983 -26.435  14.634  0.00  0.00    -0.223 NA
ATOM     18  C   LIG    1       18.751 -26.876  14.612  0.00  0.00    +0.156 A 
ATOM     19  S   LIG    1       18.584 -28.580  14.578  0.00  0.00    -0.060 S 
ATOM     20  C   LIG    1       20.290 -28.740  14.632  0.00  0.00    +0.078 A 
BRANCH  18  21
ATOM     21  N   LIG    1       17.685 -26.063  14.597  0.00  0.00    -0.338 N 
ATOM     22  H   LIG    1       17.872 -25.109  14.312  0.00  0.00    +0.144 HD
ATOM     23  H   LIG    1       16.803 -26.433  14.267  0.00  0.00    +0.144 HD
ENDBRANCH  18  21
ENDBRANCH  15  16
BRANCH  14  25
ATOM     24  C   LIG    1       24.410 -24.891  14.778  0.00  0.00    +0.313 C 
ATOM     25  O   LIG    1       24.118 -26.082  15.500  0.00  0.00    -0.396 OA
ENDBRANCH  14  25
ENDBRANCH  10  15
ENDBRANCH   1  11
BRANCH   4  26
ATOM     26  C   LIG    1       26.042 -29.788   9.344  0.00  0.00    +0.352 C 
ATOM     27  O   LIG    1       25.713 -28.919   8.555  0.00  0.00    -0.244 OA
BRANCH  26  28
ATOM     28  OXT LIG    1       27.299 -30.263   9.341  0.00  0.00    -0.476 OA
ATOM     29  HXT LIG    1       27.222 -31.172   8.987  0.00  0.00    +0.295 HD
ENDBRANCH  26  28
ENDBRANCH   4  26
BRANCH   5  30
ATOM     30  C   LIG    1       24.099 -31.865   8.585  0.00  0.00    +0.007 C 
ATOM     31  C   LIG    1       24.846 -32.793   7.964  0.00  0.00    +0.017 C 
BRANCH  31  32
ATOM     32  C   LIG    1       24.701 -33.123   6.579  0.00  0.00    +0.035 A 
ATOM     33  C   LIG    1       25.697 -33.295   5.615  0.00  0.00    +0.052 A 
ATOM     34  C   LIG    1       27.164 -33.134   5.809  0.00  0.00    +0.067 C 
ATOM     35  N   LIG    1       25.257 -33.622   4.340  0.00  0.00    -0.252 NA
ATOM     36  C   LIG    1       23.948 -33.702   4.333  0.00  0.00    +0.156 A 
ATOM     37  S   LIG    1       23.171 -33.418   5.826  0.00  0.00    -0.076 S 
ENDBRANCH  31  32
ENDBRANCH   5  30
TORSDOF 9
ENDMDL
MODEL 8
REMARK VINA RESULT:      -3.3      9.254     12.650
REMARK  Name = *****
REMARK                            x       y       z     vdW  Elec       q    Type
REMARK                         _______ _______ _______ _____ _____    ______ ____
ROOT
ATOM      1  CA  LIG    1       27.256 -20.076   7.265  0.00  0.00    +0.191 C 
ATOM      2  C   LIG    1       27.246 -21.438   6.502  0.00  0.00    +0.169 C 
ATOM      3  N   LIG    1       25.952 -21.687   7.101  0.00  0.00    -0.249 N 
ATOM      4  CA  LIG    1       25.259 -22.865   7.019  0.00  0.00    +0.126 C 
ATOM      5  C   LIG    1       25.883 -24.000   6.611  0.00  0.00    -0.009 C 
ATOM      6  C   LIG    1       27.370 -24.085   6.293  0.00  0.00    +0.108 C 
ATOM      7  S   LIG    1       28.367 -22.751   7.040  0.00  0.00    -0.131 S 
ATOM      8  C   LIG    1       25.856 -20.524   7.778  0.00  0.00    +0.244 C 
ATOM      9  O   LIG    1       25.047 -20.080   8.571  0.00  0.00    -0.273 OA
ENDROOT
BRANCH   1  11
ATOM     10  C   LIG    1       29.599 -19.544   8.009  0.00  0.00    +0.268 C 
ATOM     11  N   LIG    1       28.283 -19.831   8.314  0.00  0.00    -0.296 N 
ATOM     12  H   LIG    1       28.078 -19.976   9.302  0.00  0.00    +0.150 HD
ATOM     13  O   LIG    1       29.982 -19.358   6.861  0.00  0.00    -0.268 OA
BRANCH  10  15
ATOM     14  N   LIG    1       30.998 -20.461   9.892  0.00  0.00    -0.078 NA
ATOM     15  C   LIG    1       30.581 -19.435   9.197  0.00  0.00    +0.190 C 
BRANCH  15  16
ATOM     16  C   LIG    1       31.114 -18.128   9.616  0.00  0.00    +0.107 A 
ATOM     17  N   LIG    1       30.984 -17.691  10.940  0.00  0.00    -0.223 NA
ATOM     18  C   LIG    1       31.523 -16.510  11.100  0.00  0.00    +0.156 A 
ATOM     19  S   LIG    1       32.255 -15.843   9.703  0.00  0.00    -0.060 S 
ATOM     20  C   LIG    1       31.785 -17.227   8.807  0.00  0.00    +0.078 A 
BRANCH  18  21
ATOM     21  N   LIG    1       31.525 -15.862  12.274  0.00  0.00    -0.338 N 
ATOM     22  H   LIG    1       31.267 -16.422  13.078  0.00  0.00    +0.144 HD
ATOM     23  H   LIG    1       32.263 -15.192  12.452  0.00  0.00    +0.144 HD
ENDBRANCH  18  21
ENDBRANCH  15  16
BRANCH  14  25
ATOM     24  C   LIG    1       31.520 -22.483   8.923  0.00  0.00    +0.313 C 
ATOM     25  O   LIG    1       30.476 -21.685   9.468  0.00  0.00    -0.396 OA
ENDBRANCH  14  25
ENDBRANCH  10  15
ENDBRANCH   1  11
BRANCH   4  26
ATOM     26  C   LIG    1       23.800 -22.856   7.387  0.00  0.00    +0.352 C 
ATOM     27  O   LIG    1       22.909 -23.538   6.913  0.00  0.00    -0.244 OA
BRANCH  26  28
ATOM     28  OXT LIG    1       23.518 -21.928   8.318  0.00  0.00    -0.476 OA
ATOM     29  HXT LIG    1       23.214 -22.439   9.096  0.00  0.00    +0.295 HD
ENDBRANCH  26  28
ENDBRANCH   4  26
BRANCH   5  30
ATOM     30  C   LIG    1       25.195 -25.293   6.505  0.00  0.00    +0.007 C 
ATOM     31  C   LIG    1       25.762 -26.479   6.784  0.00  0.00    +0.017 C 
BRANCH  31  32
ATOM     32  C   LIG    1       25.100 -27.733   6.594  0.00  0.00    +0.035 A 
ATOM     33  C   LIG    1       25.038 -28.827   7.459  0.00  0.00    +0.052 A 
ATOM     34  C   LIG    1       25.693 -28.949   8.790  0.00  0.00    +0.067 C 
ATOM     35  N   LIG    1       24.311 -29.919   7.007  0.00  0.00    -0.252 NA
ATOM     36  C   LIG    1       23.823 -29.660   5.818  0.00  0.00    +0.156 A 
ATOM     37  S   LIG    1       24.175 -28.116   5.181  0.00  0.00    -0.076 S 
ENDBRANCH  31  32
ENDBRANCH   5  30
TORSDOF 9
ENDMDL
MODEL 9
REMARK VINA RESULT:      -3.2      4.594      8.528
REMARK  Name = *****
REMARK                            x       y       z     vdW  Elec       q    Type
REMARK                         _______ _______ _______ _____ _____    ______ ____
ROOT
ATOM      1  CA  LIG    1       24.629 -30.483   6.497  0.00  0.00    +0.191 C 
ATOM      2  C   LIG    1       24.414 -29.003   6.943  0.00  0.00    +0.169 C 
ATOM      3  N   LIG    1       25.302 -28.620   5.867  0.00  0.00    -0.249 N 
ATOM      4  CA  LIG    1       25.778 -27.355   5.650  0.00  0.00    +0.126 C 
ATOM      5  C   LIG    1       25.684 -26.411   6.622  0.00  0.00    -0.009 C 
ATOM      6  C   LIG    1       25.133 -26.680   8.016  0.00  0.00    +0.108 C 
ATOM      7  S   LIG    1       25.152 -28.441   8.496  0.00  0.00    -0.131 S 
ATOM      8  C   LIG    1       25.529 -29.861   5.390  0.00  0.00    +0.244 C 
ATOM      9  O   LIG    1       26.257 -30.306   4.521  0.00  0.00    -0.273 OA
ENDROOT
BRANCH   1  11
ATOM     10  C   LIG    1       24.604 -32.188   8.346  0.00  0.00    +0.268 C 
ATOM     11  N   LIG    1       25.302 -31.437   7.420  0.00  0.00    -0.296 N 
ATOM     12  H   LIG    1       26.318 -31.491   7.480  0.00  0.00    +0.150 HD
ATOM     13  O   LIG    1       23.381 -32.206   8.391  0.00  0.00    -0.268 OA
BRANCH  10  15
ATOM     14  N   LIG    1       26.422 -33.825   8.946  0.00  0.00    -0.078 NA
ATOM     15  C   LIG    1       25.443 -33.044   9.322  0.00  0.00    +0.190 C 
BRANCH  15  16
ATOM     16  C   LIG    1       25.173 -33.017  10.769  0.00  0.00    +0.107 A 
ATOM     17  N   LIG    1       25.862 -32.137  11.611  0.00  0.00    -0.223 NA
ATOM     18  C   LIG    1       25.474 -32.273  12.853  0.00  0.00    +0.156 A 
ATOM     19  S   LIG    1       24.238 -33.430  13.111  0.00  0.00    -0.060 S 
ATOM     20  C   LIG    1       24.247 -33.800  11.437  0.00  0.00    +0.078 A 
BRANCH  18  21
ATOM     21  N   LIG    1       25.986 -31.553  13.861  0.00  0.00    -0.338 N 
ATOM     22  H   LIG    1       26.761 -31.983  14.351  0.00  0.00    +0.144 HD
ATOM     23  H   LIG    1       26.072 -30.551  13.741  0.00  0.00    +0.144 HD
ENDBRANCH  18  21
ENDBRANCH  15  16
BRANCH  14  25
ATOM     24  C   LIG    1       28.050 -33.706   7.322  0.00  0.00    +0.313 C 
ATOM     25  O   LIG    1       26.653 -33.825   7.569  0.00  0.00    -0.396 OA
ENDBRANCH  14  25
ENDBRANCH  10  15
ENDBRANCH   1  11
BRANCH   4  26
ATOM     26  C   LIG    1       26.397 -27.050   4.313  0.00  0.00    +0.352 C 
ATOM     27  O   LIG    1       25.854 -26.564   3.336  0.00  0.00    -0.244 OA
BRANCH  26  28
ATOM     28  OXT LIG    1       27.685 -27.430   4.251  0.00  0.00    -0.476 OA
ATOM     29  HXT LIG    1       27.750 -27.959   3.430  0.00  0.00    +0.295 HD
ENDBRANCH  26  28
ENDBRANCH   4  26
BRANCH   5  30
ATOM     30  C   LIG    1       26.178 -25.039   6.452  0.00  0.00    +0.007 C 
ATOM     31  C   LIG    1       25.728 -23.979   7.143  0.00  0.00    +0.017 C 
BRANCH  31  32
ATOM     32  C   LIG    1       26.164 -22.638   6.902  0.00  0.00    +0.035 A 
ATOM     33  C   LIG    1       25.653 -21.703   5.998  0.00  0.00    +0.052 A 
ATOM     34  C   LIG    1       24.537 -21.911   5.037  0.00  0.00    +0.067 C 
ATOM     35  N   LIG    1       26.280 -20.465   5.987  0.00  0.00    -0.252 NA
ATOM     36  C   LIG    1       27.250 -20.454   6.869  0.00  0.00    +0.156 A 
ATOM     37  S   LIG    1       27.461 -21.888   7.771  0.00  0.00    -0.076 S 
ENDBRANCH  31  32
ENDBRANCH   5  30
TORSDOF 9
ENDMDL
