MODEL 1
REMARK VINA RESULT:      54.3      0.000      0.000
REMARK  Name = *****
REMARK                            x       y       z     vdW  Elec       q    Type
REMARK                         _______ _______ _______ _____ _____    ______ ____
ROOT
ATOM      1  C   LIG    1       24.999 -12.936   3.644  0.00  0.00    +0.134 C 
ATOM      2  C   LIG    1       26.244 -13.818   3.849  0.00  0.00    +0.079 C 
ATOM      3  C   LIG    1       25.976 -15.325   3.925  0.00  0.00    +0.158 C 
ATOM      4  C   LIG    1       24.503 -15.690   3.959  0.00  0.00    +0.030 A 
ATOM      5  C   LIG    1       23.551 -14.961   3.220  0.00  0.00    +0.007 A 
ATOM      6  C   LIG    1       22.327 -15.577   2.875  0.00  0.00    +0.132 A 
ATOM      7  C   LIG    1       21.976 -16.817   3.426  0.00  0.00    +0.078 A 
ATOM      8  C   LIG    1       20.825 -17.616   2.937  0.00  0.00    +0.198 C 
ATOM      9  O   LIG    1       20.073 -17.141   2.089  0.00  0.00    -0.286 OA
ATOM     10  C   LIG    1       20.626 -18.998   3.448  0.00  0.00    +0.037 A 
ATOM     11  C   LIG    1       21.315 -19.414   4.590  0.00  0.00    +0.075 A 
ATOM     12  C   LIG    1       21.043 -20.666   5.172  0.00  0.00    +0.132 A 
ATOM     13  C   LIG    1       20.150 -21.535   4.546  0.00  0.00    +0.046 A 
ATOM     14  C   LIG    1       19.505 -21.146   3.367  0.00  0.00    +0.004 A 
ATOM     15  C   LIG    1       22.367 -18.543   5.152  0.00  0.00    +0.202 C 
ATOM     16  O   LIG    1       22.969 -18.788   6.192  0.00  0.00    -0.286 OA
ATOM     17  C   LIG    1       19.720 -19.871   2.830  0.00  0.00    +0.012 A 
ATOM     18  C   LIG    1       22.789 -17.346   4.420  0.00  0.00    +0.078 A 
ATOM     19  C   LIG    1       24.067 -16.809   4.655  0.00  0.00    +0.135 A 
ATOM     20  C   LIG    1       23.940 -13.590   2.728  0.00  0.00    +0.082 C 
ENDROOT
BRANCH   1  21
ATOM     21  O   LIG    1       25.454 -11.746   2.989  0.00  0.00    -0.381 OA
ATOM     22  H   LIG    1       26.021 -11.249   3.608  0.00  0.00    +0.211 HD
ENDBRANCH   1  21
BRANCH  19  23
ATOM     23  O   LIG    1       24.976 -17.413   5.485  0.00  0.00    -0.506 OA
ATOM     24  H   LIG    1       24.490 -18.027   6.085  0.00  0.00    +0.292 HD
ENDBRANCH  19  23
BRANCH   6  25
ATOM     25  O   LIG    1       21.557 -14.963   1.922  0.00  0.00    -0.506 OA
ATOM     26  H   LIG    1       22.103 -14.819   1.114  0.00  0.00    +0.292 HD
ENDBRANCH   6  25
BRANCH  12  27
ATOM     27  O   LIG    1       21.574 -20.901   6.406  0.00  0.00    -0.494 OA
ATOM     28  C   LIG    1       22.920 -20.537   6.651  0.00  0.00    +0.277 C 
ENDBRANCH  12  27
BRANCH   1  29
ATOM     29  C   LIG    1       24.331 -12.575   4.999  0.00  0.00    +0.202 C 
ATOM     30  O   LIG    1       24.822 -12.909   6.082  0.00  0.00    -0.291 OA
BRANCH  29  31
ATOM     31  C   LIG    1       23.060 -11.739   4.959  0.00  0.00    +0.309 C 
BRANCH  31  32
ATOM     32  O   LIG    1       22.680 -11.451   6.312  0.00  0.00    -0.457 OA
BRANCH  32  33
ATOM     33  C   LIG    1       21.545 -12.042   6.746  0.00  0.00    +0.307 C 
ATOM     34  O   LIG    1       20.428 -11.449   6.850  0.00  0.00    -0.251 OA
BRANCH  33  35
ATOM     35  C   LIG    1       21.778 -13.481   7.059  0.00  0.00    +0.120 C 
BRANCH  35  36
ATOM     36  C   LIG    1       20.522 -14.361   7.057  0.00  0.00    +0.011 C 
BRANCH  36  38
ATOM     37  C   LIG    1       19.453 -15.967   5.334  0.00  0.00    +0.004 C 
ATOM     38  C   LIG    1       20.592 -15.697   6.306  0.00  0.00    -0.003 C 
ENDBRANCH  36  38
ENDBRANCH  35  36
ENDBRANCH  33  35
ENDBRANCH  32  33
ENDBRANCH  31  32
ENDBRANCH  29  31
ENDBRANCH   1  29
BRANCH   3  39
ATOM     39  O   LIG    1       26.765 -16.103   2.973  0.00  0.00    -0.343 OA
BRANCH  39  40
ATOM     40  C   LIG    1       28.134 -16.420   3.254  0.00  0.00    +0.253 C 
ATOM     41  O   LIG    1       28.470 -16.299   4.660  0.00  0.00    -0.346 OA
ATOM     42  C   LIG    1       27.805 -17.276   5.465  0.00  0.00    +0.148 C 
ATOM     43  C   LIG    1       27.948 -17.004   6.946  0.00  0.00    +0.040 C 
ATOM     44  C   LIG    1       28.118 -18.742   5.120  0.00  0.00    +0.163 C 
ATOM     45  C   LIG    1       27.846 -18.948   3.652  0.00  0.00    +0.109 C 
ATOM     46  C   LIG    1       28.520 -17.830   2.849  0.00  0.00    +0.086 C 
BRANCH  45  47
ATOM     47  N   LIG    1       26.452 -19.312   3.317  0.00  0.00    -0.302 N 
ATOM     48  H   LIG    1       26.224 -19.121   2.356  0.00  0.00    +0.149 HD
ATOM     49  C   LIG    1       25.384 -19.971   3.888  0.00  0.00    +0.318 C 
ATOM     50  O   LIG    1       24.462 -20.226   3.095  0.00  0.00    -0.266 OA
BRANCH  49  51
ATOM     51  C   LIG    1       25.277 -20.442   5.351  0.00  0.00    +0.469 C 
ATOM     52  F   LIG    1       26.484 -20.734   5.914  0.00  0.00    -0.162 F 
ATOM     53  F   LIG    1       24.536 -21.567   5.518  0.00  0.00    -0.162 F 
ATOM     54  F   LIG    1       24.748 -19.471   6.146  0.00  0.00    -0.162 F 
ENDBRANCH  49  51
ENDBRANCH  45  47
BRANCH  44  55
ATOM     55  O   LIG    1       29.475 -19.087   5.399  0.00  0.00    -0.387 OA
ATOM     56  H   LIG    1       29.476 -20.027   5.660  0.00  0.00    +0.210 HD
ENDBRANCH  44  55
ENDBRANCH  39  40
ENDBRANCH   3  39
TORSDOF 16
ENDMDL
MODEL 2
REMARK VINA RESULT:      54.4      1.307      1.824
REMARK  Name = *****
REMARK                            x       y       z     vdW  Elec       q    Type
REMARK                         _______ _______ _______ _____ _____    ______ ____
ROOT
ATOM      1  C   LIG    1       27.123 -13.299   4.641  0.00  0.00    +0.134 C 
ATOM      2  C   LIG    1       27.990 -14.567   4.742  0.00  0.00    +0.079 C 
ATOM      3  C   LIG    1       27.260 -15.886   4.464  0.00  0.00    +0.158 C 
ATOM      4  C   LIG    1       25.758 -15.740   4.307  0.00  0.00    +0.030 A 
ATOM      5  C   LIG    1       25.194 -14.613   3.675  0.00  0.00    +0.007 A 
ATOM      6  C   LIG    1       23.902 -14.713   3.112  0.00  0.00    +0.132 A 
ATOM      7  C   LIG    1       23.110 -15.843   3.350  0.00  0.00    +0.078 A 
ATOM      8  C   LIG    1       21.849 -16.110   2.612  0.00  0.00    +0.198 C 
ATOM      9  O   LIG    1       21.411 -15.265   1.835  0.00  0.00    -0.286 OA
ATOM     10  C   LIG    1       21.161 -17.415   2.792  0.00  0.00    +0.037 A 
ATOM     11  C   LIG    1       21.516 -18.238   3.863  0.00  0.00    +0.075 A 
ATOM     12  C   LIG    1       20.789 -19.412   4.135  0.00  0.00    +0.132 A 
ATOM     13  C   LIG    1       19.769 -19.804   3.268  0.00  0.00    +0.046 A 
ATOM     14  C   LIG    1       19.453 -19.014   2.157  0.00  0.00    +0.004 A 
ATOM     15  C   LIG    1       22.695 -17.885   4.680  0.00  0.00    +0.202 C 
ATOM     16  O   LIG    1       23.036 -18.502   5.684  0.00  0.00    -0.286 OA
ATOM     17  C   LIG    1       20.127 -17.809   1.931  0.00  0.00    +0.012 A 
ATOM     18  C   LIG    1       23.567 -16.785   4.262  0.00  0.00    +0.078 A 
ATOM     19  C   LIG    1       24.901 -16.756   4.706  0.00  0.00    +0.135 A 
ATOM     20  C   LIG    1       26.056 -13.384   3.527  0.00  0.00    +0.082 C 
ENDROOT
BRANCH   1  21
ATOM     21  O   LIG    1       28.013 -12.231   4.299  0.00  0.00    -0.381 OA
ATOM     22  H   LIG    1       27.707 -11.418   4.741  0.00  0.00    +0.211 HD
ENDBRANCH   1  21
BRANCH  19  23
ATOM     23  O   LIG    1       25.450 -17.769   5.449  0.00  0.00    -0.506 OA
ATOM     24  H   LIG    1       26.290 -17.439   5.852  0.00  0.00    +0.292 HD
ENDBRANCH  19  23
BRANCH   6  25
ATOM     25  O   LIG    1       23.506 -13.714   2.261  0.00  0.00    -0.506 OA
ATOM     26  H   LIG    1       22.660 -13.978   1.831  0.00  0.00    +0.292 HD
ENDBRANCH   6  25
BRANCH  12  27
ATOM     27  O   LIG    1       21.039 -20.031   5.324  0.00  0.00    -0.494 OA
ATOM     28  C   LIG    1       20.580 -21.357   5.513  0.00  0.00    +0.277 C 
ENDBRANCH  12  27
BRANCH   1  29
ATOM     29  C   LIG    1       26.413 -12.990   5.988  0.00  0.00    +0.202 C 
ATOM     30  O   LIG    1       26.463 -13.765   6.948  0.00  0.00    -0.291 OA
BRANCH  29  31
ATOM     31  C   LIG    1       25.686 -11.659   6.113  0.00  0.00    +0.309 C 
BRANCH  31  32
ATOM     32  O   LIG    1       24.530 -11.707   5.265  0.00  0.00    -0.457 OA
BRANCH  32  33
ATOM     33  C   LIG    1       23.388 -12.139   5.845  0.00  0.00    +0.307 C 
ATOM     34  O   LIG    1       23.072 -11.911   7.053  0.00  0.00    -0.251 OA
BRANCH  33  35
ATOM     35  C   LIG    1       22.547 -12.893   4.872  0.00  0.00    +0.120 C 
BRANCH  35  36
ATOM     36  C   LIG    1       21.470 -13.788   5.497  0.00  0.00    +0.011 C 
BRANCH  36  38
ATOM     37  C   LIG    1       21.487 -15.848   7.062  0.00  0.00    +0.004 C 
ATOM     38  C   LIG    1       21.744 -14.357   6.895  0.00  0.00    -0.003 C 
ENDBRANCH  36  38
ENDBRANCH  35  36
ENDBRANCH  33  35
ENDBRANCH  32  33
ENDBRANCH  31  32
ENDBRANCH  29  31
ENDBRANCH   1  29
BRANCH   3  39
ATOM     39  O   LIG    1       27.897 -16.695   3.428  0.00  0.00    -0.343 OA
BRANCH  39  40
ATOM     40  C   LIG    1       29.100 -17.420   3.710  0.00  0.00    +0.253 C 
ATOM     41  O   LIG    1       29.245 -17.758   5.113  0.00  0.00    -0.346 OA
ATOM     42  C   LIG    1       28.262 -18.700   5.552  0.00  0.00    +0.148 C 
ATOM     43  C   LIG    1       28.246 -18.867   7.055  0.00  0.00    +0.040 C 
ATOM     44  C   LIG    1       28.277 -20.057   4.826  0.00  0.00    +0.163 C 
ATOM     45  C   LIG    1       28.182 -19.799   3.344  0.00  0.00    +0.109 C 
ATOM     46  C   LIG    1       29.205 -18.728   2.949  0.00  0.00    +0.086 C 
BRANCH  45  47
ATOM     47  N   LIG    1       26.807 -19.686   2.813  0.00  0.00    -0.302 N 
ATOM     48  H   LIG    1       26.789 -19.478   1.829  0.00  0.00    +0.149 HD
ATOM     49  C   LIG    1       25.512 -19.915   3.225  0.00  0.00    +0.318 C 
ATOM     50  O   LIG    1       24.673 -19.883   2.309  0.00  0.00    -0.266 OA
BRANCH  49  51
ATOM     51  C   LIG    1       25.054 -20.248   4.658  0.00  0.00    +0.469 C 
ATOM     52  F   LIG    1       25.422 -21.495   5.066  0.00  0.00    -0.162 F 
ATOM     53  F   LIG    1       23.709 -20.209   4.833  0.00  0.00    -0.162 F 
ATOM     54  F   LIG    1       25.618 -19.404   5.566  0.00  0.00    -0.162 F 
ENDBRANCH  49  51
ENDBRANCH  45  47
BRANCH  44  55
ATOM     55  O   LIG    1       29.462 -20.805   5.097  0.00  0.00    -0.387 OA
ATOM     56  H   LIG    1       30.201 -20.170   5.088  0.00  0.00    +0.210 HD
ENDBRANCH  44  55
ENDBRANCH  39  40
ENDBRANCH   3  39
TORSDOF 16
ENDMDL
MODEL 3
REMARK VINA RESULT:      55.5      2.774      7.963
REMARK  Name = *****
REMARK                            x       y       z     vdW  Elec       q    Type
REMARK                         _______ _______ _______ _____ _____    ______ ____
ROOT
ATOM      1  C   LIG    1       22.824 -19.923   4.005  0.00  0.00    +0.134 C 
ATOM      2  C   LIG    1       21.692 -18.880   4.059  0.00  0.00    +0.079 C 
ATOM      3  C   LIG    1       22.147 -17.417   4.069  0.00  0.00    +0.158 C 
ATOM      4  C   LIG    1       23.648 -17.237   4.200  0.00  0.00    +0.030 A 
ATOM      5  C   LIG    1       24.548 -18.126   3.581  0.00  0.00    +0.007 A 
ATOM      6  C   LIG    1       25.863 -17.692   3.300  0.00  0.00    +0.132 A 
ATOM      7  C   LIG    1       26.331 -16.472   3.805  0.00  0.00    +0.078 A 
ATOM      8  C   LIG    1       27.608 -15.858   3.365  0.00  0.00    +0.198 C 
ATOM      9  O   LIG    1       28.351 -16.479   2.608  0.00  0.00    -0.286 OA
ATOM     10  C   LIG    1       27.947 -14.480   3.810  0.00  0.00    +0.037 A 
ATOM     11  C   LIG    1       27.238 -13.906   4.868  0.00  0.00    +0.075 A 
ATOM     12  C   LIG    1       27.628 -12.662   5.397  0.00  0.00    +0.132 A 
ATOM     13  C   LIG    1       28.668 -11.954   4.796  0.00  0.00    +0.046 A 
ATOM     14  C   LIG    1       29.340 -12.500   3.696  0.00  0.00    +0.004 A 
ATOM     15  C   LIG    1       26.044 -14.600   5.393  0.00  0.00    +0.202 C 
ATOM     16  O   LIG    1       25.407 -14.213   6.367  0.00  0.00    -0.286 OA
ATOM     17  C   LIG    1       29.001 -13.770   3.217  0.00  0.00    +0.012 A 
ATOM     18  C   LIG    1       25.525 -15.781   4.700  0.00  0.00    +0.078 A 
ATOM     19  C   LIG    1       24.175 -16.137   4.863  0.00  0.00    +0.135 A 
ATOM     20  C   LIG    1       24.021 -19.468   3.139  0.00  0.00    +0.082 C 
ENDROOT
BRANCH   1  21
ATOM     21  O   LIG    1       22.266 -21.087   3.384  0.00  0.00    -0.381 OA
ATOM     22  H   LIG    1       22.671 -21.877   3.787  0.00  0.00    +0.211 HD
ENDBRANCH   1  21
BRANCH  19  23
ATOM     23  O   LIG    1       23.294 -15.371   5.582  0.00  0.00    -0.506 OA
ATOM     24  H   LIG    1       23.803 -14.864   6.260  0.00  0.00    +0.292 HD
ENDBRANCH  19  23
BRANCH   6  25
ATOM     25  O   LIG    1       26.613 -18.461   2.448  0.00  0.00    -0.506 OA
ATOM     26  H   LIG    1       27.433 -17.969   2.213  0.00  0.00    +0.292 HD
ENDBRANCH   6  25
BRANCH  12  27
ATOM     27  O   LIG    1       27.044 -12.281   6.570  0.00  0.00    -0.494 OA
ATOM     28  C   LIG    1       25.738 -11.737   6.538  0.00  0.00    +0.277 C 
ENDBRANCH  12  27
BRANCH   1  29
ATOM     29  C   LIG    1       23.341 -20.273   5.426  0.00  0.00    +0.202 C 
ATOM     30  O   LIG    1       23.089 -19.566   6.408  0.00  0.00    -0.291 OA
BRANCH  29  31
ATOM     31  C   LIG    1       24.136 -21.560   5.592  0.00  0.00    +0.309 C 
BRANCH  31  32
ATOM     32  O   LIG    1       25.044 -21.379   6.687  0.00  0.00    -0.457 OA
BRANCH  32  33
ATOM     33  C   LIG    1       26.270 -20.908   6.368  0.00  0.00    +0.307 C 
ATOM     34  O   LIG    1       27.317 -21.128   7.050  0.00  0.00    -0.251 OA
BRANCH  33  35
ATOM     35  C   LIG    1       26.227 -20.124   5.100  0.00  0.00    +0.120 C 
BRANCH  35  36
ATOM     36  C   LIG    1       27.596 -19.797   4.490  0.00  0.00    +0.011 C 
BRANCH  36  38
ATOM     37  C   LIG    1       29.107 -18.315   5.977  0.00  0.00    +0.004 C 
ATOM     38  C   LIG    1       28.795 -19.705   5.443  0.00  0.00    -0.003 C 
ENDBRANCH  36  38
ENDBRANCH  35  36
ENDBRANCH  33  35
ENDBRANCH  32  33
ENDBRANCH  31  32
ENDBRANCH  29  31
ENDBRANCH   1  29
BRANCH   3  39
ATOM     39  O   LIG    1       21.535 -16.612   3.015  0.00  0.00    -0.343 OA
BRANCH  39  40
ATOM     40  C   LIG    1       20.723 -15.479   3.346  0.00  0.00    +0.253 C 
ATOM     41  O   LIG    1       20.636 -15.238   4.774  0.00  0.00    -0.346 OA
ATOM     42  C   LIG    1       21.888 -14.837   5.337  0.00  0.00    +0.148 C 
ATOM     43  C   LIG    1       21.870 -14.828   6.849  0.00  0.00    +0.040 C 
ATOM     44  C   LIG    1       22.485 -13.539   4.765  0.00  0.00    +0.163 C 
ATOM     45  C   LIG    1       22.564 -13.679   3.266  0.00  0.00    +0.109 C 
ATOM     46  C   LIG    1       21.220 -14.184   2.731  0.00  0.00    +0.086 C 
BRANCH  45  47
ATOM     47  N   LIG    1       23.803 -14.309   2.759  0.00  0.00    -0.302 N 
ATOM     48  H   LIG    1       23.627 -15.175   2.280  0.00  0.00    +0.149 HD
ATOM     49  C   LIG    1       25.140 -14.005   2.617  0.00  0.00    +0.318 C 
ATOM     50  O   LIG    1       25.770 -14.802   1.901  0.00  0.00    -0.266 OA
BRANCH  49  51
ATOM     51  C   LIG    1       25.867 -12.780   3.205  0.00  0.00    +0.469 C 
ATOM     52  F   LIG    1       25.862 -12.751   4.568  0.00  0.00    -0.162 F 
ATOM     53  F   LIG    1       25.335 -11.588   2.832  0.00  0.00    -0.162 F 
ATOM     54  F   LIG    1       27.185 -12.775   2.861  0.00  0.00    -0.162 F 
ENDBRANCH  49  51
ENDBRANCH  45  47
BRANCH  44  55
ATOM     55  O   LIG    1       21.700 -12.392   5.088  0.00  0.00    -0.387 OA
ATOM     56  H   LIG    1       20.878 -12.722   5.496  0.00  0.00    +0.210 HD
ENDBRANCH  44  55
ENDBRANCH  39  40
ENDBRANCH   3  39
TORSDOF 16
ENDMDL
