MODEL 1
REMARK VINA RESULT:      -5.6      0.000      0.000
REMARK  Name = *****
REMARK                            x       y       z     vdW  Elec       q    Type
REMARK                         _______ _______ _______ _____ _____    ______ ____
ROOT
ATOM      1  C   LIG    1       23.972 -25.661  15.497  0.00  0.00    +0.011 C 
ATOM      2  C   LIG    1       24.724 -26.024  14.218  0.00  0.00    +0.026 C 
ATOM      3  C   LIG    1       25.913 -26.981  14.438  0.00  0.00    +0.134 C 
ATOM      4  C   LIG    1       25.999 -27.800  13.109  0.00  0.00    +0.009 C 
ATOM      5  C   LIG    1       26.654 -26.977  11.967  0.00  0.00    +0.015 C 
ATOM      6  C   LIG    1       24.497 -28.024  12.742  0.00  0.00    +0.003 C 
ATOM      7  C   LIG    1       23.823 -29.280  13.369  0.00  0.00    +0.017 C 
ATOM      8  C   LIG    1       24.650 -30.565  13.119  0.00  0.00    +0.036 C 
ATOM      9  C   LIG    1       26.053 -30.344  13.736  0.00  0.00    +0.120 C 
ATOM     10  C   LIG    1       24.525 -31.210  11.666  0.00  0.00    +0.013 C 
ATOM     11  C   LIG    1       24.703 -32.750  11.808  0.00  0.00    +0.020 C 
ATOM     12  C   LIG    1       23.139 -30.978  10.997  0.00  0.00    -0.055 C 
ATOM     13  C   LIG    1       22.986 -31.319   9.692  0.00  0.00    +0.051 C 
ATOM     14  C   LIG    1       23.946 -30.504   8.859  0.00  0.00    +0.179 C 
ATOM     15  O   LIG    1       23.636 -30.059   7.759  0.00  0.00    -0.288 OA
ATOM     16  C   LIG    1       25.321 -30.366   9.405  0.00  0.00    +0.047 C 
ATOM     17  C   LIG    1       22.268 -29.825  11.444  0.00  0.00    +0.051 C 
ATOM     18  C   LIG    1       25.584 -30.737  10.671  0.00  0.00    -0.012 C 
ATOM     19  C   LIG    1       22.361 -29.479  12.920  0.00  0.00    +0.088 C 
ATOM     20 CL   LIG    1       21.538 -30.741  13.905  0.00  0.00    -0.121 Cl
ATOM     21  C   LIG    1       26.806 -29.107  13.243  0.00  0.00    +0.042 C 
ATOM     22  C   LIG    1       23.810 -26.714  13.188  0.00  0.00    +0.011 C 
ENDROOT
BRANCH   3  23
ATOM     23  C   LIG    1       27.231 -26.278  14.857  0.00  0.00    +0.190 C 
ATOM     24  O   LIG    1       28.144 -26.933  15.380  0.00  0.00    -0.292 OA
BRANCH  23  25
ATOM     25  C   LIG    1       27.369 -24.764  14.722  0.00  0.00    +0.233 C 
BRANCH  25  26
ATOM     26  O   LIG    1       28.121 -24.402  13.574  0.00  0.00    -0.387 OA
ATOM     27  H   LIG    1       27.877 -23.478  13.358  0.00  0.00    +0.210 HD
ENDBRANCH  25  26
ENDBRANCH  23  25
ENDBRANCH   3  23
BRANCH   3  28
ATOM     28  O   LIG    1       25.573 -27.888  15.500  0.00  0.00    -0.380 OA
ATOM     29  H   LIG    1       25.556 -28.794  15.128  0.00  0.00    +0.211 HD
ENDBRANCH   3  28
BRANCH   9  30
ATOM     30  O   LIG    1       26.888 -31.483  13.552  0.00  0.00    -0.391 OA
ATOM     31  H   LIG    1       26.924 -31.663  12.595  0.00  0.00    +0.210 HD
ENDBRANCH   9  30
TORSDOF 5
ENDMDL
MODEL 2
REMARK VINA RESULT:      -5.4      2.587      6.809
REMARK  Name = *****
REMARK                            x       y       z     vdW  Elec       q    Type
REMARK                         _______ _______ _______ _____ _____    ______ ____
ROOT
ATOM      1  C   LIG    1       22.241 -33.049   9.405  0.00  0.00    +0.011 C 
ATOM      2  C   LIG    1       23.761 -32.992   9.546  0.00  0.00    +0.026 C 
ATOM      3  C   LIG    1       24.448 -32.029   8.558  0.00  0.00    +0.134 C 
ATOM      4  C   LIG    1       25.715 -31.529   9.328  0.00  0.00    +0.009 C 
ATOM      5  C   LIG    1       26.842 -32.595   9.335  0.00  0.00    +0.015 C 
ATOM      6  C   LIG    1       25.192 -31.369  10.791  0.00  0.00    +0.003 C 
ATOM      7  C   LIG    1       24.546 -29.994  11.137  0.00  0.00    +0.017 C 
ATOM      8  C   LIG    1       25.465 -28.811  10.747  0.00  0.00    +0.036 C 
ATOM      9  C   LIG    1       25.733 -28.910   9.225  0.00  0.00    +0.120 C 
ATOM     10  C   LIG    1       26.676 -28.504  11.738  0.00  0.00    +0.013 C 
ATOM     11  C   LIG    1       26.960 -26.974  11.690  0.00  0.00    +0.020 C 
ATOM     12  C   LIG    1       26.373 -28.858  13.223  0.00  0.00    -0.055 C 
ATOM     13  C   LIG    1       27.391 -28.814  14.119  0.00  0.00    +0.051 C 
ATOM     14  C   LIG    1       28.448 -29.809  13.705  0.00  0.00    +0.179 C 
ATOM     15  O   LIG    1       29.063 -30.484  14.524  0.00  0.00    -0.288 OA
ATOM     16  C   LIG    1       28.773 -29.843  12.255  0.00  0.00    +0.047 C 
ATOM     17  C   LIG    1       25.297 -29.869  13.554  0.00  0.00    +0.051 C 
ATOM     18  C   LIG    1       27.984 -29.203  11.373  0.00  0.00    -0.012 C 
ATOM     19  C   LIG    1       24.106 -29.879  12.610  0.00  0.00    +0.088 C 
ATOM     20 CL   LIG    1       23.092 -28.415  12.879  0.00  0.00    -0.121 Cl
ATOM     21  C   LIG    1       26.320 -30.237   8.741  0.00  0.00    +0.042 C 
ATOM     22  C   LIG    1       24.191 -32.535  10.953  0.00  0.00    +0.011 C 
ENDROOT
BRANCH   3  23
ATOM     23  C   LIG    1       24.734 -32.641   7.161  0.00  0.00    +0.190 C 
ATOM     24  O   LIG    1       25.089 -33.825   7.065  0.00  0.00    -0.292 OA
BRANCH  23  25
ATOM     25  C   LIG    1       24.682 -31.764   5.914  0.00  0.00    +0.233 C 
BRANCH  25  26
ATOM     26  O   LIG    1       23.367 -31.295   5.653  0.00  0.00    -0.387 OA
ATOM     27  H   LIG    1       22.808 -32.088   5.523  0.00  0.00    +0.210 HD
ENDBRANCH  25  26
ENDBRANCH  23  25
ENDBRANCH   3  23
BRANCH   3  28
ATOM     28  O   LIG    1       23.581 -30.902   8.347  0.00  0.00    -0.380 OA
ATOM     29  H   LIG    1       22.658 -31.211   8.442  0.00  0.00    +0.211 HD
ENDBRANCH   3  28
BRANCH   9  30
ATOM     30  O   LIG    1       26.576 -27.854   8.775  0.00  0.00    -0.391 OA
ATOM     31  H   LIG    1       26.121 -27.015   8.975  0.00  0.00    +0.210 HD
ENDBRANCH   9  30
TORSDOF 5
ENDMDL
MODEL 3
REMARK VINA RESULT:      -5.0      2.496      6.396
REMARK  Name = *****
REMARK                            x       y       z     vdW  Elec       q    Type
REMARK                         _______ _______ _______ _____ _____    ______ ____
ROOT
ATOM      1  C   LIG    1       24.316 -31.984   8.867  0.00  0.00    +0.011 C 
ATOM      2  C   LIG    1       23.626 -30.948   9.754  0.00  0.00    +0.026 C 
ATOM      3  C   LIG    1       23.324 -31.446  11.182  0.00  0.00    +0.134 C 
ATOM      4  C   LIG    1       23.403 -30.155  12.062  0.00  0.00    +0.009 C 
ATOM      5  C   LIG    1       22.130 -29.280  11.915  0.00  0.00    +0.015 C 
ATOM      6  C   LIG    1       24.600 -29.376  11.430  0.00  0.00    +0.003 C 
ATOM      7  C   LIG    1       26.012 -29.733  11.982  0.00  0.00    +0.017 C 
ATOM      8  C   LIG    1       26.062 -29.662  13.527  0.00  0.00    +0.036 C 
ATOM      9  C   LIG    1       25.006 -30.654  14.074  0.00  0.00    +0.120 C 
ATOM     10  C   LIG    1       26.170 -28.203  14.163  0.00  0.00    +0.013 C 
ATOM     11  C   LIG    1       26.969 -28.317  15.494  0.00  0.00    +0.020 C 
ATOM     12  C   LIG    1       26.936 -27.187  13.265  0.00  0.00    -0.055 C 
ATOM     13  C   LIG    1       26.925 -25.877  13.619  0.00  0.00    +0.051 C 
ATOM     14  C   LIG    1       25.499 -25.382  13.614  0.00  0.00    +0.179 C 
ATOM     15  O   LIG    1       25.201 -24.261  13.215  0.00  0.00    -0.288 OA
ATOM     16  C   LIG    1       24.495 -26.294  14.221  0.00  0.00    +0.047 C 
ATOM     17  C   LIG    1       27.045 -27.428  11.777  0.00  0.00    +0.051 C 
ATOM     18  C   LIG    1       24.827 -27.565  14.511  0.00  0.00    -0.012 C 
ATOM     19  C   LIG    1       27.142 -28.886  11.362  0.00  0.00    +0.088 C 
ATOM     20 CL   LIG    1       28.763 -29.545  11.789  0.00  0.00    -0.121 Cl
ATOM     21  C   LIG    1       23.578 -30.447  13.567  0.00  0.00    +0.042 C 
ATOM     22  C   LIG    1       24.476 -29.675   9.919  0.00  0.00    +0.011 C 
ENDROOT
BRANCH   3  23
ATOM     23  C   LIG    1       22.001 -32.246  11.314  0.00  0.00    +0.190 C 
ATOM     24  O   LIG    1       21.774 -32.901  12.341  0.00  0.00    -0.292 OA
BRANCH  23  25
ATOM     25  C   LIG    1       21.025 -32.314  10.143  0.00  0.00    +0.233 C 
BRANCH  25  26
ATOM     26  O   LIG    1       20.097 -31.240  10.166  0.00  0.00    -0.387 OA
ATOM     27  H   LIG    1       19.391 -31.467   9.527  0.00  0.00    +0.210 HD
ENDBRANCH  25  26
ENDBRANCH  23  25
ENDBRANCH   3  23
BRANCH   3  28
ATOM     28  O   LIG    1       24.384 -32.328  11.588  0.00  0.00    -0.380 OA
ATOM     29  H   LIG    1       24.584 -32.923  10.837  0.00  0.00    +0.211 HD
ENDBRANCH   3  28
BRANCH   9  30
ATOM     30  O   LIG    1       24.982 -30.656  15.498  0.00  0.00    -0.391 OA
ATOM     31  H   LIG    1       24.465 -29.879  15.780  0.00  0.00    +0.210 HD
ENDBRANCH   9  30
TORSDOF 5
ENDMDL
MODEL 4
REMARK VINA RESULT:      -5.0      1.633      2.099
REMARK  Name = *****
REMARK                            x       y       z     vdW  Elec       q    Type
REMARK                         _______ _______ _______ _____ _____    ______ ____
ROOT
ATOM      1  C   LIG    1       23.828 -27.623  15.500  0.00  0.00    +0.011 C 
ATOM      2  C   LIG    1       24.468 -27.038  14.242  0.00  0.00    +0.026 C 
ATOM      3  C   LIG    1       25.975 -27.337  14.107  0.00  0.00    +0.134 C 
ATOM      4  C   LIG    1       26.217 -27.395  12.563  0.00  0.00    +0.009 C 
ATOM      5  C   LIG    1       26.269 -25.978  11.934  0.00  0.00    +0.015 C 
ATOM      6  C   LIG    1       24.932 -28.110  12.036  0.00  0.00    +0.003 C 
ATOM      7  C   LIG    1       24.979 -29.666  12.014  0.00  0.00    +0.017 C 
ATOM      8  C   LIG    1       26.240 -30.196  11.290  0.00  0.00    +0.036 C 
ATOM      9  C   LIG    1       27.476 -29.633  12.034  0.00  0.00    +0.120 C 
ATOM     10  C   LIG    1       26.202 -30.164   9.695  0.00  0.00    +0.013 C 
ATOM     11  C   LIG    1       27.058 -31.354   9.171  0.00  0.00    +0.020 C 
ATOM     12  C   LIG    1       24.774 -30.341   9.102  0.00  0.00    -0.055 C 
ATOM     13  C   LIG    1       24.598 -30.143   7.771  0.00  0.00    +0.051 C 
ATOM     14  C   LIG    1       24.969 -28.719   7.436  0.00  0.00    +0.179 C 
ATOM     15  O   LIG    1       24.338 -28.057   6.618  0.00  0.00    -0.288 OA
ATOM     16  C   LIG    1       26.207 -28.204   8.078  0.00  0.00    +0.047 C 
ATOM     17  C   LIG    1       23.560 -30.016   9.944  0.00  0.00    +0.051 C 
ATOM     18  C   LIG    1       26.787 -28.896   9.075  0.00  0.00    -0.012 C 
ATOM     19  C   LIG    1       23.705 -30.308  11.427  0.00  0.00    +0.088 C 
ATOM     20 CL   LIG    1       23.674 -32.086  11.714  0.00  0.00    -0.121 Cl
ATOM     21  C   LIG    1       27.528 -28.110  12.173  0.00  0.00    +0.042 C 
ATOM     22  C   LIG    1       23.812 -27.577  12.957  0.00  0.00    +0.011 C 
ENDROOT
BRANCH   3  23
ATOM     23  C   LIG    1       26.894 -26.351  14.874  0.00  0.00    +0.190 C 
ATOM     24  O   LIG    1       27.968 -26.747  15.351  0.00  0.00    -0.292 OA
BRANCH  23  25
ATOM     25  C   LIG    1       26.436 -24.919  15.135  0.00  0.00    +0.233 C 
BRANCH  25  26
ATOM     26  O   LIG    1       27.262 -23.971  14.476  0.00  0.00    -0.387 OA
ATOM     27  H   LIG    1       27.629 -24.420  13.686  0.00  0.00    +0.210 HD
ENDBRANCH  25  26
ENDBRANCH  23  25
ENDBRANCH   3  23
BRANCH   3  28
ATOM     28  O   LIG    1       26.227 -28.644  14.648  0.00  0.00    -0.380 OA
ATOM     29  H   LIG    1       26.172 -29.289  13.914  0.00  0.00    +0.211 HD
ENDBRANCH   3  28
BRANCH   9  30
ATOM     30  O   LIG    1       28.690 -30.071  11.431  0.00  0.00    -0.391 OA
ATOM     31  H   LIG    1       28.736 -31.038  11.544  0.00  0.00    +0.210 HD
ENDBRANCH   9  30
TORSDOF 5
ENDMDL
MODEL 5
REMARK VINA RESULT:      -5.0      2.175      6.664
REMARK  Name = *****
REMARK                            x       y       z     vdW  Elec       q    Type
REMARK                         _______ _______ _______ _____ _____    ______ ____
ROOT
ATOM      1  C   LIG    1       26.564 -33.331   7.626  0.00  0.00    +0.011 C 
ATOM      2  C   LIG    1       26.317 -31.882   8.041  0.00  0.00    +0.026 C 
ATOM      3  C   LIG    1       24.856 -31.419   7.870  0.00  0.00    +0.134 C 
ATOM      4  C   LIG    1       24.657 -30.352   8.996  0.00  0.00    +0.009 C 
ATOM      5  C   LIG    1       25.309 -28.994   8.624  0.00  0.00    +0.015 C 
ATOM      6  C   LIG    1       25.455 -30.958  10.194  0.00  0.00    +0.003 C 
ATOM      7  C   LIG    1       24.668 -31.943  11.108  0.00  0.00    +0.017 C 
ATOM      8  C   LIG    1       23.327 -31.336  11.589  0.00  0.00    +0.036 C 
ATOM      9  C   LIG    1       22.494 -30.990  10.331  0.00  0.00    +0.120 C 
ATOM     10  C   LIG    1       23.419 -30.283  12.784  0.00  0.00    +0.013 C 
ATOM     11  C   LIG    1       22.112 -30.392  13.622  0.00  0.00    +0.020 C 
ATOM     12  C   LIG    1       24.602 -30.549  13.760  0.00  0.00    -0.055 C 
ATOM     13  C   LIG    1       24.887 -29.612  14.700  0.00  0.00    +0.051 C 
ATOM     14  C   LIG    1       25.255 -28.322  14.007  0.00  0.00    +0.179 C 
ATOM     15  O   LIG    1       26.147 -27.591  14.424  0.00  0.00    -0.288 OA
ATOM     16  C   LIG    1       24.399 -27.940  12.853  0.00  0.00    +0.047 C 
ATOM     17  C   LIG    1       25.799 -31.348  13.296  0.00  0.00    +0.051 C 
ATOM     18  C   LIG    1       23.532 -28.828  12.335  0.00  0.00    -0.012 C 
ATOM     19  C   LIG    1       25.492 -32.458  12.306  0.00  0.00    +0.088 C 
ATOM     20 CL   LIG    1       24.658 -33.818  13.139  0.00  0.00    -0.121 Cl
ATOM     21  C   LIG    1       23.176 -30.068   9.319  0.00  0.00    +0.042 C 
ATOM     22  C   LIG    1       26.668 -31.639   9.520  0.00  0.00    +0.011 C 
ENDROOT
BRANCH   3  23
ATOM     23  C   LIG    1       24.502 -30.931   6.440  0.00  0.00    +0.190 C 
ATOM     24  O   LIG    1       23.316 -30.844   6.090  0.00  0.00    -0.292 OA
BRANCH  23  25
ATOM     25  C   LIG    1       25.610 -30.657   5.427  0.00  0.00    +0.233 C 
BRANCH  25  26
ATOM     26  O   LIG    1       25.944 -29.279   5.369  0.00  0.00    -0.387 OA
ATOM     27  H   LIG    1       26.806 -29.219   4.907  0.00  0.00    +0.210 HD
ENDBRANCH  25  26
ENDBRANCH  23  25
ENDBRANCH   3  23
BRANCH   3  28
ATOM     28  O   LIG    1       23.992 -32.532   8.153  0.00  0.00    -0.380 OA
ATOM     29  H   LIG    1       23.069 -32.239   8.017  0.00  0.00    +0.211 HD
ENDBRANCH   3  28
BRANCH   9  30
ATOM     30  O   LIG    1       21.235 -30.422  10.680  0.00  0.00    -0.391 OA
ATOM     31  H   LIG    1       20.634 -30.565   9.927  0.00  0.00    +0.210 HD
ENDBRANCH   9  30
TORSDOF 5
ENDMDL
MODEL 6
REMARK VINA RESULT:      -4.7      2.425      6.690
REMARK  Name = *****
REMARK                            x       y       z     vdW  Elec       q    Type
REMARK                         _______ _______ _______ _____ _____    ______ ____
ROOT
ATOM      1  C   LIG    1       26.050 -31.230   7.075  0.00  0.00    +0.011 C 
ATOM      2  C   LIG    1       24.949 -30.706   7.996  0.00  0.00    +0.026 C 
ATOM      3  C   LIG    1       24.477 -31.723   9.054  0.00  0.00    +0.134 C 
ATOM      4  C   LIG    1       24.039 -30.840  10.267  0.00  0.00    +0.009 C 
ATOM      5  C   LIG    1       22.651 -30.185  10.032  0.00  0.00    +0.015 C 
ATOM      6  C   LIG    1       25.112 -29.705  10.277  0.00  0.00    +0.003 C 
ATOM      7  C   LIG    1       26.413 -30.006  11.078  0.00  0.00    +0.017 C 
ATOM      8  C   LIG    1       26.108 -30.488  12.517  0.00  0.00    +0.036 C 
ATOM      9  C   LIG    1       25.238 -31.765  12.406  0.00  0.00    +0.120 C 
ATOM     10  C   LIG    1       25.709 -29.356  13.568  0.00  0.00    +0.013 C 
ATOM     11  C   LIG    1       26.201 -29.811  14.973  0.00  0.00    +0.020 C 
ATOM     12  C   LIG    1       26.374 -27.978  13.284  0.00  0.00    -0.055 C 
ATOM     13  C   LIG    1       25.961 -26.901  13.999  0.00  0.00    +0.051 C 
ATOM     14  C   LIG    1       24.493 -26.672  13.733  0.00  0.00    +0.179 C 
ATOM     15  O   LIG    1       24.020 -25.545  13.625  0.00  0.00    -0.288 OA
ATOM     16  C   LIG    1       23.640 -27.889  13.716  0.00  0.00    +0.047 C 
ATOM     17  C   LIG    1       26.861 -27.648  11.891  0.00  0.00    +0.051 C 
ATOM     18  C   LIG    1       24.206 -29.109  13.690  0.00  0.00    -0.012 C 
ATOM     19  C   LIG    1       27.405 -28.825  11.099  0.00  0.00    +0.088 C 
ATOM     20 CL   LIG    1       29.006 -29.325  11.756  0.00  0.00    -0.121 Cl
ATOM     21  C   LIG    1       23.949 -31.620  11.595  0.00  0.00    +0.042 C 
ATOM     22  C   LIG    1       25.399 -29.458   8.779  0.00  0.00    +0.011 C 
ENDROOT
BRANCH   3  23
ATOM     23  C   LIG    1       23.398 -32.718   8.548  0.00  0.00    +0.190 C 
ATOM     24  O   LIG    1       22.889 -32.563   7.428  0.00  0.00    -0.292 OA
BRANCH  23  25
ATOM     25  C   LIG    1       22.886 -33.825   9.465  0.00  0.00    +0.233 C 
BRANCH  25  26
ATOM     26  O   LIG    1       21.542 -33.601   9.863  0.00  0.00    -0.387 OA
ATOM     27  H   LIG    1       20.984 -33.775   9.077  0.00  0.00    +0.210 HD
ENDBRANCH  25  26
ENDBRANCH  23  25
ENDBRANCH   3  23
BRANCH   3  28
ATOM     28  O   LIG    1       25.608 -32.511   9.461  0.00  0.00    -0.380 OA
ATOM     29  H   LIG    1       26.199 -32.611   8.687  0.00  0.00    +0.211 HD
ENDBRANCH   3  28
BRANCH   9  30
ATOM     30  O   LIG    1       24.906 -32.281  13.691  0.00  0.00    -0.391 OA
ATOM     31  H   LIG    1       24.238 -31.686  14.078  0.00  0.00    +0.210 HD
ENDBRANCH   9  30
TORSDOF 5
ENDMDL
MODEL 7
REMARK VINA RESULT:      -4.6      3.228      6.371
REMARK  Name = *****
REMARK                            x       y       z     vdW  Elec       q    Type
REMARK                         _______ _______ _______ _____ _____    ______ ____
ROOT
ATOM      1  C   LIG    1       23.854 -32.798   7.025  0.00  0.00    +0.011 C 
ATOM      2  C   LIG    1       24.911 -32.169   7.931  0.00  0.00    +0.026 C 
ATOM      3  C   LIG    1       24.580 -30.731   8.379  0.00  0.00    +0.134 C 
ATOM      4  C   LIG    1       25.249 -30.605   9.787  0.00  0.00    +0.009 C 
ATOM      5  C   LIG    1       26.783 -30.399   9.680  0.00  0.00    +0.015 C 
ATOM      6  C   LIG    1       24.993 -32.009  10.421  0.00  0.00    +0.003 C 
ATOM      7  C   LIG    1       23.641 -32.180  11.175  0.00  0.00    +0.017 C 
ATOM      8  C   LIG    1       23.414 -31.057  12.215  0.00  0.00    +0.036 C 
ATOM      9  C   LIG    1       23.438 -29.707  11.456  0.00  0.00    +0.120 C 
ATOM     10  C   LIG    1       24.211 -31.198  13.589  0.00  0.00    +0.013 C 
ATOM     11  C   LIG    1       23.349 -30.553  14.713  0.00  0.00    +0.020 C 
ATOM     12  C   LIG    1       24.469 -32.674  14.012  0.00  0.00    -0.055 C 
ATOM     13  C   LIG    1       25.297 -32.910  15.061  0.00  0.00    +0.051 C 
ATOM     14  C   LIG    1       26.668 -32.369  14.733  0.00  0.00    +0.179 C 
ATOM     15  O   LIG    1       27.694 -32.956  15.060  0.00  0.00    -0.288 OA
ATOM     16  C   LIG    1       26.697 -31.031  14.086  0.00  0.00    +0.047 C 
ATOM     17  C   LIG    1       24.457 -33.770  12.971  0.00  0.00    +0.051 C 
ATOM     18  C   LIG    1       25.563 -30.486  13.612  0.00  0.00    -0.012 C 
ATOM     19  C   LIG    1       23.477 -33.567  11.828  0.00  0.00    +0.088 C 
ATOM     20 CL   LIG    1       21.791 -33.824  12.406  0.00  0.00    -0.121 Cl
ATOM     21  C   LIG    1       24.695 -29.435  10.628  0.00  0.00    +0.042 C 
ATOM     22  C   LIG    1       25.116 -32.980   9.224  0.00  0.00    +0.011 C 
ENDROOT
BRANCH   3  23
ATOM     23  C   LIG    1       24.990 -29.634   7.362  0.00  0.00    +0.190 C 
ATOM     24  O   LIG    1       25.497 -28.575   7.762  0.00  0.00    -0.292 OA
BRANCH  23  25
ATOM     25  C   LIG    1       24.678 -29.807   5.878  0.00  0.00    +0.233 C 
BRANCH  25  26
ATOM     26  O   LIG    1       23.290 -29.669   5.611  0.00  0.00    -0.387 OA
ATOM     27  H   LIG    1       23.215 -29.206   4.751  0.00  0.00    +0.210 HD
ENDBRANCH  25  26
ENDBRANCH  23  25
ENDBRANCH   3  23
BRANCH   3  28
ATOM     28  O   LIG    1       23.157 -30.626   8.550  0.00  0.00    -0.380 OA
ATOM     29  H   LIG    1       22.975 -29.815   9.066  0.00  0.00    +0.211 HD
ENDBRANCH   3  28
BRANCH   9  30
ATOM     30  O   LIG    1       23.237 -28.609  12.340  0.00  0.00    -0.391 OA
ATOM     31  H   LIG    1       23.401 -28.932  13.245  0.00  0.00    +0.210 HD
ENDBRANCH   9  30
TORSDOF 5
ENDMDL
MODEL 8
REMARK VINA RESULT:      -4.6      3.447      6.633
REMARK  Name = *****
REMARK                            x       y       z     vdW  Elec       q    Type
REMARK                         _______ _______ _______ _____ _____    ______ ____
ROOT
ATOM      1  C   LIG    1       18.493 -29.452  15.006  0.00  0.00    +0.011 C 
ATOM      2  C   LIG    1       19.488 -30.572  14.704  0.00  0.00    +0.026 C 
ATOM      3  C   LIG    1       19.533 -30.989  13.221  0.00  0.00    +0.134 C 
ATOM      4  C   LIG    1       21.007 -31.463  13.000  0.00  0.00    +0.009 C 
ATOM      5  C   LIG    1       21.251 -32.881  13.582  0.00  0.00    +0.015 C 
ATOM      6  C   LIG    1       21.830 -30.444  13.852  0.00  0.00    +0.003 C 
ATOM      7  C   LIG    1       22.238 -29.126  13.130  0.00  0.00    +0.017 C 
ATOM      8  C   LIG    1       22.934 -29.400  11.775  0.00  0.00    +0.036 C 
ATOM      9  C   LIG    1       21.945 -30.208  10.898  0.00  0.00    +0.120 C 
ATOM     10  C   LIG    1       24.463 -29.847  11.847  0.00  0.00    +0.013 C 
ATOM     11  C   LIG    1       25.177 -29.325  10.565  0.00  0.00    +0.020 C 
ATOM     12  C   LIG    1       25.231 -29.249  13.063  0.00  0.00    -0.055 C 
ATOM     13  C   LIG    1       26.480 -29.709  13.327  0.00  0.00    +0.051 C 
ATOM     14  C   LIG    1       26.405 -31.187  13.621  0.00  0.00    +0.179 C 
ATOM     15  O   LIG    1       27.093 -31.714  14.489  0.00  0.00    -0.288 OA
ATOM     16  C   LIG    1       25.526 -31.982  12.723  0.00  0.00    +0.047 C 
ATOM     17  C   LIG    1       24.468 -28.786  14.283  0.00  0.00    +0.051 C 
ATOM     18  C   LIG    1       24.679 -31.358  11.884  0.00  0.00    -0.012 C 
ATOM     19  C   LIG    1       23.099 -28.191  14.004  0.00  0.00    +0.088 C 
ATOM     20 CL   LIG    1       23.273 -26.564  13.250  0.00  0.00    -0.121 Cl
ATOM     21  C   LIG    1       21.423 -31.507  11.515  0.00  0.00    +0.042 C 
ATOM     22  C   LIG    1       20.929 -30.178  15.078  0.00  0.00    +0.011 C 
ENDROOT
BRANCH   3  23
ATOM     23  C   LIG    1       18.449 -32.022  12.813  0.00  0.00    +0.190 C 
ATOM     24  O   LIG    1       18.184 -32.972  13.565  0.00  0.00    -0.292 OA
BRANCH  23  25
ATOM     25  C   LIG    1       17.782 -31.934  11.444  0.00  0.00    +0.233 C 
BRANCH  25  26
ATOM     26  O   LIG    1       16.900 -30.825  11.356  0.00  0.00    -0.387 OA
ATOM     27  H   LIG    1       16.299 -30.884  12.128  0.00  0.00    +0.210 HD
ENDBRANCH  25  26
ENDBRANCH  23  25
ENDBRANCH   3  23
BRANCH   3  28
ATOM     28  O   LIG    1       19.315 -29.820  12.414  0.00  0.00    -0.380 OA
ATOM     29  H   LIG    1       20.165 -29.340  12.344  0.00  0.00    +0.211 HD
ENDBRANCH   3  28
BRANCH   9  30
ATOM     30  O   LIG    1       22.506 -30.509   9.624  0.00  0.00    -0.391 OA
ATOM     31  H   LIG    1       23.125 -31.251   9.748  0.00  0.00    +0.210 HD
ENDBRANCH   9  30
TORSDOF 5
ENDMDL
MODEL 9
REMARK VINA RESULT:      -4.6      2.329      4.664
REMARK  Name = *****
REMARK                            x       y       z     vdW  Elec       q    Type
REMARK                         _______ _______ _______ _____ _____    ______ ____
ROOT
ATOM      1  C   LIG    1       27.447 -31.364  15.339  0.00  0.00    +0.011 C 
ATOM      2  C   LIG    1       26.797 -30.055  14.893  0.00  0.00    +0.026 C 
ATOM      3  C   LIG    1       26.620 -29.929  13.366  0.00  0.00    +0.134 C 
ATOM      4  C   LIG    1       25.340 -29.046  13.200  0.00  0.00    +0.009 C 
ATOM      5  C   LIG    1       25.639 -27.545  13.459  0.00  0.00    +0.015 C 
ATOM      6  C   LIG    1       24.412 -29.559  14.347  0.00  0.00    +0.003 C 
ATOM      7  C   LIG    1       23.509 -30.778  13.999  0.00  0.00    +0.017 C 
ATOM      8  C   LIG    1       22.701 -30.546  12.699  0.00  0.00    +0.036 C 
ATOM      9  C   LIG    1       23.717 -30.287  11.559  0.00  0.00    +0.120 C 
ATOM     10  C   LIG    1       21.413 -29.614  12.827  0.00  0.00    +0.013 C 
ATOM     11  C   LIG    1       20.363 -30.100  11.785  0.00  0.00    +0.020 C 
ATOM     12  C   LIG    1       20.727 -29.687  14.223  0.00  0.00    -0.055 C 
ATOM     13  C   LIG    1       19.739 -28.801  14.504  0.00  0.00    +0.051 C 
ATOM     14  C   LIG    1       20.304 -27.403  14.437  0.00  0.00    +0.179 C 
ATOM     15  O   LIG    1       19.969 -26.527  15.228  0.00  0.00    -0.288 OA
ATOM     16  C   LIG    1       21.209 -27.125  13.292  0.00  0.00    +0.047 C 
ATOM     17  C   LIG    1       21.517 -30.141  15.430  0.00  0.00    +0.051 C 
ATOM     18  C   LIG    1       21.669 -28.137  12.535  0.00  0.00    -0.012 C 
ATOM     19  C   LIG    1       22.574 -31.196  15.152  0.00  0.00    +0.088 C 
ATOM     20 CL   LIG    1       21.792 -32.784  14.820  0.00  0.00    -0.121 Cl
ATOM     21  C   LIG    1       24.704 -29.143  11.798  0.00  0.00    +0.042 C 
ATOM     22  C   LIG    1       25.392 -29.874  15.499  0.00  0.00    +0.011 C 
ENDROOT
BRANCH   3  23
ATOM     23  C   LIG    1       27.874 -29.407  12.617  0.00  0.00    +0.190 C 
ATOM     24  O   LIG    1       28.880 -29.066  13.256  0.00  0.00    -0.292 OA
BRANCH  23  25
ATOM     25  C   LIG    1       27.839 -29.213  11.104  0.00  0.00    +0.233 C 
BRANCH  25  26
ATOM     26  O   LIG    1       27.882 -30.452  10.411  0.00  0.00    -0.387 OA
ATOM     27  H   LIG    1       27.378 -30.326   9.581  0.00  0.00    +0.210 HD
ENDBRANCH  25  26
ENDBRANCH  23  25
ENDBRANCH   3  23
BRANCH   3  28
ATOM     28  O   LIG    1       26.333 -31.234  12.835  0.00  0.00    -0.380 OA
ATOM     29  H   LIG    1       26.004 -31.792  13.569  0.00  0.00    +0.211 HD
ENDBRANCH   3  28
BRANCH   9  30
ATOM     30  O   LIG    1       23.058 -30.061  10.316  0.00  0.00    -0.391 OA
ATOM     31  H   LIG    1       23.319 -29.175  10.008  0.00  0.00    +0.210 HD
ENDBRANCH   9  30
TORSDOF 5
ENDMDL
