MODEL 1
REMARK VINA RESULT:      -6.6      0.000      0.000
REMARK  Name = *****
REMARK                            x       y       z     vdW  Elec       q    Type
REMARK                         _______ _______ _______ _____ _____    ______ ____
ROOT
ATOM      1  C   LIG    1       25.946 -22.243   8.338  0.00  0.00    -0.000 C 
ENDROOT
BRANCH   1   2
ATOM      2  C   LIG    1       25.610 -23.228   7.205  0.00  0.00    -0.000 C 
BRANCH   2   3
ATOM      3  C   LIG    1       24.220 -23.015   6.596  0.00  0.00    -0.000 C 
BRANCH   3   4
ATOM      4  C   LIG    1       23.333 -22.004   7.348  0.00  0.00    -0.000 C 
BRANCH   4   5
ATOM      5  C   LIG    1       23.251 -20.594   6.725  0.00  0.00    -0.000 C 
BRANCH   5   6
ATOM      6  C   LIG    1       22.542 -20.611   5.354  0.00  0.00    -0.000 C 
BRANCH   6   7
ATOM      7  C   LIG    1       22.504 -19.257   4.607  0.00  0.00    -0.000 C 
BRANCH   7   9
ATOM      8  C   LIG    1       24.640 -20.140   3.466  0.00  0.00    +0.004 C 
ATOM      9  C   LIG    1       23.798 -18.925   3.853  0.00  0.00    -0.003 C 
ENDBRANCH   7   9
ENDBRANCH   6   7
ENDBRANCH   5   6
ENDBRANCH   4   5
ENDBRANCH   3   4
ENDBRANCH   2   3
ENDBRANCH   1   2
BRANCH   1  10
ATOM     10  C   LIG    1       27.164 -21.376   8.031  0.00  0.00    -0.000 C 
BRANCH  10  11
ATOM     11  C   LIG    1       26.869 -20.338   6.939  0.00  0.00    -0.000 C 
BRANCH  11  12
ATOM     12  C   LIG    1       28.115 -20.030   6.117  0.00  0.00    -0.000 C 
BRANCH  12  13
ATOM     13  C   LIG    1       29.479 -20.254   6.761  0.00  0.00    +0.000 C 
BRANCH  13  14
ATOM     14  C   LIG    1       30.295 -18.971   7.017  0.00  0.00    +0.002 C 
BRANCH  14  15
ATOM     15  C   LIG    1       30.182 -18.327   8.413  0.00  0.00    +0.028 C 
BRANCH  15  16
ATOM     16  C   LIG    1       31.358 -18.561   9.379  0.00  0.00    +0.156 C 
BRANCH  16  17
ATOM     17  O   LIG    1       32.102 -19.747   9.130  0.00  0.00    -0.395 OA
ATOM     18  H   LIG    1       32.131 -19.884   8.192  0.00  0.00    +0.209 HD
ENDBRANCH  16  17
ENDBRANCH  15  16
ENDBRANCH  14  15
ENDBRANCH  13  14
ENDBRANCH  12  13
ENDBRANCH  11  12
ENDBRANCH  10  11
ENDBRANCH   1  10
TORSDOF 15
ENDMDL
MODEL 2
REMARK VINA RESULT:      -6.5      1.116      1.580
REMARK  Name = *****
REMARK                            x       y       z     vdW  Elec       q    Type
REMARK                         _______ _______ _______ _____ _____    ______ ____
ROOT
ATOM      1  C   LIG    1       26.688 -20.678   8.176  0.00  0.00    -0.000 C 
ENDROOT
BRANCH   1   2
ATOM      2  C   LIG    1       25.902 -21.966   8.470  0.00  0.00    -0.000 C 
BRANCH   2   3
ATOM      3  C   LIG    1       25.495 -22.741   7.211  0.00  0.00    -0.000 C 
BRANCH   3   4
ATOM      4  C   LIG    1       24.006 -22.627   6.835  0.00  0.00    -0.000 C 
BRANCH   4   5
ATOM      5  C   LIG    1       23.303 -21.325   7.273  0.00  0.00    -0.000 C 
BRANCH   5   6
ATOM      6  C   LIG    1       22.947 -20.430   6.067  0.00  0.00    -0.000 C 
BRANCH   6   7
ATOM      7  C   LIG    1       23.662 -20.782   4.742  0.00  0.00    -0.000 C 
BRANCH   7   9
ATOM      8  C   LIG    1       25.288 -19.095   3.666  0.00  0.00    +0.004 C 
ATOM      9  C   LIG    1       23.847 -19.588   3.798  0.00  0.00    -0.003 C 
ENDBRANCH   7   9
ENDBRANCH   6   7
ENDBRANCH   5   6
ENDBRANCH   4   5
ENDBRANCH   3   4
ENDBRANCH   2   3
ENDBRANCH   1   2
BRANCH   1  10
ATOM     10  C   LIG    1       26.877 -20.422   6.684  0.00  0.00    -0.000 C 
BRANCH  10  11
ATOM     11  C   LIG    1       28.354 -20.497   6.272  0.00  0.00    -0.000 C 
BRANCH  11  12
ATOM     12  C   LIG    1       28.888 -19.126   5.874  0.00  0.00    -0.000 C 
BRANCH  12  13
ATOM     13  C   LIG    1       30.012 -18.519   6.706  0.00  0.00    +0.000 C 
BRANCH  13  14
ATOM     14  C   LIG    1       29.931 -18.811   8.218  0.00  0.00    +0.002 C 
BRANCH  14  15
ATOM     15  C   LIG    1       31.107 -19.578   8.854  0.00  0.00    +0.028 C 
BRANCH  15  16
ATOM     16  C   LIG    1       31.038 -21.116   8.799  0.00  0.00    +0.156 C 
BRANCH  16  17
ATOM     17  O   LIG    1       32.083 -21.781   9.498  0.00  0.00    -0.395 OA
ATOM     18  H   LIG    1       32.489 -22.398   8.903  0.00  0.00    +0.209 HD
ENDBRANCH  16  17
ENDBRANCH  15  16
ENDBRANCH  14  15
ENDBRANCH  13  14
ENDBRANCH  12  13
ENDBRANCH  11  12
ENDBRANCH  10  11
ENDBRANCH   1  10
TORSDOF 15
ENDMDL
MODEL 3
REMARK VINA RESULT:      -6.5      1.401      2.625
REMARK  Name = *****
REMARK                            x       y       z     vdW  Elec       q    Type
REMARK                         _______ _______ _______ _____ _____    ______ ____
ROOT
ATOM      1  C   LIG    1       26.593 -20.616   6.238  0.00  0.00    -0.000 C 
ENDROOT
BRANCH   1   2
ATOM      2  C   LIG    1       26.315 -20.546   7.749  0.00  0.00    -0.000 C 
BRANCH   2   3
ATOM      3  C   LIG    1       25.701 -21.829   8.322  0.00  0.00    -0.000 C 
BRANCH   3   4
ATOM      4  C   LIG    1       25.616 -23.004   7.330  0.00  0.00    -0.000 C 
BRANCH   4   5
ATOM      5  C   LIG    1       24.190 -23.447   6.937  0.00  0.00    -0.000 C 
BRANCH   5   6
ATOM      6  C   LIG    1       23.175 -22.290   7.058  0.00  0.00    -0.000 C 
BRANCH   6   7
ATOM      7  C   LIG    1       22.913 -21.495   5.758  0.00  0.00    -0.000 C 
BRANCH   7   9
ATOM      8  C   LIG    1       22.447 -19.183   4.719  0.00  0.00    +0.004 C 
ATOM      9  C   LIG    1       22.864 -19.975   5.957  0.00  0.00    -0.003 C 
ENDBRANCH   7   9
ENDBRANCH   6   7
ENDBRANCH   5   6
ENDBRANCH   4   5
ENDBRANCH   3   4
ENDBRANCH   2   3
ENDBRANCH   1   2
BRANCH   1  10
ATOM     10  C   LIG    1       27.898 -19.932   5.840  0.00  0.00    -0.000 C 
BRANCH  10  11
ATOM     11  C   LIG    1       28.934 -19.971   6.972  0.00  0.00    -0.000 C 
BRANCH  11  12
ATOM     12  C   LIG    1       30.081 -19.003   6.706  0.00  0.00    -0.000 C 
BRANCH  12  13
ATOM     13  C   LIG    1       30.976 -18.605   7.875  0.00  0.00    +0.000 C 
BRANCH  13  14
ATOM     14  C   LIG    1       30.224 -18.149   9.142  0.00  0.00    +0.002 C 
BRANCH  14  15
ATOM     15  C   LIG    1       30.653 -16.812   9.777  0.00  0.00    +0.028 C 
BRANCH  15  16
ATOM     16  C   LIG    1       32.168 -16.569   9.918  0.00  0.00    +0.156 C 
BRANCH  16  17
ATOM     17  O   LIG    1       32.755 -15.850   8.841  0.00  0.00    -0.395 OA
ATOM     18  H   LIG    1       33.010 -16.474   8.174  0.00  0.00    +0.209 HD
ENDBRANCH  16  17
ENDBRANCH  15  16
ENDBRANCH  14  15
ENDBRANCH  13  14
ENDBRANCH  12  13
ENDBRANCH  11  12
ENDBRANCH  10  11
ENDBRANCH   1  10
TORSDOF 15
ENDMDL
MODEL 4
REMARK VINA RESULT:      -6.4      1.128      3.421
REMARK  Name = *****
REMARK                            x       y       z     vdW  Elec       q    Type
REMARK                         _______ _______ _______ _____ _____    ______ ____
ROOT
ATOM      1  C   LIG    1       24.862 -20.254   3.921  0.00  0.00    -0.000 C 
ENDROOT
BRANCH   1   2
ATOM      2  C   LIG    1       23.808 -19.149   3.742  0.00  0.00    -0.000 C 
BRANCH   2   3
ATOM      3  C   LIG    1       22.565 -19.334   4.620  0.00  0.00    -0.000 C 
BRANCH   3   4
ATOM      4  C   LIG    1       22.561 -20.618   5.471  0.00  0.00    -0.000 C 
BRANCH   4   5
ATOM      5  C   LIG    1       23.299 -20.527   6.824  0.00  0.00    -0.000 C 
BRANCH   5   6
ATOM      6  C   LIG    1       23.348 -21.891   7.545  0.00  0.00    -0.000 C 
BRANCH   6   7
ATOM      7  C   LIG    1       22.984 -23.117   6.676  0.00  0.00    -0.000 C 
BRANCH   7   9
ATOM      8  C   LIG    1       25.468 -23.675   7.077  0.00  0.00    +0.004 C 
ATOM      9  C   LIG    1       24.116 -24.143   6.541  0.00  0.00    -0.003 C 
ENDBRANCH   7   9
ENDBRANCH   6   7
ENDBRANCH   5   6
ENDBRANCH   4   5
ENDBRANCH   3   4
ENDBRANCH   2   3
ENDBRANCH   1   2
BRANCH   1  10
ATOM     10  C   LIG    1       26.196 -19.727   4.444  0.00  0.00    -0.000 C 
BRANCH  10  11
ATOM     11  C   LIG    1       26.615 -20.420   5.747  0.00  0.00    -0.000 C 
BRANCH  11  12
ATOM     12  C   LIG    1       28.033 -20.032   6.150  0.00  0.00    -0.000 C 
BRANCH  12  13
ATOM     13  C   LIG    1       28.369 -19.964   7.635  0.00  0.00    +0.000 C 
BRANCH  13  14
ATOM     14  C   LIG    1       29.850 -19.670   7.953  0.00  0.00    +0.002 C 
BRANCH  14  15
ATOM     15  C   LIG    1       30.155 -18.435   8.823  0.00  0.00    +0.028 C 
BRANCH  15  16
ATOM     16  C   LIG    1       31.632 -18.193   9.186  0.00  0.00    +0.156 C 
BRANCH  16  17
ATOM     17  O   LIG    1       32.305 -17.267   8.343  0.00  0.00    -0.395 OA
ATOM     18  H   LIG    1       33.128 -17.656   8.076  0.00  0.00    +0.209 HD
ENDBRANCH  16  17
ENDBRANCH  15  16
ENDBRANCH  14  15
ENDBRANCH  13  14
ENDBRANCH  12  13
ENDBRANCH  11  12
ENDBRANCH  10  11
ENDBRANCH   1  10
TORSDOF 15
ENDMDL
MODEL 5
REMARK VINA RESULT:      -6.3      3.238      6.420
REMARK  Name = *****
REMARK                            x       y       z     vdW  Elec       q    Type
REMARK                         _______ _______ _______ _____ _____    ______ ____
ROOT
ATOM      1  C   LIG    1       23.003 -20.712   6.839  0.00  0.00    -0.000 C 
ENDROOT
BRANCH   1   2
ATOM      2  C   LIG    1       22.594 -20.755   5.357  0.00  0.00    -0.000 C 
BRANCH   2   3
ATOM      3  C   LIG    1       22.793 -19.424   4.623  0.00  0.00    -0.000 C 
BRANCH   3   4
ATOM      4  C   LIG    1       24.123 -19.302   3.855  0.00  0.00    -0.000 C 
BRANCH   4   5
ATOM      5  C   LIG    1       25.165 -20.403   4.143  0.00  0.00    -0.000 C 
BRANCH   5   6
ATOM      6  C   LIG    1       26.257 -19.919   5.121  0.00  0.00    -0.000 C 
BRANCH   6   7
ATOM      7  C   LIG    1       26.736 -20.964   6.156  0.00  0.00    -0.000 C 
BRANCH   7   9
ATOM      8  C   LIG    1       26.270 -20.518   8.651  0.00  0.00    +0.004 C 
ATOM      9  C   LIG    1       27.230 -20.354   7.474  0.00  0.00    -0.003 C 
ENDBRANCH   7   9
ENDBRANCH   6   7
ENDBRANCH   5   6
ENDBRANCH   4   5
ENDBRANCH   3   4
ENDBRANCH   2   3
ENDBRANCH   1   2
BRANCH   1  10
ATOM     10  C   LIG    1       23.486 -22.061   7.364  0.00  0.00    -0.000 C 
BRANCH  10  11
ATOM     11  C   LIG    1       22.753 -23.232   6.695  0.00  0.00    -0.000 C 
BRANCH  11  12
ATOM     12  C   LIG    1       23.647 -24.463   6.600  0.00  0.00    -0.000 C 
BRANCH  12  13
ATOM     13  C   LIG    1       25.156 -24.270   6.707  0.00  0.00    +0.000 C 
BRANCH  13  14
ATOM     14  C   LIG    1       25.994 -25.535   6.430  0.00  0.00    +0.002 C 
BRANCH  14  15
ATOM     15  C   LIG    1       25.312 -26.679   5.653  0.00  0.00    +0.028 C 
BRANCH  15  16
ATOM     16  C   LIG    1       25.142 -28.015   6.400  0.00  0.00    +0.156 C 
BRANCH  16  17
ATOM     17  O   LIG    1       25.930 -28.140   7.576  0.00  0.00    -0.395 OA
ATOM     18  H   LIG    1       26.475 -27.368   7.649  0.00  0.00    +0.209 HD
ENDBRANCH  16  17
ENDBRANCH  15  16
ENDBRANCH  14  15
ENDBRANCH  13  14
ENDBRANCH  12  13
ENDBRANCH  11  12
ENDBRANCH  10  11
ENDBRANCH   1  10
TORSDOF 15
ENDMDL
MODEL 6
REMARK VINA RESULT:      -6.3      4.237      6.880
REMARK  Name = *****
REMARK                            x       y       z     vdW  Elec       q    Type
REMARK                         _______ _______ _______ _____ _____    ______ ____
ROOT
ATOM      1  C   LIG    1       25.835 -22.721   7.832  0.00  0.00    -0.000 C 
ENDROOT
BRANCH   1   2
ATOM      2  C   LIG    1       27.117 -21.894   7.633  0.00  0.00    -0.000 C 
BRANCH   2   3
ATOM      3  C   LIG    1       26.857 -20.457   7.166  0.00  0.00    -0.000 C 
BRANCH   3   4
ATOM      4  C   LIG    1       27.325 -20.150   5.731  0.00  0.00    -0.000 C 
BRANCH   4   5
ATOM      5  C   LIG    1       26.214 -19.760   4.733  0.00  0.00    -0.000 C 
BRANCH   5   6
ATOM      6  C   LIG    1       25.084 -20.811   4.693  0.00  0.00    -0.000 C 
BRANCH   6   7
ATOM      7  C   LIG    1       23.662 -20.251   4.455  0.00  0.00    -0.000 C 
BRANCH   7   9
ATOM      8  C   LIG    1       23.200 -20.696   6.951  0.00  0.00    +0.004 C 
ATOM      9  C   LIG    1       22.644 -20.657   5.529  0.00  0.00    -0.003 C 
ENDBRANCH   7   9
ENDBRANCH   6   7
ENDBRANCH   5   6
ENDBRANCH   4   5
ENDBRANCH   3   4
ENDBRANCH   2   3
ENDBRANCH   1   2
BRANCH   1  10
ATOM     10  C   LIG    1       25.679 -23.835   6.800  0.00  0.00    -0.000 C 
BRANCH  10  11
ATOM     11  C   LIG    1       24.217 -24.280   6.654  0.00  0.00    -0.000 C 
BRANCH  11  12
ATOM     12  C   LIG    1       24.103 -25.535   5.797  0.00  0.00    -0.000 C 
BRANCH  12  13
ATOM     13  C   LIG    1       25.359 -26.053   5.104  0.00  0.00    +0.000 C 
BRANCH  13  14
ATOM     14  C   LIG    1       25.704 -27.527   5.400  0.00  0.00    +0.002 C 
BRANCH  14  15
ATOM     15  C   LIG    1       25.031 -28.178   6.624  0.00  0.00    +0.028 C 
BRANCH  15  16
ATOM     16  C   LIG    1       24.218 -29.460   6.364  0.00  0.00    +0.156 C 
BRANCH  16  17
ATOM     17  O   LIG    1       23.227 -29.338   5.352  0.00  0.00    -0.395 OA
ATOM     18  H   LIG    1       22.375 -29.370   5.769  0.00  0.00    +0.209 HD
ENDBRANCH  16  17
ENDBRANCH  15  16
ENDBRANCH  14  15
ENDBRANCH  13  14
ENDBRANCH  12  13
ENDBRANCH  11  12
ENDBRANCH  10  11
ENDBRANCH   1  10
TORSDOF 15
ENDMDL
MODEL 7
REMARK VINA RESULT:      -6.3      1.371      1.950
REMARK  Name = *****
REMARK                            x       y       z     vdW  Elec       q    Type
REMARK                         _______ _______ _______ _____ _____    ______ ____
ROOT
ATOM      1  C   LIG    1       25.606 -20.803   8.347  0.00  0.00    -0.000 C 
ENDROOT
BRANCH   1   2
ATOM      2  C   LIG    1       24.829 -21.250   7.098  0.00  0.00    -0.000 C 
BRANCH   2   3
ATOM      3  C   LIG    1       23.401 -20.696   7.028  0.00  0.00    -0.000 C 
BRANCH   3   4
ATOM      4  C   LIG    1       22.773 -20.705   5.621  0.00  0.00    -0.000 C 
BRANCH   4   5
ATOM      5  C   LIG    1       22.322 -19.332   5.080  0.00  0.00    -0.000 C 
BRANCH   5   6
ATOM      6  C   LIG    1       23.261 -18.814   3.970  0.00  0.00    -0.000 C 
BRANCH   6   7
ATOM      7  C   LIG    1       24.418 -19.764   3.580  0.00  0.00    -0.000 C 
BRANCH   7   9
ATOM      8  C   LIG    1       25.800 -17.605   3.307  0.00  0.00    +0.004 C 
ATOM      9  C   LIG    1       25.802 -19.103   3.609  0.00  0.00    -0.003 C 
ENDBRANCH   7   9
ENDBRANCH   6   7
ENDBRANCH   5   6
ENDBRANCH   4   5
ENDBRANCH   3   4
ENDBRANCH   2   3
ENDBRANCH   1   2
BRANCH   1  10
ATOM     10  C   LIG    1       27.052 -20.421   8.044  0.00  0.00    -0.000 C 
BRANCH  10  11
ATOM     11  C   LIG    1       27.360 -20.488   6.542  0.00  0.00    -0.000 C 
BRANCH  11  12
ATOM     12  C   LIG    1       28.764 -19.978   6.241  0.00  0.00    -0.000 C 
BRANCH  12  13
ATOM     13  C   LIG    1       29.834 -20.129   7.317  0.00  0.00    +0.000 C 
BRANCH  13  14
ATOM     14  C   LIG    1       31.062 -19.213   7.146  0.00  0.00    +0.002 C 
BRANCH  14  15
ATOM     15  C   LIG    1       31.800 -18.772   8.426  0.00  0.00    +0.028 C 
BRANCH  15  16
ATOM     16  C   LIG    1       31.502 -17.351   8.940  0.00  0.00    +0.156 C 
BRANCH  16  17
ATOM     17  O   LIG    1       32.515 -16.394   8.657  0.00  0.00    -0.395 OA
ATOM     18  H   LIG    1       33.290 -16.632   9.150  0.00  0.00    +0.209 HD
ENDBRANCH  16  17
ENDBRANCH  15  16
ENDBRANCH  14  15
ENDBRANCH  13  14
ENDBRANCH  12  13
ENDBRANCH  11  12
ENDBRANCH  10  11
ENDBRANCH   1  10
TORSDOF 15
ENDMDL
MODEL 8
REMARK VINA RESULT:      -6.3      2.367      4.382
REMARK  Name = *****
REMARK                            x       y       z     vdW  Elec       q    Type
REMARK                         _______ _______ _______ _____ _____    ______ ____
ROOT
ATOM      1  C   LIG    1       23.797 -21.095   7.407  0.00  0.00    -0.000 C 
ENDROOT
BRANCH   1   2
ATOM      2  C   LIG    1       23.206 -22.016   6.326  0.00  0.00    -0.000 C 
BRANCH   2   3
ATOM      3  C   LIG    1       22.715 -23.364   6.866  0.00  0.00    -0.000 C 
BRANCH   3   4
ATOM      4  C   LIG    1       23.625 -24.562   6.535  0.00  0.00    -0.000 C 
BRANCH   4   5
ATOM      5  C   LIG    1       25.139 -24.263   6.499  0.00  0.00    -0.000 C 
BRANCH   5   6
ATOM      6  C   LIG    1       25.977 -25.552   6.370  0.00  0.00    -0.000 C 
BRANCH   6   7
ATOM      7  C   LIG    1       25.775 -26.350   5.061  0.00  0.00    -0.000 C 
BRANCH   7   9
ATOM      8  C   LIG    1       24.339 -28.205   6.130  0.00  0.00    +0.004 C 
ATOM      9  C   LIG    1       25.556 -27.853   5.276  0.00  0.00    -0.003 C 
ENDBRANCH   7   9
ENDBRANCH   6   7
ENDBRANCH   5   6
ENDBRANCH   4   5
ENDBRANCH   3   4
ENDBRANCH   2   3
ENDBRANCH   1   2
BRANCH   1  10
ATOM     10  C   LIG    1       25.175 -20.551   7.038  0.00  0.00    -0.000 C 
BRANCH  10  11
ATOM     11  C   LIG    1       26.133 -20.555   8.237  0.00  0.00    -0.000 C 
BRANCH  11  12
ATOM     12  C   LIG    1       27.189 -21.646   8.098  0.00  0.00    -0.000 C 
BRANCH  12  13
ATOM     13  C   LIG    1       28.346 -21.413   7.133  0.00  0.00    +0.000 C 
BRANCH  13  14
ATOM     14  C   LIG    1       28.909 -19.977   7.129  0.00  0.00    +0.002 C 
BRANCH  14  15
ATOM     15  C   LIG    1       30.421 -19.809   7.378  0.00  0.00    +0.028 C 
BRANCH  15  16
ATOM     16  C   LIG    1       31.012 -20.576   8.575  0.00  0.00    +0.156 C 
BRANCH  16  17
ATOM     17  O   LIG    1       32.037 -19.883   9.275  0.00  0.00    -0.395 OA
ATOM     18  H   LIG    1       32.858 -20.041   8.828  0.00  0.00    +0.209 HD
ENDBRANCH  16  17
ENDBRANCH  15  16
ENDBRANCH  14  15
ENDBRANCH  13  14
ENDBRANCH  12  13
ENDBRANCH  11  12
ENDBRANCH  10  11
ENDBRANCH   1  10
TORSDOF 15
ENDMDL
MODEL 9
REMARK VINA RESULT:      -6.2      1.723      4.243
REMARK  Name = *****
REMARK                            x       y       z     vdW  Elec       q    Type
REMARK                         _______ _______ _______ _____ _____    ______ ____
ROOT
ATOM      1  C   LIG    1       22.901 -20.625   5.434  0.00  0.00    -0.000 C 
ENDROOT
BRANCH   1   2
ATOM      2  C   LIG    1       23.267 -20.616   6.927  0.00  0.00    -0.000 C 
BRANCH   2   3
ATOM      3  C   LIG    1       23.412 -22.016   7.535  0.00  0.00    -0.000 C 
BRANCH   3   4
ATOM      4  C   LIG    1       22.633 -23.123   6.798  0.00  0.00    -0.000 C 
BRANCH   4   5
ATOM      5  C   LIG    1       23.416 -24.425   6.527  0.00  0.00    -0.000 C 
BRANCH   5   6
ATOM      6  C   LIG    1       24.811 -24.143   5.929  0.00  0.00    -0.000 C 
BRANCH   6   7
ATOM      7  C   LIG    1       26.000 -24.786   6.680  0.00  0.00    -0.000 C 
BRANCH   7   9
ATOM      8  C   LIG    1       25.824 -26.738   5.004  0.00  0.00    +0.004 C 
ATOM      9  C   LIG    1       26.155 -26.292   6.428  0.00  0.00    -0.003 C 
ENDBRANCH   7   9
ENDBRANCH   6   7
ENDBRANCH   5   6
ENDBRANCH   4   5
ENDBRANCH   3   4
ENDBRANCH   2   3
ENDBRANCH   1   2
BRANCH   1  10
ATOM     10  C   LIG    1       23.876 -19.822   4.577  0.00  0.00    -0.000 C 
BRANCH  10  11
ATOM     11  C   LIG    1       25.189 -20.579   4.340  0.00  0.00    -0.000 C 
BRANCH  11  12
ATOM     12  C   LIG    1       26.280 -20.107   5.294  0.00  0.00    -0.000 C 
BRANCH  12  13
ATOM     13  C   LIG    1       26.738 -21.058   6.395  0.00  0.00    +0.000 C 
BRANCH  13  14
ATOM     14  C   LIG    1       27.292 -20.369   7.659  0.00  0.00    +0.002 C 
BRANCH  14  15
ATOM     15  C   LIG    1       28.730 -19.819   7.592  0.00  0.00    +0.028 C 
BRANCH  15  16
ATOM     16  C   LIG    1       29.860 -20.790   7.982  0.00  0.00    +0.156 C 
BRANCH  16  17
ATOM     17  O   LIG    1       30.631 -20.381   9.104  0.00  0.00    -0.395 OA
ATOM     18  H   LIG    1       30.400 -20.935   9.838  0.00  0.00    +0.209 HD
ENDBRANCH  16  17
ENDBRANCH  15  16
ENDBRANCH  14  15
ENDBRANCH  13  14
ENDBRANCH  12  13
ENDBRANCH  11  12
ENDBRANCH  10  11
ENDBRANCH   1  10
TORSDOF 15
ENDMDL
