MODEL 1
REMARK VINA RESULT:      -5.1      0.000      0.000
REMARK  Name = *****
REMARK                            x       y       z     vdW  Elec       q    Type
REMARK                         _______ _______ _______ _____ _____    ______ ____
ROOT
ATOM      1  C   LIG    1       19.295 -31.394  13.294  0.00  0.00    +0.176 C 
ATOM      2  C   LIG    1       20.846 -31.216  13.550  0.00  0.00    +0.018 C 
ATOM      3  C   LIG    1       21.237 -31.889  14.903  0.00  0.00    +0.016 C 
ATOM      4  C   LIG    1       21.038 -29.677  13.722  0.00  0.00    +0.003 C 
ATOM      5  C   LIG    1       21.559 -28.868  12.509  0.00  0.00    -0.003 C 
ATOM      6  C   LIG    1       22.660 -29.543  11.674  0.00  0.00    +0.002 C 
ATOM      7  C   LIG    1       22.188 -30.959  11.302  0.00  0.00    +0.005 C 
ATOM      8  C   LIG    1       24.156 -29.379  12.159  0.00  0.00    -0.007 C 
ATOM      9  C   LIG    1       25.064 -29.617  10.912  0.00  0.00    +0.016 C 
ATOM     10  C   LIG    1       24.419 -27.980  12.753  0.00  0.00    -0.057 C 
ATOM     11  C   LIG    1       25.696 -27.597  12.979  0.00  0.00    +0.046 C 
ATOM     12  C   LIG    1       26.323 -28.546  13.972  0.00  0.00    +0.156 C 
ATOM     13  O   LIG    1       27.185 -28.126  14.740  0.00  0.00    -0.293 OA
ATOM     14  C   LIG    1       25.985 -30.030  13.868  0.00  0.00    +0.080 C 
ATOM     15  C   LIG    1       23.324 -27.411  13.650  0.00  0.00    +0.013 C 
ATOM     16  C   LIG    1       23.595 -25.981  14.143  0.00  0.00    +0.012 C 
ATOM     17  C   LIG    1       24.598 -30.347  13.279  0.00  0.00    +0.019 C 
ATOM     18  C   LIG    1       21.983 -27.442  12.909  0.00  0.00    +0.012 C 
ATOM     19  C   LIG    1       19.657 -29.133  14.156  0.00  0.00    +0.009 C 
ATOM     20  C   LIG    1       21.754 -31.844  12.465  0.00  0.00    +0.011 C 
ATOM     21  C   LIG    1       18.689 -30.307  14.200  0.00  0.00    +0.057 C 
ENDROOT
BRANCH   1  22
ATOM     22  C   LIG    1       18.833 -32.847  13.640  0.00  0.00    +0.174 C 
ATOM     23  O   LIG    1       19.292 -33.825  13.041  0.00  0.00    -0.293 OA
ATOM     24  C   LIG    1       17.814 -33.050  14.741  0.00  0.00    +0.090 C 
ENDBRANCH   1  22
BRANCH   1  25
ATOM     25  O   LIG    1       19.016 -31.047  11.918  0.00  0.00    -0.450 OA
BRANCH  25  27
ATOM     26  C   LIG    1       18.009 -32.271  10.173  0.00  0.00    +0.136 C 
ATOM     27  C   LIG    1       17.813 -31.443  11.407  0.00  0.00    +0.305 C 
ATOM     28  O   LIG    1       16.721 -31.091  11.814  0.00  0.00    -0.251 OA
ENDBRANCH  25  27
ENDBRANCH   1  25
TORSDOF 3
ENDMDL
MODEL 2
REMARK VINA RESULT:      -4.9      4.146      6.158
REMARK  Name = *****
REMARK                            x       y       z     vdW  Elec       q    Type
REMARK                         _______ _______ _______ _____ _____    ______ ____
ROOT
ATOM      1  C   LIG    1       25.096 -31.264   8.645  0.00  0.00    +0.176 C 
ATOM      2  C   LIG    1       24.475 -30.626   9.953  0.00  0.00    +0.018 C 
ATOM      3  C   LIG    1       23.023 -30.131   9.659  0.00  0.00    +0.016 C 
ATOM      4  C   LIG    1       25.351 -29.365  10.225  0.00  0.00    +0.003 C 
ATOM      5  C   LIG    1       26.465 -29.468  11.295  0.00  0.00    -0.003 C 
ATOM      6  C   LIG    1       26.108 -30.262  12.563  0.00  0.00    +0.002 C 
ATOM      7  C   LIG    1       25.545 -31.629  12.137  0.00  0.00    +0.005 C 
ATOM      8  C   LIG    1       25.355 -29.495  13.723  0.00  0.00    -0.007 C 
ATOM      9  C   LIG    1       25.625 -30.289  15.039  0.00  0.00    +0.016 C 
ATOM     10  C   LIG    1       25.846 -28.040  13.865  0.00  0.00    -0.057 C 
ATOM     11  C   LIG    1       25.488 -27.335  14.961  0.00  0.00    +0.046 C 
ATOM     12  C   LIG    1       23.982 -27.225  15.001  0.00  0.00    +0.156 C 
ATOM     13  O   LIG    1       23.468 -26.227  15.500  0.00  0.00    -0.293 OA
ATOM     14  C   LIG    1       23.155 -28.434  14.576  0.00  0.00    +0.080 C 
ATOM     15  C   LIG    1       26.090 -27.280  12.564  0.00  0.00    +0.013 C 
ATOM     16  C   LIG    1       26.663 -25.867  12.761  0.00  0.00    +0.012 C 
ATOM     17  C   LIG    1       23.827 -29.355  13.541  0.00  0.00    +0.019 C 
ATOM     18  C   LIG    1       27.035 -28.087  11.667  0.00  0.00    +0.012 C 
ATOM     19  C   LIG    1       25.975 -28.990   8.860  0.00  0.00    +0.009 C 
ATOM     20  C   LIG    1       24.377 -31.594  11.157  0.00  0.00    +0.011 C 
ATOM     21  C   LIG    1       25.506 -30.018   7.838  0.00  0.00    +0.057 C 
ENDROOT
BRANCH   1  22
ATOM     22  C   LIG    1       24.057 -32.182   7.921  0.00  0.00    +0.174 C 
ATOM     23  O   LIG    1       23.509 -31.826   6.873  0.00  0.00    -0.293 OA
ATOM     24  C   LIG    1       23.733 -33.534   8.518  0.00  0.00    +0.090 C 
ENDBRANCH   1  22
BRANCH   1  25
ATOM     25  O   LIG    1       26.296 -31.983   9.012  0.00  0.00    -0.450 OA
BRANCH  25  27
ATOM     26  C   LIG    1       27.696 -33.825   8.562  0.00  0.00    +0.136 C 
ATOM     27  C   LIG    1       26.959 -32.640   8.016  0.00  0.00    +0.305 C 
ATOM     28  O   LIG    1       27.045 -32.269   6.859  0.00  0.00    -0.251 OA
ENDBRANCH  25  27
ENDBRANCH   1  25
TORSDOF 3
ENDMDL
MODEL 3
REMARK VINA RESULT:      -4.8      2.732      4.284
REMARK  Name = *****
REMARK                            x       y       z     vdW  Elec       q    Type
REMARK                         _______ _______ _______ _____ _____    ______ ____
ROOT
ATOM      1  C   LIG    1       21.319 -30.171  13.662  0.00  0.00    +0.176 C 
ATOM      2  C   LIG    1       22.212 -31.119  12.764  0.00  0.00    +0.018 C 
ATOM      3  C   LIG    1       22.459 -32.470  13.507  0.00  0.00    +0.016 C 
ATOM      4  C   LIG    1       23.584 -30.383  12.667  0.00  0.00    +0.003 C 
ATOM      5  C   LIG    1       23.883 -29.565  11.387  0.00  0.00    -0.003 C 
ATOM      6  C   LIG    1       23.420 -30.196  10.063  0.00  0.00    +0.002 C 
ATOM      7  C   LIG    1       21.939 -30.586  10.202  0.00  0.00    +0.005 C 
ATOM      8  C   LIG    1       24.385 -31.239   9.368  0.00  0.00    -0.007 C 
ATOM      9  C   LIG    1       24.000 -31.274   7.856  0.00  0.00    +0.016 C 
ATOM     10  C   LIG    1       25.868 -30.851   9.534  0.00  0.00    -0.057 C 
ATOM     11  C   LIG    1       26.797 -31.495   8.792  0.00  0.00    +0.046 C 
ATOM     12  C   LIG    1       26.758 -32.967   9.129  0.00  0.00    +0.156 C 
ATOM     13  O   LIG    1       27.794 -33.624   9.062  0.00  0.00    -0.293 OA
ATOM     14  C   LIG    1       25.401 -33.618   9.372  0.00  0.00    +0.080 C 
ATOM     15  C   LIG    1       26.278 -30.321  10.905  0.00  0.00    +0.013 C 
ATOM     16  C   LIG    1       27.744 -29.866  10.990  0.00  0.00    +0.012 C 
ATOM     17  C   LIG    1       24.313 -32.679   9.925  0.00  0.00    +0.019 C 
ATOM     18  C   LIG    1       25.365 -29.155  11.300  0.00  0.00    +0.012 C 
ATOM     19  C   LIG    1       23.646 -29.456  13.903  0.00  0.00    +0.009 C 
ATOM     20  C   LIG    1       21.593 -31.476  11.391  0.00  0.00    +0.011 C 
ATOM     21  C   LIG    1       22.342 -29.620  14.672  0.00  0.00    +0.057 C 
ENDROOT
BRANCH   1  22
ATOM     22  C   LIG    1       20.140 -30.965  14.315  0.00  0.00    +0.174 C 
ATOM     23  O   LIG    1       20.179 -31.312  15.499  0.00  0.00    -0.293 OA
ATOM     24  C   LIG    1       18.927 -31.299  13.473  0.00  0.00    +0.090 C 
ENDBRANCH   1  22
BRANCH   1  25
ATOM     25  O   LIG    1       20.850 -29.074  12.844  0.00  0.00    -0.450 OA
BRANCH  25  27
ATOM     26  C   LIG    1       21.322 -26.784  13.144  0.00  0.00    +0.136 C 
ATOM     27  C   LIG    1       20.439 -27.945  13.492  0.00  0.00    +0.305 C 
ATOM     28  O   LIG    1       19.553 -27.889  14.326  0.00  0.00    -0.251 OA
ENDBRANCH  25  27
ENDBRANCH   1  25
TORSDOF 3
ENDMDL
MODEL 4
REMARK VINA RESULT:      -4.8      4.425      6.269
REMARK  Name = *****
REMARK                            x       y       z     vdW  Elec       q    Type
REMARK                         _______ _______ _______ _____ _____    ______ ____
ROOT
ATOM      1  C   LIG    1       24.846 -31.446   7.977  0.00  0.00    +0.176 C 
ATOM      2  C   LIG    1       25.929 -31.145   9.091  0.00  0.00    +0.018 C 
ATOM      3  C   LIG    1       26.993 -32.288   9.113  0.00  0.00    +0.016 C 
ATOM      4  C   LIG    1       25.138 -31.220  10.433  0.00  0.00    +0.003 C 
ATOM      5  C   LIG    1       24.689 -29.891  11.088  0.00  0.00    -0.003 C 
ATOM      6  C   LIG    1       25.700 -28.734  11.026  0.00  0.00    +0.002 C 
ATOM      7  C   LIG    1       26.157 -28.568   9.567  0.00  0.00    +0.005 C 
ATOM      8  C   LIG    1       26.812 -28.668  12.149  0.00  0.00    -0.007 C 
ATOM      9  C   LIG    1       27.300 -27.187  12.215  0.00  0.00    +0.016 C 
ATOM     10  C   LIG    1       26.271 -29.115  13.522  0.00  0.00    -0.057 C 
ATOM     11  C   LIG    1       27.017 -28.879  14.625  0.00  0.00    +0.046 C 
ATOM     12  C   LIG    1       28.334 -29.605  14.489  0.00  0.00    +0.156 C 
ATOM     13  O   LIG    1       28.896 -30.021  15.500  0.00  0.00    -0.293 OA
ATOM     14  C   LIG    1       29.002 -29.644  13.119  0.00  0.00    +0.080 C 
ATOM     15  C   LIG    1       25.347 -30.330  13.521  0.00  0.00    +0.013 C 
ATOM     16  C   LIG    1       24.767 -30.678  14.900  0.00  0.00    +0.012 C 
ATOM     17  C   LIG    1       28.040 -29.577  11.918  0.00  0.00    +0.019 C 
ATOM     18  C   LIG    1       24.197 -30.100  12.533  0.00  0.00    +0.012 C 
ATOM     19  C   LIG    1       23.901 -32.099  10.138  0.00  0.00    +0.009 C 
ATOM     20  C   LIG    1       26.706 -29.821   8.892  0.00  0.00    +0.011 C 
ATOM     21  C   LIG    1       23.951 -32.492   8.668  0.00  0.00    +0.057 C 
ENDROOT
BRANCH   1  22
ATOM     22  C   LIG    1       25.521 -31.950   6.660  0.00  0.00    +0.174 C 
ATOM     23  O   LIG    1       26.394 -31.285   6.093  0.00  0.00    -0.293 OA
ATOM     24  C   LIG    1       25.101 -33.286   6.085  0.00  0.00    +0.090 C 
ENDBRANCH   1  22
BRANCH   1  25
ATOM     25  O   LIG    1       24.064 -30.248   7.765  0.00  0.00    -0.450 OA
BRANCH  25  27
ATOM     26  C   LIG    1       24.489 -28.502   6.240  0.00  0.00    +0.136 C 
ATOM     27  C   LIG    1       23.874 -29.849   6.473  0.00  0.00    +0.305 C 
ATOM     28  O   LIG    1       23.206 -30.436   5.642  0.00  0.00    -0.251 OA
ENDBRANCH  25  27
ENDBRANCH   1  25
TORSDOF 3
ENDMDL
MODEL 5
REMARK VINA RESULT:      -4.8      1.541      2.125
REMARK  Name = *****
REMARK                            x       y       z     vdW  Elec       q    Type
REMARK                         _______ _______ _______ _____ _____    ______ ____
ROOT
ATOM      1  C   LIG    1       21.213 -30.725  13.878  0.00  0.00    +0.176 C 
ATOM      2  C   LIG    1       22.727 -30.333  14.119  0.00  0.00    +0.018 C 
ATOM      3  C   LIG    1       23.230 -30.968  15.454  0.00  0.00    +0.016 C 
ATOM      4  C   LIG    1       22.702 -28.787  14.319  0.00  0.00    +0.003 C 
ATOM      5  C   LIG    1       23.085 -27.890  13.117  0.00  0.00    -0.003 C 
ATOM      6  C   LIG    1       24.258 -28.387  12.254  0.00  0.00    +0.002 C 
ATOM      7  C   LIG    1       23.986 -29.848  11.860  0.00  0.00    +0.005 C 
ATOM      8  C   LIG    1       25.723 -28.020  12.724  0.00  0.00    -0.007 C 
ATOM      9  C   LIG    1       26.637 -28.105  11.462  0.00  0.00    +0.016 C 
ATOM     10  C   LIG    1       25.793 -26.610  13.343  0.00  0.00    -0.057 C 
ATOM     11  C   LIG    1       27.006 -26.053  13.561  0.00  0.00    +0.046 C 
ATOM     12  C   LIG    1       27.776 -26.922  14.527  0.00  0.00    +0.156 C 
ATOM     13  O   LIG    1       28.581 -26.398  15.293  0.00  0.00    -0.293 OA
ATOM     14  C   LIG    1       27.651 -28.436  14.398  0.00  0.00    +0.080 C 
ATOM     15  C   LIG    1       24.642 -26.218  14.265  0.00  0.00    +0.013 C 
ATOM     16  C   LIG    1       24.716 -24.773  14.783  0.00  0.00    +0.012 C 
ATOM     17  C   LIG    1       26.314 -28.937  13.820  0.00  0.00    +0.019 C 
ATOM     18  C   LIG    1       23.308 -26.426  13.539  0.00  0.00    +0.012 C 
ATOM     19  C   LIG    1       21.265 -28.452  14.781  0.00  0.00    +0.009 C 
ATOM     20  C   LIG    1       23.699 -30.807  13.010  0.00  0.00    +0.011 C 
ATOM     21  C   LIG    1       20.473 -29.752  14.813  0.00  0.00    +0.057 C 
ENDROOT
BRANCH   1  22
ATOM     22  C   LIG    1       20.967 -32.236  14.201  0.00  0.00    +0.174 C 
ATOM     23  O   LIG    1       21.545 -33.127  13.571  0.00  0.00    -0.293 OA
ATOM     24  C   LIG    1       20.012 -32.601  15.317  0.00  0.00    +0.090 C 
ENDBRANCH   1  22
BRANCH   1  25
ATOM     25  O   LIG    1       20.867 -30.397  12.513  0.00  0.00    -0.450 OA
BRANCH  25  27
ATOM     26  C   LIG    1       20.079 -31.643  10.674  0.00  0.00    +0.136 C 
ATOM     27  C   LIG    1       19.759 -30.998  11.988  0.00  0.00    +0.305 C 
ATOM     28  O   LIG    1       18.635 -30.935  12.451  0.00  0.00    -0.251 OA
ENDBRANCH  25  27
ENDBRANCH   1  25
TORSDOF 3
ENDMDL
MODEL 6
REMARK VINA RESULT:      -4.7      3.651      6.395
REMARK  Name = *****
REMARK                            x       y       z     vdW  Elec       q    Type
REMARK                         _______ _______ _______ _____ _____    ______ ____
ROOT
ATOM      1  C   LIG    1       25.000 -31.363   7.768  0.00  0.00    +0.176 C 
ATOM      2  C   LIG    1       24.766 -30.348   8.960  0.00  0.00    +0.018 C 
ATOM      3  C   LIG    1       25.406 -28.967   8.610  0.00  0.00    +0.016 C 
ATOM      4  C   LIG    1       25.578 -30.950  10.148  0.00  0.00    +0.003 C 
ATOM      5  C   LIG    1       24.808 -31.756  11.222  0.00  0.00    -0.003 C 
ATOM      6  C   LIG    1       23.435 -31.196  11.628  0.00  0.00    +0.002 C 
ATOM      7  C   LIG    1       22.615 -30.948  10.350  0.00  0.00    +0.005 C 
ATOM      8  C   LIG    1       23.398 -30.076  12.744  0.00  0.00    -0.007 C 
ATOM      9  C   LIG    1       21.967 -30.104  13.366  0.00  0.00    +0.016 C 
ATOM     10  C   LIG    1       24.461 -30.317  13.836  0.00  0.00    -0.057 C 
ATOM     11  C   LIG    1       24.394 -29.600  14.980  0.00  0.00    +0.046 C 
ATOM     12  C   LIG    1       24.530 -28.132  14.646  0.00  0.00    +0.156 C 
ATOM     13  O   LIG    1       25.061 -27.380  15.459  0.00  0.00    -0.293 OA
ATOM     14  C   LIG    1       23.849 -27.611  13.385  0.00  0.00    +0.080 C 
ATOM     15  C   LIG    1       25.832 -30.782  13.353  0.00  0.00    +0.013 C 
ATOM     16  C   LIG    1       26.824 -31.092  14.485  0.00  0.00    +0.012 C 
ATOM     17  C   LIG    1       23.690 -28.641  12.251  0.00  0.00    +0.019 C 
ATOM     18  C   LIG    1       25.672 -32.024  12.469  0.00  0.00    +0.012 C 
ATOM     19  C   LIG    1       26.659 -31.846   9.500  0.00  0.00    +0.009 C 
ATOM     20  C   LIG    1       23.278 -30.075   9.290  0.00  0.00    +0.011 C 
ATOM     21  C   LIG    1       26.460 -31.796   7.991  0.00  0.00    +0.057 C 
ENDROOT
BRANCH   1  22
ATOM     22  C   LIG    1       24.739 -30.674   6.388  0.00  0.00    +0.174 C 
ATOM     23  O   LIG    1       23.644 -30.170   6.120  0.00  0.00    -0.293 OA
ATOM     24  C   LIG    1       25.861 -30.619   5.373  0.00  0.00    +0.090 C 
ENDBRANCH   1  22
BRANCH   1  25
ATOM     25  O   LIG    1       24.147 -32.513   7.973  0.00  0.00    -0.450 OA
BRANCH  25  27
ATOM     26  C   LIG    1       22.565 -33.803   6.794  0.00  0.00    +0.136 C 
ATOM     27  C   LIG    1       23.995 -33.371   6.922  0.00  0.00    +0.305 C 
ATOM     28  O   LIG    1       24.897 -33.822   6.240  0.00  0.00    -0.251 OA
ENDBRANCH  25  27
ENDBRANCH   1  25
TORSDOF 3
ENDMDL
MODEL 7
REMARK VINA RESULT:      -4.7      4.440      6.929
REMARK  Name = *****
REMARK                            x       y       z     vdW  Elec       q    Type
REMARK                         _______ _______ _______ _____ _____    ______ ____
ROOT
ATOM      1  C   LIG    1       25.626 -31.980   7.119  0.00  0.00    +0.176 C 
ATOM      2  C   LIG    1       25.637 -32.122   8.695  0.00  0.00    +0.018 C 
ATOM      3  C   LIG    1       25.893 -33.611   9.088  0.00  0.00    +0.016 C 
ATOM      4  C   LIG    1       24.180 -31.771   9.127  0.00  0.00    +0.003 C 
ATOM      5  C   LIG    1       23.903 -30.346   9.664  0.00  0.00    -0.003 C 
ATOM      6  C   LIG    1       24.984 -29.752  10.582  0.00  0.00    +0.002 C 
ATOM      7  C   LIG    1       26.345 -29.881   9.877  0.00  0.00    +0.005 C 
ATOM      8  C   LIG    1       24.925 -30.115  12.120  0.00  0.00    -0.007 C 
ATOM      9  C   LIG    1       25.700 -28.994  12.880  0.00  0.00    +0.016 C 
ATOM     10  C   LIG    1       23.474 -30.207  12.634  0.00  0.00    -0.057 C 
ATOM     11  C   LIG    1       23.257 -30.259  13.968  0.00  0.00    +0.046 C 
ATOM     12  C   LIG    1       23.927 -31.494  14.524  0.00  0.00    +0.156 C 
ATOM     13  O   LIG    1       23.432 -32.057  15.497  0.00  0.00    -0.293 OA
ATOM     14  C   LIG    1       25.287 -31.895  13.962  0.00  0.00    +0.080 C 
ATOM     15  C   LIG    1       22.472 -30.894  11.711  0.00  0.00    +0.013 C 
ATOM     16  C   LIG    1       21.026 -30.879  12.231  0.00  0.00    +0.012 C 
ATOM     17  C   LIG    1       25.540 -31.481  12.501  0.00  0.00    +0.019 C 
ATOM     18  C   LIG    1       22.516 -30.240  10.326  0.00  0.00    +0.012 C 
ATOM     19  C   LIG    1       23.302 -32.037   7.881  0.00  0.00    +0.009 C 
ATOM     20  C   LIG    1       26.723 -31.282   9.409  0.00  0.00    +0.011 C 
ATOM     21  C   LIG    1       24.220 -32.492   6.755  0.00  0.00    +0.057 C 
ENDROOT
BRANCH   1  22
ATOM     22  C   LIG    1       26.792 -32.800   6.475  0.00  0.00    +0.174 C 
ATOM     23  O   LIG    1       27.961 -32.651   6.846  0.00  0.00    -0.293 OA
ATOM     24  C   LIG    1       26.471 -33.802   5.387  0.00  0.00    +0.090 C 
ENDBRANCH   1  22
BRANCH   1  25
ATOM     25  O   LIG    1       25.699 -30.575   6.786  0.00  0.00    -0.450 OA
BRANCH  25  27
ATOM     26  C   LIG    1       24.162 -29.141   5.719  0.00  0.00    +0.136 C 
ATOM     27  C   LIG    1       25.214 -30.197   5.567  0.00  0.00    +0.305 C 
ATOM     28  O   LIG    1       25.501 -30.712   4.501  0.00  0.00    -0.251 OA
ENDBRANCH  25  27
ENDBRANCH   1  25
TORSDOF 3
ENDMDL
MODEL 8
REMARK VINA RESULT:      -4.7      1.674      2.269
REMARK  Name = *****
REMARK                            x       y       z     vdW  Elec       q    Type
REMARK                         _______ _______ _______ _____ _____    ______ ____
ROOT
ATOM      1  C   LIG    1       20.143 -31.646  13.735  0.00  0.00    +0.176 C 
ATOM      2  C   LIG    1       21.541 -31.811  13.013  0.00  0.00    +0.018 C 
ATOM      3  C   LIG    1       22.340 -32.981  13.670  0.00  0.00    +0.016 C 
ATOM      4  C   LIG    1       22.303 -30.488  13.334  0.00  0.00    +0.003 C 
ATOM      5  C   LIG    1       22.333 -29.383  12.250  0.00  0.00    -0.003 C 
ATOM      6  C   LIG    1       22.510 -29.867  10.801  0.00  0.00    +0.002 C 
ATOM      7  C   LIG    1       21.466 -30.961  10.524  0.00  0.00    +0.005 C 
ATOM      8  C   LIG    1       23.983 -30.119  10.285  0.00  0.00    -0.007 C 
ATOM      9  C   LIG    1       23.939 -30.023   8.728  0.00  0.00    +0.016 C 
ATOM     10  C   LIG    1       24.978 -29.089  10.857  0.00  0.00    -0.057 C 
ATOM     11  C   LIG    1       26.217 -29.012  10.321  0.00  0.00    +0.046 C 
ATOM     12  C   LIG    1       26.911 -30.341  10.504  0.00  0.00    +0.156 C 
ATOM     13  O   LIG    1       28.132 -30.365  10.644  0.00  0.00    -0.293 OA
ATOM     14  C   LIG    1       26.092 -31.616  10.335  0.00  0.00    +0.080 C 
ATOM     15  C   LIG    1       24.803 -28.726  12.329  0.00  0.00    +0.013 C 
ATOM     16  C   LIG    1       25.761 -27.631  12.824  0.00  0.00    +0.012 C 
ATOM     17  C   LIG    1       24.596 -31.483  10.674  0.00  0.00    +0.019 C 
ATOM     18  C   LIG    1       23.358 -28.282  12.581  0.00  0.00    +0.012 C 
ATOM     19  C   LIG    1       21.651 -29.936  14.623  0.00  0.00    +0.009 C 
ATOM     20  C   LIG    1       21.451 -32.132  11.501  0.00  0.00    +0.011 C 
ATOM     21  C   LIG    1       20.526 -30.884  15.017  0.00  0.00    +0.057 C 
ENDROOT
BRANCH   1  22
ATOM     22  C   LIG    1       19.478 -33.038  13.992  0.00  0.00    +0.174 C 
ATOM     23  O   LIG    1       19.261 -33.825  13.065  0.00  0.00    -0.293 OA
ATOM     24  C   LIG    1       19.110 -33.425  15.408  0.00  0.00    +0.090 C 
ENDBRANCH   1  22
BRANCH   1  25
ATOM     25  O   LIG    1       19.309 -30.785  12.926  0.00  0.00    -0.450 OA
BRANCH  25  27
ATOM     26  C   LIG    1       17.223 -31.383  12.006  0.00  0.00    +0.136 C 
ATOM     27  C   LIG    1       17.966 -30.807  13.173  0.00  0.00    +0.305 C 
ATOM     28  O   LIG    1       17.418 -30.328  14.149  0.00  0.00    -0.251 OA
ENDBRANCH  25  27
ENDBRANCH   1  25
TORSDOF 3
ENDMDL
MODEL 9
REMARK VINA RESULT:      -4.6      2.712      6.674
REMARK  Name = *****
REMARK                            x       y       z     vdW  Elec       q    Type
REMARK                         _______ _______ _______ _____ _____    ______ ____
ROOT
ATOM      1  C   LIG    1       24.251 -31.405   9.691  0.00  0.00    +0.176 C 
ATOM      2  C   LIG    1       23.440 -31.632  11.031  0.00  0.00    +0.018 C 
ATOM      3  C   LIG    1       24.002 -32.879  11.783  0.00  0.00    +0.016 C 
ATOM      4  C   LIG    1       21.997 -31.986  10.556  0.00  0.00    +0.003 C 
ATOM      5  C   LIG    1       20.928 -30.867  10.578  0.00  0.00    -0.003 C 
ATOM      6  C   LIG    1       20.969 -29.920  11.789  0.00  0.00    +0.002 C 
ATOM      7  C   LIG    1       22.405 -29.392  11.943  0.00  0.00    +0.005 C 
ATOM      8  C   LIG    1       20.216 -30.374  13.104  0.00  0.00    -0.007 C 
ATOM      9  C   LIG    1       19.912 -29.080  13.921  0.00  0.00    +0.016 C 
ATOM     10  C   LIG    1       18.909 -31.128  12.787  0.00  0.00    -0.057 C 
ATOM     11  C   LIG    1       18.030 -31.359  13.789  0.00  0.00    +0.046 C 
ATOM     12  C   LIG    1       18.703 -32.208  14.842  0.00  0.00    +0.156 C 
ATOM     13  O   LIG    1       18.026 -32.994  15.500  0.00  0.00    -0.293 OA
ATOM     14  C   LIG    1       20.167 -31.932  15.169  0.00  0.00    +0.080 C 
ATOM     15  C   LIG    1       18.965 -32.123  11.632  0.00  0.00    +0.013 C 
ATOM     16  C   LIG    1       17.615 -32.779  11.301  0.00  0.00    +0.012 C 
ATOM     17  C   LIG    1       20.999 -31.352  14.009  0.00  0.00    +0.019 C 
ATOM     18  C   LIG    1       19.506 -31.425  10.378  0.00  0.00    +0.012 C 
ATOM     19  C   LIG    1       22.154 -32.527   9.116  0.00  0.00    +0.009 C 
ATOM     20  C   LIG    1       23.500 -30.449  12.028  0.00  0.00    +0.011 C 
ATOM     21  C   LIG    1       23.632 -32.456   8.753  0.00  0.00    +0.057 C 
ENDROOT
BRANCH   1  22
ATOM     22  C   LIG    1       25.786 -31.584   9.930  0.00  0.00    +0.174 C 
ATOM     23  O   LIG    1       26.385 -30.912  10.776  0.00  0.00    -0.293 OA
ATOM     24  C   LIG    1       26.540 -32.610   9.113  0.00  0.00    +0.090 C 
ENDBRANCH   1  22
BRANCH   1  25
ATOM     25  O   LIG    1       23.928 -30.091   9.179  0.00  0.00    -0.450 OA
BRANCH  25  27
ATOM     26  C   LIG    1       25.513 -28.805   7.999  0.00  0.00    +0.136 C 
ATOM     27  C   LIG    1       24.379 -29.783   7.928  0.00  0.00    +0.305 C 
ATOM     28  O   LIG    1       23.874 -30.150   6.883  0.00  0.00    -0.251 OA
ENDBRANCH  25  27
ENDBRANCH   1  25
TORSDOF 3
ENDMDL
