MODEL 1
REMARK VINA RESULT:      -9.3      0.000      0.000
REMARK  Name = *****
REMARK                            x       y       z     vdW  Elec       q    Type
REMARK                         _______ _______ _______ _____ _____    ______ ____
ROOT
ATOM      1  C   LIG    1       28.936 -19.144   5.734  0.00  0.00    +0.030 A 
ATOM      2  C   LIG    1       27.857 -19.985   5.951  0.00  0.00    +0.003 A 
ATOM      3  C   LIG    1       26.524 -20.027   5.278  0.00  0.00    +0.146 C 
ATOM      4  N   LIG    1       25.883 -21.181   5.898  0.00  0.00    -0.281 N 
ATOM      5  C   LIG    1       26.646 -21.711   6.926  0.00  0.00    +0.248 C 
ATOM      6  O   LIG    1       26.359 -22.624   7.675  0.00  0.00    -0.270 OA
ATOM      7  C   LIG    1       27.907 -20.963   6.947  0.00  0.00    +0.043 A 
ATOM      8  C   LIG    1       28.990 -21.129   7.787  0.00  0.00    +0.013 A 
ATOM      9  C   LIG    1       30.058 -20.251   7.622  0.00  0.00    +0.003 A 
ATOM     10  C   LIG    1       30.018 -19.260   6.621  0.00  0.00    +0.023 A 
ENDROOT
BRANCH   4  11
ATOM     11  C   LIG    1       24.513 -21.617   5.619  0.00  0.00    +0.163 C 
ATOM     12  C   LIG    1       23.458 -20.905   6.478  0.00  0.00    +0.240 C 
ATOM     13  O   LIG    1       23.356 -21.081   7.692  0.00  0.00    -0.273 OA
ATOM     14  N   LIG    1       22.733 -19.910   5.867  0.00  0.00    -0.255 N 
ATOM     15  H   LIG    1       22.102 -19.400   6.471  0.00  0.00    +0.158 HD
ATOM     16  C   LIG    1       22.997 -19.316   4.660  0.00  0.00    +0.219 C 
ATOM     17  O   LIG    1       22.497 -18.233   4.371  0.00  0.00    -0.275 OA
ATOM     18  C   LIG    1       24.002 -20.004   3.768  0.00  0.00    +0.098 C 
ATOM     19  C   LIG    1       24.152 -21.472   4.137  0.00  0.00    +0.041 C 
ENDBRANCH   4  11
BRANCH   1  20
ATOM     20  N   LIG    1       28.871 -18.072   4.843  0.00  0.00    -0.358 N 
ATOM     21  H   LIG    1       28.865 -17.152   5.272  0.00  0.00    +0.142 HD
ATOM     22  H   LIG    1       28.142 -18.163   4.141  0.00  0.00    +0.142 HD
ENDBRANCH   1  20
TORSDOF 2
ENDMDL
MODEL 2
REMARK VINA RESULT:      -8.6      1.891      3.058
REMARK  Name = *****
REMARK                            x       y       z     vdW  Elec       q    Type
REMARK                         _______ _______ _______ _____ _____    ______ ____
ROOT
ATOM      1  C   LIG    1       29.096 -18.942   5.786  0.00  0.00    +0.030 A 
ATOM      2  C   LIG    1       28.083 -19.744   6.285  0.00  0.00    +0.003 A 
ATOM      3  C   LIG    1       26.789 -20.153   5.661  0.00  0.00    +0.146 C 
ATOM      4  N   LIG    1       26.221 -21.057   6.655  0.00  0.00    -0.281 N 
ATOM      5  C   LIG    1       26.980 -21.103   7.812  0.00  0.00    +0.248 C 
ATOM      6  O   LIG    1       26.738 -21.704   8.841  0.00  0.00    -0.270 OA
ATOM      7  C   LIG    1       28.172 -20.284   7.571  0.00  0.00    +0.043 A 
ATOM      8  C   LIG    1       29.227 -20.030   8.424  0.00  0.00    +0.013 A 
ATOM      9  C   LIG    1       30.224 -19.176   7.959  0.00  0.00    +0.003 A 
ATOM     10  C   LIG    1       30.144 -18.625   6.665  0.00  0.00    +0.023 A 
ENDROOT
BRANCH   4  11
ATOM     11  C   LIG    1       24.906 -21.692   6.541  0.00  0.00    +0.163 C 
ATOM     12  C   LIG    1       24.512 -22.027   5.095  0.00  0.00    +0.240 C 
ATOM     13  O   LIG    1       24.261 -21.164   4.254  0.00  0.00    -0.273 OA
ATOM     14  N   LIG    1       24.625 -23.342   4.712  0.00  0.00    -0.255 N 
ATOM     15  H   LIG    1       24.439 -23.527   3.736  0.00  0.00    +0.158 HD
ATOM     16  C   LIG    1       25.268 -24.347   5.387  0.00  0.00    +0.219 C 
ATOM     17  O   LIG    1       25.594 -25.382   4.811  0.00  0.00    -0.275 OA
ATOM     18  C   LIG    1       25.641 -24.074   6.823  0.00  0.00    +0.098 C 
ATOM     19  C   LIG    1       24.796 -22.952   7.407  0.00  0.00    +0.041 C 
ENDBRANCH   4  11
BRANCH   1  20
ATOM     20  N   LIG    1       28.981 -18.278   4.564  0.00  0.00    -0.358 N 
ATOM     21  H   LIG    1       29.834 -18.225   4.018  0.00  0.00    +0.142 HD
ATOM     22  H   LIG    1       28.519 -17.375   4.628  0.00  0.00    +0.142 HD
ENDBRANCH   1  20
TORSDOF 2
ENDMDL
MODEL 3
REMARK VINA RESULT:      -8.5      2.424      3.818
REMARK  Name = *****
REMARK                            x       y       z     vdW  Elec       q    Type
REMARK                         _______ _______ _______ _____ _____    ______ ____
ROOT
ATOM      1  C   LIG    1       29.704 -20.616   7.518  0.00  0.00    +0.030 A 
ATOM      2  C   LIG    1       28.428 -20.747   6.995  0.00  0.00    +0.003 A 
ATOM      3  C   LIG    1       27.367 -21.755   7.296  0.00  0.00    +0.146 C 
ATOM      4  N   LIG    1       26.244 -21.297   6.486  0.00  0.00    -0.281 N 
ATOM      5  C   LIG    1       26.589 -20.230   5.673  0.00  0.00    +0.248 C 
ATOM      6  O   LIG    1       25.901 -19.673   4.840  0.00  0.00    -0.270 OA
ATOM      7  C   LIG    1       27.969 -19.869   6.010  0.00  0.00    +0.043 A 
ATOM      8  C   LIG    1       28.749 -18.863   5.475  0.00  0.00    +0.013 A 
ATOM      9  C   LIG    1       30.055 -18.757   5.947  0.00  0.00    +0.003 A 
ATOM     10  C   LIG    1       30.528 -19.638   6.939  0.00  0.00    +0.023 A 
ENDROOT
BRANCH   4  11
ATOM     11  C   LIG    1       24.960 -21.993   6.382  0.00  0.00    +0.163 C 
ATOM     12  C   LIG    1       24.658 -22.508   4.967  0.00  0.00    +0.240 C 
ATOM     13  O   LIG    1       24.424 -21.759   4.019  0.00  0.00    -0.273 OA
ATOM     14  N   LIG    1       24.835 -23.854   4.749  0.00  0.00    -0.255 N 
ATOM     15  H   LIG    1       24.709 -24.158   3.793  0.00  0.00    +0.158 HD
ATOM     16  C   LIG    1       25.475 -24.747   5.568  0.00  0.00    +0.219 C 
ATOM     17  O   LIG    1       25.866 -25.828   5.135  0.00  0.00    -0.275 OA
ATOM     18  C   LIG    1       25.759 -24.294   6.979  0.00  0.00    +0.098 C 
ATOM     19  C   LIG    1       24.846 -23.147   7.384  0.00  0.00    +0.041 C 
ENDBRANCH   4  11
BRANCH   1  20
ATOM     20  N   LIG    1       30.241 -21.552   8.402  0.00  0.00    -0.358 N 
ATOM     21  H   LIG    1       31.223 -21.766   8.262  0.00  0.00    +0.142 HD
ATOM     22  H   LIG    1       29.683 -22.397   8.497  0.00  0.00    +0.142 HD
ENDBRANCH   1  20
TORSDOF 2
ENDMDL
MODEL 4
REMARK VINA RESULT:      -7.8      3.670      5.669
REMARK  Name = *****
REMARK                            x       y       z     vdW  Elec       q    Type
REMARK                         _______ _______ _______ _____ _____    ______ ____
ROOT
ATOM      1  C   LIG    1       26.509 -26.562   5.758  0.00  0.00    +0.030 A 
ATOM      2  C   LIG    1       25.722 -25.498   6.166  0.00  0.00    +0.003 A 
ATOM      3  C   LIG    1       26.120 -24.150   6.670  0.00  0.00    +0.146 C 
ATOM      4  N   LIG    1       24.839 -23.475   6.843  0.00  0.00    -0.281 N 
ATOM      5  C   LIG    1       23.768 -24.325   6.617  0.00  0.00    +0.248 C 
ATOM      6  O   LIG    1       22.584 -24.084   6.745  0.00  0.00    -0.270 OA
ATOM      7  C   LIG    1       24.329 -25.603   6.169  0.00  0.00    +0.043 A 
ATOM      8  C   LIG    1       23.659 -26.757   5.814  0.00  0.00    +0.013 A 
ATOM      9  C   LIG    1       24.438 -27.856   5.461  0.00  0.00    +0.003 A 
ATOM     10  C   LIG    1       25.844 -27.762   5.455  0.00  0.00    +0.023 A 
ENDROOT
BRANCH   4  11
ATOM     11  C   LIG    1       24.680 -22.124   7.384  0.00  0.00    +0.163 C 
ATOM     12  C   LIG    1       25.941 -21.593   8.081  0.00  0.00    +0.240 C 
ATOM     13  O   LIG    1       26.364 -22.057   9.140  0.00  0.00    -0.273 OA
ATOM     14  N   LIG    1       26.698 -20.684   7.382  0.00  0.00    -0.255 N 
ATOM     15  H   LIG    1       27.565 -20.409   7.825  0.00  0.00    +0.158 HD
ATOM     16  C   LIG    1       26.597 -20.373   6.051  0.00  0.00    +0.219 C 
ATOM     17  O   LIG    1       27.519 -19.813   5.464  0.00  0.00    -0.275 OA
ATOM     18  C   LIG    1       25.355 -20.844   5.334  0.00  0.00    +0.098 C 
ATOM     19  C   LIG    1       24.226 -21.123   6.314  0.00  0.00    +0.041 C 
ENDBRANCH   4  11
BRANCH   1  20
ATOM     20  N   LIG    1       27.899 -26.540   5.870  0.00  0.00    -0.358 N 
ATOM     21  H   LIG    1       28.312 -25.617   5.948  0.00  0.00    +0.142 HD
ATOM     22  H   LIG    1       28.377 -27.107   5.175  0.00  0.00    +0.142 HD
ENDBRANCH   1  20
TORSDOF 2
ENDMDL
MODEL 5
REMARK VINA RESULT:      -7.8      2.512      5.715
REMARK  Name = *****
REMARK                            x       y       z     vdW  Elec       q    Type
REMARK                         _______ _______ _______ _____ _____    ______ ____
ROOT
ATOM      1  C   LIG    1       25.321 -20.390   4.923  0.00  0.00    +0.030 A 
ATOM      2  C   LIG    1       25.990 -20.351   6.135  0.00  0.00    +0.003 A 
ATOM      3  C   LIG    1       27.432 -20.092   6.426  0.00  0.00    +0.146 C 
ATOM      4  N   LIG    1       27.478 -20.107   7.884  0.00  0.00    -0.281 N 
ATOM      5  C   LIG    1       26.262 -20.469   8.439  0.00  0.00    +0.248 C 
ATOM      6  O   LIG    1       25.997 -20.638   9.613  0.00  0.00    -0.270 OA
ATOM      7  C   LIG    1       25.312 -20.606   7.330  0.00  0.00    +0.043 A 
ATOM      8  C   LIG    1       23.975 -20.943   7.381  0.00  0.00    +0.013 A 
ATOM      9  C   LIG    1       23.303 -21.046   6.165  0.00  0.00    +0.003 A 
ATOM     10  C   LIG    1       23.976 -20.792   4.954  0.00  0.00    +0.023 A 
ENDROOT
BRANCH   4  11
ATOM     11  C   LIG    1       28.700 -19.957   8.676  0.00  0.00    +0.163 C 
ATOM     12  C   LIG    1       29.790 -20.977   8.316  0.00  0.00    +0.240 C 
ATOM     13  O   LIG    1       29.683 -22.180   8.553  0.00  0.00    -0.273 OA
ATOM     14  N   LIG    1       30.832 -20.522   7.544  0.00  0.00    -0.255 N 
ATOM     15  H   LIG    1       31.495 -21.227   7.251  0.00  0.00    +0.158 HD
ATOM     16  C   LIG    1       30.898 -19.336   6.860  0.00  0.00    +0.219 C 
ATOM     17  O   LIG    1       31.708 -19.180   5.951  0.00  0.00    -0.275 OA
ATOM     18  C   LIG    1       29.867 -18.291   7.209  0.00  0.00    +0.098 C 
ATOM     19  C   LIG    1       29.276 -18.539   8.588  0.00  0.00    +0.041 C 
ENDBRANCH   4  11
BRANCH   1  20
ATOM     20  N   LIG    1       25.990 -20.274   3.704  0.00  0.00    -0.358 N 
ATOM     21  H   LIG    1       25.419 -19.967   2.924  0.00  0.00    +0.142 HD
ATOM     22  H   LIG    1       26.549 -21.088   3.462  0.00  0.00    +0.142 HD
ENDBRANCH   1  20
TORSDOF 2
ENDMDL
MODEL 6
REMARK VINA RESULT:      -7.5      1.647      2.200
REMARK  Name = *****
REMARK                            x       y       z     vdW  Elec       q    Type
REMARK                         _______ _______ _______ _____ _____    ______ ____
ROOT
ATOM      1  C   LIG    1       29.203 -19.037   5.870  0.00  0.00    +0.030 A 
ATOM      2  C   LIG    1       28.092 -19.864   5.896  0.00  0.00    +0.003 A 
ATOM      3  C   LIG    1       26.890 -19.884   5.010  0.00  0.00    +0.146 C 
ATOM      4  N   LIG    1       26.140 -21.033   5.504  0.00  0.00    -0.281 N 
ATOM      5  C   LIG    1       26.714 -21.580   6.639  0.00  0.00    +0.248 C 
ATOM      6  O   LIG    1       26.294 -22.494   7.322  0.00  0.00    -0.270 OA
ATOM      7  C   LIG    1       27.963 -20.851   6.877  0.00  0.00    +0.043 A 
ATOM      8  C   LIG    1       28.888 -21.037   7.885  0.00  0.00    +0.013 A 
ATOM      9  C   LIG    1       29.980 -20.173   7.908  0.00  0.00    +0.003 A 
ATOM     10  C   LIG    1       30.120 -19.175   6.924  0.00  0.00    +0.023 A 
ENDROOT
BRANCH   4  11
ATOM     11  C   LIG    1       24.830 -21.447   4.996  0.00  0.00    +0.163 C 
ATOM     12  C   LIG    1       24.413 -22.851   5.459  0.00  0.00    +0.240 C 
ATOM     13  O   LIG    1       24.978 -23.876   5.078  0.00  0.00    -0.273 OA
ATOM     14  N   LIG    1       23.483 -22.918   6.469  0.00  0.00    -0.255 N 
ATOM     15  H   LIG    1       23.283 -23.847   6.814  0.00  0.00    +0.158 HD
ATOM     16  C   LIG    1       23.063 -21.891   7.275  0.00  0.00    +0.219 C 
ATOM     17  O   LIG    1       22.498 -22.121   8.341  0.00  0.00    -0.275 OA
ATOM     18  C   LIG    1       23.421 -20.492   6.838  0.00  0.00    +0.098 C 
ATOM     19  C   LIG    1       23.729 -20.442   5.349  0.00  0.00    +0.041 C 
ENDBRANCH   4  11
BRANCH   1  20
ATOM     20  N   LIG    1       29.301 -17.958   4.991  0.00  0.00    -0.358 N 
ATOM     21  H   LIG    1       29.987 -18.063   4.251  0.00  0.00    +0.142 HD
ATOM     22  H   LIG    1       29.383 -17.056   5.453  0.00  0.00    +0.142 HD
ENDBRANCH   1  20
TORSDOF 2
ENDMDL
MODEL 7
REMARK VINA RESULT:      -7.4      1.604      2.096
REMARK  Name = *****
REMARK                            x       y       z     vdW  Elec       q    Type
REMARK                         _______ _______ _______ _____ _____    ______ ____
ROOT
ATOM      1  C   LIG    1       29.264 -18.842   5.506  0.00  0.00    +0.030 A 
ATOM      2  C   LIG    1       28.647 -19.844   6.238  0.00  0.00    +0.003 A 
ATOM      3  C   LIG    1       27.284 -20.436   6.093  0.00  0.00    +0.146 C 
ATOM      4  N   LIG    1       27.279 -21.491   7.100  0.00  0.00    -0.281 N 
ATOM      5  C   LIG    1       28.426 -21.476   7.876  0.00  0.00    +0.248 C 
ATOM      6  O   LIG    1       28.689 -22.176   8.834  0.00  0.00    -0.270 OA
ATOM      7  C   LIG    1       29.303 -20.443   7.317  0.00  0.00    +0.043 A 
ATOM      8  C   LIG    1       30.560 -20.061   7.741  0.00  0.00    +0.013 A 
ATOM      9  C   LIG    1       31.168 -19.013   7.053  0.00  0.00    +0.003 A 
ATOM     10  C   LIG    1       30.516 -18.402   5.965  0.00  0.00    +0.023 A 
ENDROOT
BRANCH   4  11
ATOM     11  C   LIG    1       26.126 -22.342   7.403  0.00  0.00    +0.163 C 
ATOM     12  C   LIG    1       25.140 -21.705   8.394  0.00  0.00    +0.240 C 
ATOM     13  O   LIG    1       25.415 -21.513   9.578  0.00  0.00    -0.273 OA
ATOM     14  N   LIG    1       23.983 -21.184   7.866  0.00  0.00    -0.255 N 
ATOM     15  H   LIG    1       23.387 -20.699   8.523  0.00  0.00    +0.158 HD
ATOM     16  C   LIG    1       23.710 -20.950   6.543  0.00  0.00    +0.219 C 
ATOM     17  O   LIG    1       22.806 -20.187   6.214  0.00  0.00    -0.275 OA
ATOM     18  C   LIG    1       24.633 -21.587   5.534  0.00  0.00    +0.098 C 
ATOM     19  C   LIG    1       25.376 -22.770   6.136  0.00  0.00    +0.041 C 
ENDBRANCH   4  11
BRANCH   1  20
ATOM     20  N   LIG    1       28.591 -18.132   4.511  0.00  0.00    -0.358 N 
ATOM     21  H   LIG    1       27.590 -18.042   4.646  0.00  0.00    +0.142 HD
ATOM     22  H   LIG    1       28.818 -18.430   3.567  0.00  0.00    +0.142 HD
ENDBRANCH   1  20
TORSDOF 2
ENDMDL
MODEL 8
REMARK VINA RESULT:      -7.2      1.815      3.078
REMARK  Name = *****
REMARK                            x       y       z     vdW  Elec       q    Type
REMARK                         _______ _______ _______ _____ _____    ______ ____
ROOT
ATOM      1  C   LIG    1       29.113 -20.490   7.413  0.00  0.00    +0.030 A 
ATOM      2  C   LIG    1       28.017 -20.462   6.565  0.00  0.00    +0.003 A 
ATOM      3  C   LIG    1       26.831 -21.366   6.502  0.00  0.00    +0.146 C 
ATOM      4  N   LIG    1       26.011 -20.756   5.461  0.00  0.00    -0.281 N 
ATOM      5  C   LIG    1       26.655 -19.694   4.848  0.00  0.00    +0.248 C 
ATOM      6  O   LIG    1       26.268 -19.029   3.907  0.00  0.00    -0.270 OA
ATOM      7  C   LIG    1       27.920 -19.495   5.561  0.00  0.00    +0.043 A 
ATOM      8  C   LIG    1       28.900 -18.552   5.325  0.00  0.00    +0.013 A 
ATOM      9  C   LIG    1       30.036 -18.606   6.130  0.00  0.00    +0.003 A 
ATOM     10  C   LIG    1       30.145 -19.577   7.144  0.00  0.00    +0.023 A 
ENDROOT
BRANCH   4  11
ATOM     11  C   LIG    1       24.746 -21.308   4.973  0.00  0.00    +0.163 C 
ATOM     12  C   LIG    1       24.464 -22.730   5.479  0.00  0.00    +0.240 C 
ATOM     13  O   LIG    1       25.124 -23.708   5.125  0.00  0.00    -0.273 OA
ATOM     14  N   LIG    1       23.548 -22.855   6.496  0.00  0.00    -0.255 N 
ATOM     15  H   LIG    1       23.438 -23.788   6.868  0.00  0.00    +0.158 HD
ATOM     16  C   LIG    1       23.034 -21.849   7.273  0.00  0.00    +0.219 C 
ATOM     17  O   LIG    1       22.496 -22.099   8.348  0.00  0.00    -0.275 OA
ATOM     18  C   LIG    1       23.257 -20.436   6.793  0.00  0.00    +0.098 C 
ATOM     19  C   LIG    1       23.555 -20.401   5.302  0.00  0.00    +0.041 C 
ENDBRANCH   4  11
BRANCH   1  20
ATOM     20  N   LIG    1       29.308 -21.518   8.336  0.00  0.00    -0.358 N 
ATOM     21  H   LIG    1       28.519 -22.143   8.461  0.00  0.00    +0.142 HD
ATOM     22  H   LIG    1       29.684 -21.206   9.227  0.00  0.00    +0.142 HD
ENDBRANCH   1  20
TORSDOF 2
ENDMDL
MODEL 9
REMARK VINA RESULT:      -7.0      2.998      6.499
REMARK  Name = *****
REMARK                            x       y       z     vdW  Elec       q    Type
REMARK                         _______ _______ _______ _____ _____    ______ ____
ROOT
ATOM      1  C   LIG    1       25.487 -21.164   7.433  0.00  0.00    +0.030 A 
ATOM      2  C   LIG    1       26.654 -20.462   7.177  0.00  0.00    +0.003 A 
ATOM      3  C   LIG    1       27.776 -20.102   8.094  0.00  0.00    +0.146 C 
ATOM      4  N   LIG    1       28.726 -19.446   7.202  0.00  0.00    -0.281 N 
ATOM      5  C   LIG    1       28.215 -19.283   5.926  0.00  0.00    +0.248 C 
ATOM      6  O   LIG    1       28.730 -18.716   4.982  0.00  0.00    -0.270 OA
ATOM      7  C   LIG    1       26.907 -19.945   5.904  0.00  0.00    +0.043 A 
ATOM      8  C   LIG    1       26.019 -20.059   4.853  0.00  0.00    +0.013 A 
ATOM      9  C   LIG    1       24.815 -20.709   5.112  0.00  0.00    +0.003 A 
ATOM     10  C   LIG    1       24.548 -21.234   6.392  0.00  0.00    +0.023 A 
ENDROOT
BRANCH   4  11
ATOM     11  C   LIG    1       29.989 -18.845   7.635  0.00  0.00    +0.163 C 
ATOM     12  C   LIG    1       30.131 -18.755   9.162  0.00  0.00    +0.240 C 
ATOM     13  O   LIG    1       29.441 -18.006   9.853  0.00  0.00    -0.273 OA
ATOM     14  N   LIG    1       30.946 -19.684   9.763  0.00  0.00    -0.255 N 
ATOM     15  H   LIG    1       30.961 -19.658  10.774  0.00  0.00    +0.158 HD
ATOM     16  C   LIG    1       31.456 -20.825   9.199  0.00  0.00    +0.219 C 
ATOM     17  O   LIG    1       31.881 -21.737   9.902  0.00  0.00    -0.275 OA
ATOM     18  C   LIG    1       31.370 -20.938   7.697  0.00  0.00    +0.098 C 
ATOM     19  C   LIG    1       31.205 -19.572   7.050  0.00  0.00    +0.041 C 
ENDBRANCH   4  11
BRANCH   1  20
ATOM     20  N   LIG    1       25.139 -21.577   8.720  0.00  0.00    -0.358 N 
ATOM     21  H   LIG    1       24.278 -22.110   8.785  0.00  0.00    +0.142 HD
ATOM     22  H   LIG    1       25.176 -20.837   9.415  0.00  0.00    +0.142 HD
ENDBRANCH   1  20
TORSDOF 2
ENDMDL
