MODEL 1
REMARK VINA RESULT:       4.9      0.000      0.000
REMARK  Name = *****
REMARK                            x       y       z     vdW  Elec       q    Type
REMARK                         _______ _______ _______ _____ _____    ______ ____
ROOT
ATOM      1  C   LIG    1       23.404 -13.252   2.549  0.00  0.00    +0.188 C 
ENDROOT
BRANCH   1   2
ATOM      2  O   LIG    1       23.567 -14.688   2.685  0.00  0.00    -0.375 OA
BRANCH   2   3
ATOM      3  C   LIG    1       24.787 -15.356   3.094  0.00  0.00    +0.188 C 
BRANCH   3   4
ATOM      4  C   LIG    1       24.696 -16.819   4.004  0.00  0.00    +0.188 C 
BRANCH   4   5
ATOM      5  O   LIG    1       25.169 -17.985   3.312  0.00  0.00    -0.375 OA
BRANCH   5   6
ATOM      6  C   LIG    1       25.736 -19.218   3.846  0.00  0.00    +0.188 C 
BRANCH   6   7
ATOM      7  C   LIG    1       25.274 -20.374   2.992  0.00  0.00    +0.188 C 
BRANCH   7   8
ATOM      8  O   LIG    1       23.866 -20.566   3.156  0.00  0.00    -0.375 OA
BRANCH   8   9
ATOM      9  C   LIG    1       23.568 -21.150   4.425  0.00  0.00    +0.188 C 
BRANCH   9  10
ATOM     10  C   LIG    1       23.311 -20.138   5.594  0.00  0.00    +0.188 C 
BRANCH  10  11
ATOM     11  O   LIG    1       24.101 -20.345   6.781  0.00  0.00    -0.375 OA
BRANCH  11  12
ATOM     12  C   LIG    1       25.193 -21.304   6.692  0.00  0.00    +0.188 C 
BRANCH  12  13
ATOM     13  C   LIG    1       26.604 -20.676   6.659  0.00  0.00    +0.188 C 
BRANCH  13  14
ATOM     14  O   LIG    1       27.658 -21.569   7.062  0.00  0.00    -0.375 OA
BRANCH  14  15
ATOM     15  C   LIG    1       28.892 -21.421   6.307  0.00  0.00    +0.188 C 
BRANCH  15  16
ATOM     16  C   LIG    1       29.475 -19.980   6.382  0.00  0.00    +0.188 C 
BRANCH  16  17
ATOM     17  O   LIG    1       29.348 -19.096   5.266  0.00  0.00    -0.375 OA
BRANCH  17  18
ATOM     18  C   LIG    1       28.367 -18.052   5.356  0.00  0.00    +0.187 C 
BRANCH  18  19
ATOM     19  C   LIG    1       28.829 -16.879   4.512  0.00  0.00    +0.184 C 
BRANCH  19  20
ATOM     20  O   LIG    1       27.724 -16.238   3.883  0.00  0.00    -0.393 OA
ATOM     21  H   LIG    1       28.000 -15.323   3.685  0.00  0.00    +0.209 HD
ENDBRANCH  19  20
ENDBRANCH  18  19
ENDBRANCH  17  18
ENDBRANCH  16  17
ENDBRANCH  15  16
ENDBRANCH  14  15
ENDBRANCH  13  14
ENDBRANCH  12  13
ENDBRANCH  11  12
ENDBRANCH  10  11
ENDBRANCH   9  10
ENDBRANCH   8   9
ENDBRANCH   7   8
ENDBRANCH   6   7
ENDBRANCH   5   6
ENDBRANCH   4   5
ENDBRANCH   3   4
ENDBRANCH   2   3
ENDBRANCH   1   2
BRANCH   1  22
ATOM     22  C   LIG    1       24.368 -12.371   3.361  0.00  0.00    +0.188 C 
BRANCH  22  23
ATOM     23  O   LIG    1       25.149 -11.507   2.489  0.00  0.00    -0.375 OA
BRANCH  23  24
ATOM     24  C   LIG    1       26.174 -12.226   1.812  0.00  0.00    +0.188 C 
BRANCH  24  25
ATOM     25  C   LIG    1       26.527 -13.637   2.458  0.00  0.00    +0.188 C 
BRANCH  25  26
ATOM     26  O   LIG    1       27.703 -13.798   3.308  0.00  0.00    -0.375 OA
BRANCH  26  27
ATOM     27  C   LIG    1       28.823 -12.858   3.275  0.00  0.00    +0.188 C 
BRANCH  27  28
ATOM     28  C   LIG    1       28.677 -11.812   4.335  0.00  0.00    +0.188 C 
BRANCH  28  29
ATOM     29  O   LIG    1       28.653 -12.329   5.636  0.00  0.00    -0.378 OA
BRANCH  29  30
ATOM     30  C   LIG    1       27.865 -13.502   5.858  0.00  0.00    +0.160 C 
BRANCH  30  31
ATOM     31  C   LIG    1       26.512 -13.300   6.579  0.00  0.00    +0.028 C 
BRANCH  31  32
ATOM     32  C   LIG    1       25.272 -13.345   5.657  0.00  0.00    +0.002 C 
BRANCH  32  33
ATOM     33  C   LIG    1       24.440 -12.043   5.680  0.00  0.00    +0.000 C 
BRANCH  33  34
ATOM     34  C   LIG    1       23.021 -12.134   6.317  0.00  0.00    -0.000 C 
BRANCH  34  35
ATOM     35  C   LIG    1       22.184 -13.360   5.926  0.00  0.00    -0.000 C 
BRANCH  35  36
ATOM     36  C   LIG    1       22.620 -14.763   6.431  0.00  0.00    -0.000 C 
BRANCH  36  37
ATOM     37  C   LIG    1       21.780 -16.008   6.059  0.00  0.00    -0.000 C 
BRANCH  37  38
ATOM     38  C   LIG    1       21.761 -16.363   4.555  0.00  0.00    -0.000 C 
BRANCH  38  39
ATOM     39  C   LIG    1       22.020 -17.855   4.255  0.00  0.00    -0.000 C 
BRANCH  39  41
ATOM     40  C   LIG    1       19.662 -17.794   3.166  0.00  0.00    +0.004 C 
ATOM     41  C   LIG    1       20.874 -18.627   3.562  0.00  0.00    -0.003 C 
ENDBRANCH  39  41
ENDBRANCH  38  39
ENDBRANCH  37  38
ENDBRANCH  36  37
ENDBRANCH  35  36
ENDBRANCH  34  35
ENDBRANCH  33  34
ENDBRANCH  32  33
ENDBRANCH  31  32
ENDBRANCH  30  31
ENDBRANCH  29  30
ENDBRANCH  28  29
ENDBRANCH  27  28
ENDBRANCH  26  27
ENDBRANCH  25  26
ENDBRANCH  24  25
ENDBRANCH  23  24
ENDBRANCH  22  23
ENDBRANCH   1  22
TORSDOF 38
ENDMDL
MODEL 2
REMARK VINA RESULT:       7.7      1.478      5.642
REMARK  Name = *****
REMARK                            x       y       z     vdW  Elec       q    Type
REMARK                         _______ _______ _______ _____ _____    ______ ____
ROOT
ATOM      1  C   LIG    1       28.328 -18.208   4.636  0.00  0.00    +0.188 C 
ENDROOT
BRANCH   1   2
ATOM      2  O   LIG    1       28.097 -18.631   6.006  0.00  0.00    -0.375 OA
BRANCH   2   3
ATOM      3  C   LIG    1       28.900 -19.597   6.730  0.00  0.00    +0.188 C 
BRANCH   3   4
ATOM      4  C   LIG    1       28.289 -21.189   6.994  0.00  0.00    +0.188 C 
BRANCH   4   5
ATOM      5  O   LIG    1       26.927 -21.383   6.584  0.00  0.00    -0.375 OA
BRANCH   5   6
ATOM      6  C   LIG    1       25.720 -20.679   7.002  0.00  0.00    +0.188 C 
BRANCH   6   7
ATOM      7  C   LIG    1       24.526 -21.562   6.734  0.00  0.00    +0.188 C 
BRANCH   7   8
ATOM      8  O   LIG    1       23.322 -20.862   7.060  0.00  0.00    -0.375 OA
BRANCH   8   9
ATOM      9  C   LIG    1       22.749 -20.252   5.902  0.00  0.00    +0.188 C 
BRANCH   9  10
ATOM     10  C   LIG    1       22.439 -21.220   4.708  0.00  0.00    +0.188 C 
BRANCH  10  11
ATOM     11  O   LIG    1       21.044 -21.405   4.405  0.00  0.00    -0.375 OA
BRANCH  11  12
ATOM     12  C   LIG    1       20.145 -20.300   4.710  0.00  0.00    +0.188 C 
BRANCH  12  13
ATOM     13  C   LIG    1       19.658 -19.504   3.479  0.00  0.00    +0.188 C 
BRANCH  13  14
ATOM     14  O   LIG    1       20.242 -18.195   3.353  0.00  0.00    -0.375 OA
BRANCH  14  15
ATOM     15  C   LIG    1       21.250 -18.084   2.310  0.00  0.00    +0.188 C 
BRANCH  15  16
ATOM     16  C   LIG    1       22.672 -18.483   2.800  0.00  0.00    +0.188 C 
BRANCH  16  17
ATOM     17  O   LIG    1       23.384 -19.538   2.150  0.00  0.00    -0.375 OA
BRANCH  17  18
ATOM     18  C   LIG    1       24.797 -19.631   2.393  0.00  0.00    +0.187 C 
BRANCH  18  19
ATOM     19  C   LIG    1       25.011 -20.245   3.764  0.00  0.00    +0.184 C 
BRANCH  19  20
ATOM     20  O   LIG    1       26.212 -19.759   4.356  0.00  0.00    -0.393 OA
ATOM     21  H   LIG    1       26.907 -19.806   3.672  0.00  0.00    +0.209 HD
ENDBRANCH  19  20
ENDBRANCH  18  19
ENDBRANCH  17  18
ENDBRANCH  16  17
ENDBRANCH  15  16
ENDBRANCH  14  15
ENDBRANCH  13  14
ENDBRANCH  12  13
ENDBRANCH  11  12
ENDBRANCH  10  11
ENDBRANCH   9  10
ENDBRANCH   8   9
ENDBRANCH   7   8
ENDBRANCH   6   7
ENDBRANCH   5   6
ENDBRANCH   4   5
ENDBRANCH   3   4
ENDBRANCH   2   3
ENDBRANCH   1   2
BRANCH   1  22
ATOM     22  C   LIG    1       27.288 -17.251   4.029  0.00  0.00    +0.188 C 
BRANCH  22  23
ATOM     23  O   LIG    1       27.878 -15.954   3.735  0.00  0.00    -0.375 OA
BRANCH  23  24
ATOM     24  C   LIG    1       27.341 -15.385   2.546  0.00  0.00    +0.188 C 
BRANCH  24  25
ATOM     25  C   LIG    1       26.416 -14.112   2.784  0.00  0.00    +0.188 C 
BRANCH  25  26
ATOM     26  O   LIG    1       26.494 -12.954   1.898  0.00  0.00    -0.375 OA
BRANCH  26  27
ATOM     27  C   LIG    1       25.423 -11.963   1.814  0.00  0.00    +0.188 C 
BRANCH  27  28
ATOM     28  C   LIG    1       24.202 -12.428   2.545  0.00  0.00    +0.188 C 
BRANCH  28  29
ATOM     29  O   LIG    1       23.971 -13.804   2.435  0.00  0.00    -0.378 OA
BRANCH  29  30
ATOM     30  C   LIG    1       24.276 -14.611   3.576  0.00  0.00    +0.160 C 
BRANCH  30  31
ATOM     31  C   LIG    1       23.452 -15.908   3.745  0.00  0.00    +0.028 C 
BRANCH  31  32
ATOM     32  C   LIG    1       22.465 -15.902   4.934  0.00  0.00    +0.002 C 
BRANCH  32  33
ATOM     33  C   LIG    1       22.615 -14.667   5.852  0.00  0.00    +0.000 C 
BRANCH  33  34
ATOM     34  C   LIG    1       23.424 -13.467   5.277  0.00  0.00    -0.000 C 
BRANCH  34  35
ATOM     35  C   LIG    1       23.083 -12.086   5.854  0.00  0.00    -0.000 C 
BRANCH  35  36
ATOM     36  C   LIG    1       24.038 -11.448   6.899  0.00  0.00    -0.000 C 
BRANCH  36  37
ATOM     37  C   LIG    1       25.525 -11.876   6.943  0.00  0.00    -0.000 C 
BRANCH  37  38
ATOM     38  C   LIG    1       25.876 -13.119   6.095  0.00  0.00    -0.000 C 
BRANCH  38  39
ATOM     39  C   LIG    1       27.382 -13.273   5.792  0.00  0.00    -0.000 C 
BRANCH  39  41
ATOM     40  C   LIG    1       29.324 -12.685   4.171  0.00  0.00    +0.004 C 
ATOM     41  C   LIG    1       27.982 -12.285   4.766  0.00  0.00    -0.003 C 
ENDBRANCH  39  41
ENDBRANCH  38  39
ENDBRANCH  37  38
ENDBRANCH  36  37
ENDBRANCH  35  36
ENDBRANCH  34  35
ENDBRANCH  33  34
ENDBRANCH  32  33
ENDBRANCH  31  32
ENDBRANCH  30  31
ENDBRANCH  29  30
ENDBRANCH  28  29
ENDBRANCH  27  28
ENDBRANCH  26  27
ENDBRANCH  25  26
ENDBRANCH  24  25
ENDBRANCH  23  24
ENDBRANCH  22  23
ENDBRANCH   1  22
TORSDOF 38
ENDMDL
