MODEL 1
REMARK VINA RESULT:       8.8      0.000      0.000
REMARK  Name = *****
REMARK                            x       y       z     vdW  Elec       q    Type
REMARK                         _______ _______ _______ _____ _____    ______ ____
ROOT
ATOM      1  C   LIG    1       27.559 -12.887   2.840  0.00  0.00    +0.166 A 
ATOM      2  C   LIG    1       27.997 -13.855   3.763  0.00  0.00    +0.204 A 
ATOM      3  C   LIG    1       27.182 -14.997   4.034  0.00  0.00    +0.173 A 
ATOM      4  C   LIG    1       25.950 -15.186   3.338  0.00  0.00    +0.031 A 
ATOM      5  C   LIG    1       24.995 -16.332   3.565  0.00  0.00    -0.009 A 
ATOM      6  C   LIG    1       23.659 -16.127   4.158  0.00  0.00    -0.016 A 
ATOM      7  C   LIG    1       23.177 -14.671   4.324  0.00  0.00    +0.104 C 
ATOM      8  C   LIG    1       23.051 -13.923   2.965  0.00  0.00    +0.032 C 
ATOM      9  C   LIG    1       24.112 -14.221   1.895  0.00  0.00    +0.038 C 
ATOM     10  C   LIG    1       22.737 -17.084   4.381  0.00  0.00    +0.060 A 
ATOM     11  C   LIG    1       22.717 -18.552   4.176  0.00  0.00    +0.221 A 
ATOM     12  O   LIG    1       21.613 -19.092   4.138  0.00  0.00    -0.284 OA
ATOM     13  C   LIG    1       23.979 -19.340   4.079  0.00  0.00    +0.167 A 
ATOM     14  C   LIG    1       25.106 -18.833   3.573  0.00  0.00    +0.050 A 
ATOM     15  C   LIG    1       25.453 -17.513   3.104  0.00  0.00    +0.012 A 
ATOM     16  C   LIG    1       25.509 -14.167   2.465  0.00  0.00    -0.032 A 
ATOM     17  C   LIG    1       26.308 -13.039   2.228  0.00  0.00    +0.053 A 
ENDROOT
BRANCH   7  18
ATOM     18  N   LIG    1       23.989 -13.992   5.325  0.00  0.00    -0.309 N 
ATOM     19  H   LIG    1       24.149 -14.453   6.210  0.00  0.00    +0.149 HD
ATOM     20  C   LIG    1       24.254 -12.635   5.251  0.00  0.00    +0.210 C 
ATOM     21  O   LIG    1       23.854 -11.905   4.370  0.00  0.00    -0.276 OA
ATOM     22  C   LIG    1       25.108 -12.133   6.392  0.00  0.00    +0.109 C 
ENDBRANCH   7  18
BRANCH   1  24
ATOM     23  C   LIG    1       29.466 -11.447   3.029  0.00  0.00    +0.277 C 
ATOM     24  O   LIG    1       28.170 -11.703   2.504  0.00  0.00    -0.491 OA
ENDBRANCH   1  24
BRANCH   2  25
ATOM     25  O   LIG    1       29.144 -13.559   4.468  0.00  0.00    -0.488 OA
ATOM     26  C   LIG    1       29.073 -12.547   5.469  0.00  0.00    +0.277 C 
ENDBRANCH   2  25
BRANCH   3  27
ATOM     27  O   LIG    1       27.578 -15.713   5.142  0.00  0.00    -0.491 OA
ATOM     28  C   LIG    1       28.368 -16.877   5.011  0.00  0.00    +0.277 C 
ENDBRANCH   3  27
BRANCH  13  29
ATOM     29  O   LIG    1       24.069 -20.650   4.557  0.00  0.00    -0.491 OA
ATOM     30  C   LIG    1       24.187 -20.820   5.964  0.00  0.00    +0.277 C 
ENDBRANCH  13  29
TORSDOF 5
ENDMDL
