MODEL 1
REMARK VINA RESULT:      -5.8      0.000      0.000
REMARK  Name = *****
REMARK                            x       y       z     vdW  Elec       q    Type
REMARK                         _______ _______ _______ _____ _____    ______ ____
ROOT
ATOM      1  C   LIG    1       26.835 -15.318   3.309  0.00  0.00    +0.152 C 
ENDROOT
BRANCH   1   2
ATOM      2  C   LIG    1       26.948 -16.835   3.694  0.00  0.00    +0.034 C 
BRANCH   2   3
ATOM      3  C   LIG    1       25.742 -17.708   3.306  0.00  0.00    +0.006 C 
BRANCH   3   4
ATOM      4  C   LIG    1       25.868 -19.244   3.591  0.00  0.00    -0.011 C 
BRANCH   4   5
ATOM      5  C   LIG    1       26.709 -19.576   4.846  0.00  0.00    -0.000 C 
ATOM      6  C   LIG    1       26.077 -20.472   5.904  0.00  0.00    +0.004 C 
ENDBRANCH   4   5
BRANCH   4   7
ATOM      7  C   LIG    1       24.443 -19.870   3.569  0.00  0.00    +0.003 C 
BRANCH   7   8
ATOM      8  C   LIG    1       23.241 -18.977   3.930  0.00  0.00    -0.000 C 
BRANCH   8  10
ATOM      9  C   LIG    1       22.458 -20.905   5.453  0.00  0.00    +0.004 C 
ATOM     10  C   LIG    1       22.382 -19.422   5.117  0.00  0.00    -0.003 C 
ENDBRANCH   8  10
ENDBRANCH   7   8
ENDBRANCH   4   7
ENDBRANCH   3   4
ENDBRANCH   2   3
ENDBRANCH   1   2
BRANCH   1  11
ATOM     11  O   LIG    1       27.420 -14.513   4.342  0.00  0.00    -0.212 OA
BRANCH  11  12
ATOM     12  S   LIG    1       28.083 -13.065   3.996  0.00  0.00    +0.208 S 
ATOM     13  O   LIG    1       28.408 -12.374   5.206  0.00  0.00    -0.118 OA
ATOM     14  O   LIG    1       27.320 -12.411   2.935  0.00  0.00    -0.118 OA
BRANCH  12  15
ATOM     15  O   LIG    1       29.475 -13.445   3.279  0.00  0.00    -0.231 OA
ATOM     16  H   LIG    1       30.191 -13.175   3.885  0.00  0.00    +0.247 HD
ENDBRANCH  12  15
ENDBRANCH  11  12
ENDBRANCH   1  11
BRANCH   1  17
ATOM     17  C   LIG    1       25.344 -14.899   3.138  0.00  0.00    +0.037 C 
BRANCH  17  18
ATOM     18  C   LIG    1       24.529 -14.333   4.333  0.00  0.00    -0.015 C 
ATOM     19  C   LIG    1       23.240 -15.108   4.605  0.00  0.00    +0.007 C 
ATOM     20  C   LIG    1       24.225 -12.840   4.265  0.00  0.00    +0.007 C 
ENDBRANCH  17  18
ENDBRANCH   1  17
TORSDOF 12
ENDMDL
MODEL 2
REMARK VINA RESULT:      -5.3      0.577      1.333
REMARK  Name = *****
REMARK                            x       y       z     vdW  Elec       q    Type
REMARK                         _______ _______ _______ _____ _____    ______ ____
ROOT
ATOM      1  C   LIG    1       26.740 -15.483   3.283  0.00  0.00    +0.152 C 
ENDROOT
BRANCH   1   2
ATOM      2  C   LIG    1       26.865 -16.993   3.692  0.00  0.00    +0.034 C 
BRANCH   2   3
ATOM      3  C   LIG    1       25.617 -17.854   3.437  0.00  0.00    +0.006 C 
BRANCH   3   4
ATOM      4  C   LIG    1       25.742 -19.384   3.754  0.00  0.00    -0.011 C 
BRANCH   4   5
ATOM      5  C   LIG    1       26.221 -19.682   5.194  0.00  0.00    -0.000 C 
ATOM      6  C   LIG    1       27.696 -20.008   5.394  0.00  0.00    +0.004 C 
ENDBRANCH   4   5
BRANCH   4   7
ATOM      7  C   LIG    1       24.415 -20.085   3.342  0.00  0.00    +0.003 C 
BRANCH   7   8
ATOM      8  C   LIG    1       23.525 -20.682   4.447  0.00  0.00    -0.000 C 
BRANCH   8  10
ATOM      9  C   LIG    1       22.038 -18.576   4.380  0.00  0.00    +0.004 C 
ATOM     10  C   LIG    1       22.625 -19.707   5.212  0.00  0.00    -0.003 C 
ENDBRANCH   8  10
ENDBRANCH   7   8
ENDBRANCH   4   7
ENDBRANCH   3   4
ENDBRANCH   2   3
ENDBRANCH   1   2
BRANCH   1  11
ATOM     11  O   LIG    1       27.348 -14.659   4.287  0.00  0.00    -0.212 OA
BRANCH  11  12
ATOM     12  S   LIG    1       28.021 -13.228   3.894  0.00  0.00    +0.208 S 
ATOM     13  O   LIG    1       27.174 -12.523   2.980  0.00  0.00    -0.118 OA
ATOM     14  O   LIG    1       29.445 -13.407   3.618  0.00  0.00    -0.118 OA
BRANCH  12  15
ATOM     15  O   LIG    1       28.007 -12.407   5.280  0.00  0.00    -0.231 OA
ATOM     16  H   LIG    1       27.992 -11.458   5.050  0.00  0.00    +0.247 HD
ENDBRANCH  12  15
ENDBRANCH  11  12
ENDBRANCH   1  11
BRANCH   1  17
ATOM     17  C   LIG    1       25.244 -15.070   3.141  0.00  0.00    +0.037 C 
BRANCH  17  18
ATOM     18  C   LIG    1       24.470 -14.441   4.332  0.00  0.00    -0.015 C 
ATOM     19  C   LIG    1       23.179 -15.184   4.673  0.00  0.00    +0.007 C 
ATOM     20  C   LIG    1       24.184 -12.948   4.207  0.00  0.00    +0.007 C 
ENDBRANCH  17  18
ENDBRANCH   1  17
TORSDOF 12
ENDMDL
MODEL 3
REMARK VINA RESULT:      -5.3      3.412      6.053
REMARK  Name = *****
REMARK                            x       y       z     vdW  Elec       q    Type
REMARK                         _______ _______ _______ _____ _____    ______ ____
ROOT
ATOM      1  C   LIG    1       25.712 -19.041   4.375  0.00  0.00    +0.152 C 
ENDROOT
BRANCH   1   2
ATOM      2  C   LIG    1       25.930 -17.928   3.290  0.00  0.00    +0.034 C 
BRANCH   2   3
ATOM      3  C   LIG    1       26.964 -16.848   3.649  0.00  0.00    +0.006 C 
BRANCH   3   4
ATOM      4  C   LIG    1       26.434 -15.376   3.756  0.00  0.00    -0.011 C 
BRANCH   4   5
ATOM      5  C   LIG    1       27.264 -14.357   2.939  0.00  0.00    -0.000 C 
ATOM      6  C   LIG    1       28.233 -13.464   3.702  0.00  0.00    +0.004 C 
ENDBRANCH   4   5
BRANCH   4   7
ATOM      7  C   LIG    1       24.908 -15.377   3.453  0.00  0.00    +0.003 C 
BRANCH   7   8
ATOM      8  C   LIG    1       23.987 -14.490   4.311  0.00  0.00    -0.000 C 
BRANCH   8  10
ATOM      9  C   LIG    1       24.097 -12.313   2.932  0.00  0.00    +0.004 C 
ATOM     10  C   LIG    1       24.261 -12.983   4.289  0.00  0.00    -0.003 C 
ENDBRANCH   8  10
ENDBRANCH   7   8
ENDBRANCH   4   7
ENDBRANCH   3   4
ENDBRANCH   2   3
ENDBRANCH   1   2
BRANCH   1  11
ATOM     11  O   LIG    1       26.920 -19.796   4.541  0.00  0.00    -0.212 OA
BRANCH  11  12
ATOM     12  S   LIG    1       27.652 -19.889   5.993  0.00  0.00    +0.208 S 
ATOM     13  O   LIG    1       26.673 -20.048   7.025  0.00  0.00    -0.118 OA
ATOM     14  O   LIG    1       28.693 -18.867   6.091  0.00  0.00    -0.118 OA
BRANCH  12  15
ATOM     15  O   LIG    1       28.484 -21.266   5.914  0.00  0.00    -0.231 OA
ATOM     16  H   LIG    1       27.845 -21.994   6.034  0.00  0.00    +0.247 HD
ENDBRANCH  12  15
ENDBRANCH  11  12
ENDBRANCH   1  11
BRANCH   1  17
ATOM     17  C   LIG    1       24.573 -20.016   3.949  0.00  0.00    +0.037 C 
BRANCH  17  18
ATOM     18  C   LIG    1       23.159 -19.923   4.586  0.00  0.00    -0.015 C 
ATOM     19  C   LIG    1       22.489 -18.566   4.375  0.00  0.00    +0.007 C 
ATOM     20  C   LIG    1       23.083 -20.309   6.060  0.00  0.00    +0.007 C 
ENDBRANCH  17  18
ENDBRANCH   1  17
TORSDOF 12
ENDMDL
MODEL 4
REMARK VINA RESULT:      -4.9      2.208      2.998
REMARK  Name = *****
REMARK                            x       y       z     vdW  Elec       q    Type
REMARK                         _______ _______ _______ _____ _____    ______ ____
ROOT
ATOM      1  C   LIG    1       25.844 -15.101   3.608  0.00  0.00    +0.152 C 
ENDROOT
BRANCH   1   2
ATOM      2  C   LIG    1       25.302 -16.506   3.169  0.00  0.00    +0.034 C 
BRANCH   2   3
ATOM      3  C   LIG    1       26.176 -17.707   3.569  0.00  0.00    +0.006 C 
BRANCH   3   4
ATOM      4  C   LIG    1       25.477 -19.110   3.585  0.00  0.00    -0.011 C 
BRANCH   4   5
ATOM      5  C   LIG    1       26.099 -20.102   4.596  0.00  0.00    -0.000 C 
ATOM      6  C   LIG    1       27.301 -19.628   5.402  0.00  0.00    +0.004 C 
ENDBRANCH   4   5
BRANCH   4   7
ATOM      7  C   LIG    1       23.943 -18.897   3.730  0.00  0.00    +0.003 C 
BRANCH   7   8
ATOM      8  C   LIG    1       23.098 -20.022   4.356  0.00  0.00    -0.000 C 
BRANCH   8  10
ATOM      9  C   LIG    1       23.352 -20.761   6.813  0.00  0.00    +0.004 C 
ATOM     10  C   LIG    1       22.671 -19.836   5.815  0.00  0.00    -0.003 C 
ENDBRANCH   8  10
ENDBRANCH   7   8
ENDBRANCH   4   7
ENDBRANCH   3   4
ENDBRANCH   2   3
ENDBRANCH   1   2
BRANCH   1  11
ATOM     11  O   LIG    1       25.561 -14.134   2.587  0.00  0.00    -0.212 OA
BRANCH  11  12
ATOM     12  S   LIG    1       24.493 -12.932   2.851  0.00  0.00    +0.208 S 
ATOM     13  O   LIG    1       24.594 -11.952   1.812  0.00  0.00    -0.118 OA
ATOM     14  O   LIG    1       24.519 -12.544   4.259  0.00  0.00    -0.118 OA
BRANCH  12  15
ATOM     15  O   LIG    1       23.061 -13.650   2.685  0.00  0.00    -0.231 OA
ATOM     16  H   LIG    1       23.234 -14.582   2.451  0.00  0.00    +0.247 HD
ENDBRANCH  12  15
ENDBRANCH  11  12
ENDBRANCH   1  11
BRANCH   1  17
ATOM     17  C   LIG    1       27.386 -15.147   3.833  0.00  0.00    +0.037 C 
BRANCH  17  18
ATOM     18  C   LIG    1       28.121 -14.001   4.582  0.00  0.00    -0.015 C 
ATOM     19  C   LIG    1       27.274 -13.356   5.679  0.00  0.00    +0.007 C 
ATOM     20  C   LIG    1       28.716 -12.917   3.689  0.00  0.00    +0.007 C 
ENDBRANCH  17  18
ENDBRANCH   1  17
TORSDOF 12
ENDMDL
MODEL 5
REMARK VINA RESULT:      -4.9      3.390      6.272
REMARK  Name = *****
REMARK                            x       y       z     vdW  Elec       q    Type
REMARK                         _______ _______ _______ _____ _____    ______ ____
ROOT
ATOM      1  C   LIG    1       25.719 -19.115   4.386  0.00  0.00    +0.152 C 
ENDROOT
BRANCH   1   2
ATOM      2  C   LIG    1       26.095 -17.961   3.391  0.00  0.00    +0.034 C 
BRANCH   2   3
ATOM      3  C   LIG    1       25.250 -16.681   3.512  0.00  0.00    +0.006 C 
BRANCH   3   4
ATOM      4  C   LIG    1       25.914 -15.351   3.014  0.00  0.00    -0.011 C 
BRANCH   4   5
ATOM      5  C   LIG    1       24.987 -14.117   3.118  0.00  0.00    -0.000 C 
ATOM      6  C   LIG    1       23.902 -14.138   4.186  0.00  0.00    +0.004 C 
ENDBRANCH   4   5
BRANCH   4   7
ATOM      7  C   LIG    1       27.297 -15.198   3.711  0.00  0.00    +0.003 C 
BRANCH   7   8
ATOM      8  C   LIG    1       28.033 -13.850   3.599  0.00  0.00    -0.000 C 
BRANCH   8  10
ATOM      9  C   LIG    1       27.050 -13.341   5.928  0.00  0.00    +0.004 C 
ATOM     10  C   LIG    1       28.063 -12.972   4.853  0.00  0.00    -0.003 C 
ENDBRANCH   8  10
ENDBRANCH   7   8
ENDBRANCH   4   7
ENDBRANCH   3   4
ENDBRANCH   2   3
ENDBRANCH   1   2
BRANCH   1  11
ATOM     11  O   LIG    1       26.841 -19.991   4.555  0.00  0.00    -0.212 OA
BRANCH  11  12
ATOM     12  S   LIG    1       27.804 -19.869   5.863  0.00  0.00    +0.208 S 
ATOM     13  O   LIG    1       27.028 -20.013   7.057  0.00  0.00    -0.118 OA
ATOM     14  O   LIG    1       28.731 -18.752   5.696  0.00  0.00    -0.118 OA
BRANCH  12  15
ATOM     15  O   LIG    1       28.755 -21.165   5.759  0.00  0.00    -0.231 OA
ATOM     16  H   LIG    1       29.663 -20.871   5.964  0.00  0.00    +0.247 HD
ENDBRANCH  12  15
ENDBRANCH  11  12
ENDBRANCH   1  11
BRANCH   1  17
ATOM     17  C   LIG    1       24.518 -19.946   3.841  0.00  0.00    +0.037 C 
BRANCH  17  18
ATOM     18  C   LIG    1       23.167 -19.999   4.606  0.00  0.00    -0.015 C 
ATOM     19  C   LIG    1       22.368 -18.700   4.511  0.00  0.00    +0.007 C 
ATOM     20  C   LIG    1       23.262 -20.437   6.064  0.00  0.00    +0.007 C 
ENDBRANCH  17  18
ENDBRANCH   1  17
TORSDOF 12
ENDMDL
MODEL 6
REMARK VINA RESULT:      -4.7      4.658      7.259
REMARK  Name = *****
REMARK                            x       y       z     vdW  Elec       q    Type
REMARK                         _______ _______ _______ _____ _____    ______ ____
ROOT
ATOM      1  C   LIG    1       25.125 -20.026   3.961  0.00  0.00    +0.152 C 
ENDROOT
BRANCH   1   2
ATOM      2  C   LIG    1       24.870 -18.585   3.395  0.00  0.00    +0.034 C 
BRANCH   2   3
ATOM      3  C   LIG    1       26.095 -17.655   3.375  0.00  0.00    +0.006 C 
BRANCH   3   4
ATOM      4  C   LIG    1       25.807 -16.117   3.276  0.00  0.00    -0.011 C 
BRANCH   4   5
ATOM      5  C   LIG    1       24.533 -15.674   4.032  0.00  0.00    -0.000 C 
ATOM      6  C   LIG    1       24.074 -14.232   3.859  0.00  0.00    +0.004 C 
ENDBRANCH   4   5
BRANCH   4   7
ATOM      7  C   LIG    1       27.103 -15.346   3.659  0.00  0.00    +0.003 C 
BRANCH   7   8
ATOM      8  C   LIG    1       27.449 -14.059   2.888  0.00  0.00    -0.000 C 
BRANCH   8  10
ATOM      9  C   LIG    1       27.937 -12.927   5.153  0.00  0.00    +0.004 C 
ATOM     10  C   LIG    1       28.213 -12.976   3.657  0.00  0.00    -0.003 C 
ENDBRANCH   8  10
ENDBRANCH   7   8
ENDBRANCH   4   7
ENDBRANCH   3   4
ENDBRANCH   2   3
ENDBRANCH   1   2
BRANCH   1  11
ATOM     11  O   LIG    1       23.890 -20.755   4.000  0.00  0.00    -0.212 OA
BRANCH  11  12
ATOM     12  S   LIG    1       22.833 -20.540   5.221  0.00  0.00    +0.208 S 
ATOM     13  O   LIG    1       22.349 -19.193   5.216  0.00  0.00    -0.118 OA
ATOM     14  O   LIG    1       23.353 -21.150   6.442  0.00  0.00    -0.118 OA
BRANCH  12  15
ATOM     15  O   LIG    1       21.594 -21.489   4.824  0.00  0.00    -0.231 OA
ATOM     16  H   LIG    1       21.256 -21.174   3.964  0.00  0.00    +0.247 HD
ENDBRANCH  12  15
ENDBRANCH  11  12
ENDBRANCH   1  11
BRANCH   1  17
ATOM     17  C   LIG    1       25.707 -19.959   5.405  0.00  0.00    +0.037 C 
BRANCH  17  18
ATOM     18  C   LIG    1       27.161 -20.417   5.706  0.00  0.00    -0.015 C 
ATOM     19  C   LIG    1       27.309 -21.105   7.062  0.00  0.00    +0.007 C 
ATOM     20  C   LIG    1       28.226 -19.335   5.560  0.00  0.00    +0.007 C 
ENDBRANCH  17  18
ENDBRANCH   1  17
TORSDOF 12
ENDMDL
MODEL 7
REMARK VINA RESULT:      -4.5      4.517      6.867
REMARK  Name = *****
REMARK                            x       y       z     vdW  Elec       q    Type
REMARK                         _______ _______ _______ _____ _____    ______ ____
ROOT
ATOM      1  C   LIG    1       25.199 -19.709   3.984  0.00  0.00    +0.152 C 
ENDROOT
BRANCH   1   2
ATOM      2  C   LIG    1       24.856 -18.222   3.619  0.00  0.00    +0.034 C 
BRANCH   2   3
ATOM      3  C   LIG    1       26.060 -17.332   3.266  0.00  0.00    +0.006 C 
BRANCH   3   4
ATOM      4  C   LIG    1       25.999 -15.842   3.751  0.00  0.00    -0.011 C 
BRANCH   4   5
ATOM      5  C   LIG    1       27.119 -14.952   3.164  0.00  0.00    -0.000 C 
ATOM      6  C   LIG    1       27.732 -13.897   4.075  0.00  0.00    +0.004 C 
ENDBRANCH   4   5
BRANCH   4   7
ATOM      7  C   LIG    1       24.553 -15.311   3.533  0.00  0.00    +0.003 C 
BRANCH   7   8
ATOM      8  C   LIG    1       24.016 -14.226   4.484  0.00  0.00    -0.000 C 
BRANCH   8  10
ATOM      9  C   LIG    1       24.346 -12.581   2.525  0.00  0.00    +0.004 C 
ATOM     10  C   LIG    1       24.155 -12.772   4.024  0.00  0.00    -0.003 C 
ENDBRANCH   8  10
ENDBRANCH   7   8
ENDBRANCH   4   7
ENDBRANCH   3   4
ENDBRANCH   2   3
ENDBRANCH   1   2
BRANCH   1  11
ATOM     11  O   LIG    1       24.002 -20.499   3.963  0.00  0.00    -0.212 OA
BRANCH  11  12
ATOM     12  S   LIG    1       22.903 -20.380   5.161  0.00  0.00    +0.208 S 
ATOM     13  O   LIG    1       23.551 -20.494   6.432  0.00  0.00    -0.118 OA
ATOM     14  O   LIG    1       21.728 -21.186   4.838  0.00  0.00    -0.118 OA
BRANCH  12  15
ATOM     15  O   LIG    1       22.367 -18.866   5.038  0.00  0.00    -0.231 OA
ATOM     16  H   LIG    1       22.026 -18.612   5.916  0.00  0.00    +0.247 HD
ENDBRANCH  12  15
ENDBRANCH  11  12
ENDBRANCH   1  11
BRANCH   1  17
ATOM     17  C   LIG    1       25.827 -19.799   5.408  0.00  0.00    +0.037 C 
BRANCH  17  18
ATOM     18  C   LIG    1       27.288 -20.289   5.609  0.00  0.00    -0.015 C 
ATOM     19  C   LIG    1       27.488 -21.074   6.905  0.00  0.00    +0.007 C 
ATOM     20  C   LIG    1       28.358 -19.208   5.494  0.00  0.00    +0.007 C 
ENDBRANCH  17  18
ENDBRANCH   1  17
TORSDOF 12
ENDMDL
MODEL 8
REMARK VINA RESULT:      -4.1      1.202      1.706
REMARK  Name = *****
REMARK                            x       y       z     vdW  Elec       q    Type
REMARK                         _______ _______ _______ _____ _____    ______ ____
ROOT
ATOM      1  C   LIG    1       25.709 -15.427   2.834  0.00  0.00    +0.152 C 
ENDROOT
BRANCH   1   2
ATOM      2  C   LIG    1       26.046 -16.869   3.351  0.00  0.00    +0.034 C 
BRANCH   2   3
ATOM      3  C   LIG    1       24.834 -17.783   3.602  0.00  0.00    +0.006 C 
BRANCH   3   4
ATOM      4  C   LIG    1       25.118 -19.324   3.667  0.00  0.00    -0.011 C 
BRANCH   4   5
ATOM      5  C   LIG    1       26.313 -19.697   4.576  0.00  0.00    -0.000 C 
ATOM      6  C   LIG    1       26.011 -20.448   5.866  0.00  0.00    +0.004 C 
ENDBRANCH   4   5
BRANCH   4   7
ATOM      7  C   LIG    1       23.786 -20.059   3.994  0.00  0.00    +0.003 C 
BRANCH   7   8
ATOM      8  C   LIG    1       22.754 -19.350   4.890  0.00  0.00    -0.000 C 
BRANCH   8  10
ATOM      9  C   LIG    1       20.662 -18.685   3.536  0.00  0.00    +0.004 C 
ATOM     10  C   LIG    1       21.931 -18.231   4.244  0.00  0.00    -0.003 C 
ENDBRANCH   8  10
ENDBRANCH   7   8
ENDBRANCH   4   7
ENDBRANCH   3   4
ENDBRANCH   2   3
ENDBRANCH   1   2
BRANCH   1  11
ATOM     11  O   LIG    1       26.919 -14.671   2.688  0.00  0.00    -0.212 OA
BRANCH  11  12
ATOM     12  S   LIG    1       27.828 -14.293   3.986  0.00  0.00    +0.208 S 
ATOM     13  O   LIG    1       28.265 -15.488   4.642  0.00  0.00    -0.118 OA
ATOM     14  O   LIG    1       27.197 -13.208   4.735  0.00  0.00    -0.118 OA
BRANCH  12  15
ATOM     15  O   LIG    1       29.134 -13.599   3.348  0.00  0.00    -0.231 OA
ATOM     16  H   LIG    1       29.814 -14.294   3.263  0.00  0.00    +0.247 HD
ENDBRANCH  12  15
ENDBRANCH  11  12
ENDBRANCH   1  11
BRANCH   1  17
ATOM     17  C   LIG    1       24.778 -14.682   3.838  0.00  0.00    +0.037 C 
BRANCH  17  18
ATOM     18  C   LIG    1       23.983 -13.418   3.407  0.00  0.00    -0.015 C 
ATOM     19  C   LIG    1       24.456 -12.832   2.077  0.00  0.00    +0.007 C 
ATOM     20  C   LIG    1       23.900 -12.313   4.455  0.00  0.00    +0.007 C 
ENDBRANCH  17  18
ENDBRANCH   1  17
TORSDOF 12
ENDMDL
MODEL 9
REMARK VINA RESULT:      -3.9      4.300      6.532
REMARK  Name = *****
REMARK                            x       y       z     vdW  Elec       q    Type
REMARK                         _______ _______ _______ _____ _____    ______ ____
ROOT
ATOM      1  C   LIG    1       26.102 -19.187   3.686  0.00  0.00    +0.152 C 
ENDROOT
BRANCH   1   2
ATOM      2  C   LIG    1       25.677 -17.689   3.489  0.00  0.00    +0.034 C 
BRANCH   2   3
ATOM      3  C   LIG    1       26.834 -16.691   3.310  0.00  0.00    +0.006 C 
BRANCH   3   4
ATOM      4  C   LIG    1       26.570 -15.219   3.780  0.00  0.00    -0.011 C 
BRANCH   4   5
ATOM      5  C   LIG    1       27.807 -14.537   4.410  0.00  0.00    -0.000 C 
ATOM      6  C   LIG    1       28.392 -13.331   3.687  0.00  0.00    +0.004 C 
ENDBRANCH   4   5
BRANCH   4   7
ATOM      7  C   LIG    1       25.910 -14.436   2.608  0.00  0.00    +0.003 C 
BRANCH   7   8
ATOM      8  C   LIG    1       24.800 -13.420   2.934  0.00  0.00    -0.000 C 
BRANCH   8  10
ATOM      9  C   LIG    1       23.304 -14.932   4.393  0.00  0.00    +0.004 C 
ATOM     10  C   LIG    1       24.052 -13.613   4.257  0.00  0.00    -0.003 C 
ENDBRANCH   8  10
ENDBRANCH   7   8
ENDBRANCH   4   7
ENDBRANCH   3   4
ENDBRANCH   2   3
ENDBRANCH   1   2
BRANCH   1  11
ATOM     11  O   LIG    1       24.983 -20.045   3.424  0.00  0.00    -0.212 OA
BRANCH  11  12
ATOM     12  S   LIG    1       23.711 -20.089   4.441  0.00  0.00    +0.208 S 
ATOM     13  O   LIG    1       22.938 -21.271   4.205  0.00  0.00    -0.118 OA
ATOM     14  O   LIG    1       23.079 -18.773   4.503  0.00  0.00    -0.118 OA
BRANCH  12  15
ATOM     15  O   LIG    1       24.389 -20.250   5.893  0.00  0.00    -0.231 OA
ATOM     16  H   LIG    1       25.351 -20.139   5.773  0.00  0.00    +0.247 HD
ENDBRANCH  12  15
ENDBRANCH  11  12
ENDBRANCH   1  11
BRANCH   1  17
ATOM     17  C   LIG    1       26.588 -19.438   5.145  0.00  0.00    +0.037 C 
BRANCH  17  18
ATOM     18  C   LIG    1       28.070 -19.795   5.446  0.00  0.00    -0.015 C 
ATOM     19  C   LIG    1       28.239 -20.676   6.684  0.00  0.00    +0.007 C 
ATOM     20  C   LIG    1       29.022 -18.606   5.529  0.00  0.00    +0.007 C 
ENDBRANCH  17  18
ENDBRANCH   1  17
TORSDOF 12
ENDMDL
