MODEL 1
REMARK VINA RESULT:      -5.7      0.000      0.000
REMARK  Name = *****
REMARK                            x       y       z     vdW  Elec       q    Type
REMARK                         _______ _______ _______ _____ _____    ______ ____
ROOT
ATOM      1  C   LIG    1       22.020 -17.850   4.346  0.00  0.00    -0.000 C 
ENDROOT
BRANCH   1   2
ATOM      2  C   LIG    1       22.386 -16.498   4.995  0.00  0.00    -0.000 C 
BRANCH   2   3
ATOM      3  C   LIG    1       23.174 -15.667   3.993  0.00  0.00    -0.000 C 
BRANCH   3   4
ATOM      4  C   LIG    1       23.851 -14.395   4.497  0.00  0.00    +0.000 C 
BRANCH   4   5
ATOM      5  C   LIG    1       24.351 -13.361   3.488  0.00  0.00    +0.000 C 
BRANCH   5   6
ATOM      6  C   LIG    1       25.633 -13.660   2.686  0.00  0.00    +0.011 C 
BRANCH   6   7
ATOM      7  C   LIG    1       26.785 -14.347   3.431  0.00  0.00    +0.120 C 
BRANCH   7   8
ATOM      8  C   LIG    1       27.711 -13.477   4.268  0.00  0.00    +0.305 C 
ATOM      9  O   LIG    1       28.804 -13.032   3.847  0.00  0.00    -0.251 OA
BRANCH   8  10
ATOM     10  O   LIG    1       27.217 -13.153   5.468  0.00  0.00    -0.481 OA
ATOM     11  H   LIG    1       26.768 -13.901   5.937  0.00  0.00    +0.295 HD
ENDBRANCH   8  10
ENDBRANCH   7   8
ENDBRANCH   6   7
ENDBRANCH   5   6
ENDBRANCH   4   5
ENDBRANCH   3   4
ENDBRANCH   2   3
ENDBRANCH   1   2
BRANCH   1  12
ATOM     12  C   LIG    1       22.431 -18.954   5.289  0.00  0.00    -0.000 C 
BRANCH  12  13
ATOM     13  C   LIG    1       22.070 -20.375   4.875  0.00  0.00    -0.000 C 
BRANCH  13  14
ATOM     14  C   LIG    1       22.601 -21.474   5.819  0.00  0.00    -0.000 C 
BRANCH  14  15
ATOM     15  C   LIG    1       23.670 -21.060   6.853  0.00  0.00    -0.000 C 
BRANCH  15  16
ATOM     16  C   LIG    1       25.094 -21.468   6.482  0.00  0.00    -0.000 C 
BRANCH  16  17
ATOM     17  C   LIG    1       26.177 -20.431   6.691  0.00  0.00    -0.000 C 
BRANCH  17  18
ATOM     18  C   LIG    1       26.681 -19.935   5.319  0.00  0.00    -0.000 C 
BRANCH  18  19
ATOM     19  C   LIG    1       25.696 -20.314   4.221  0.00  0.00    -0.000 C 
BRANCH  19  21
ATOM     20  C   LIG    1       26.073 -17.903   3.410  0.00  0.00    +0.004 C 
ATOM     21  C   LIG    1       25.184 -19.139   3.387  0.00  0.00    -0.003 C 
ENDBRANCH  19  21
ENDBRANCH  18  19
ENDBRANCH  17  18
ENDBRANCH  16  17
ENDBRANCH  15  16
ENDBRANCH  14  15
ENDBRANCH  13  14
ENDBRANCH  12  13
ENDBRANCH   1  12
TORSDOF 17
ENDMDL
MODEL 2
REMARK VINA RESULT:      -5.5      0.853      2.330
REMARK  Name = *****
REMARK                            x       y       z     vdW  Elec       q    Type
REMARK                         _______ _______ _______ _____ _____    ______ ____
ROOT
ATOM      1  C   LIG    1       23.714 -15.181   4.071  0.00  0.00    -0.000 C 
ENDROOT
BRANCH   1   2
ATOM      2  C   LIG    1       23.964 -13.813   4.741  0.00  0.00    -0.000 C 
BRANCH   2   3
ATOM      3  C   LIG    1       23.871 -12.722   3.684  0.00  0.00    -0.000 C 
BRANCH   3   4
ATOM      4  C   LIG    1       24.558 -12.967   2.343  0.00  0.00    +0.000 C 
BRANCH   4   5
ATOM      5  C   LIG    1       26.086 -12.968   2.273  0.00  0.00    +0.000 C 
BRANCH   5   6
ATOM      6  C   LIG    1       26.841 -14.297   2.469  0.00  0.00    +0.011 C 
BRANCH   6   7
ATOM      7  C   LIG    1       27.508 -14.533   3.831  0.00  0.00    +0.120 C 
BRANCH   7   8
ATOM      8  C   LIG    1       27.962 -13.315   4.621  0.00  0.00    +0.305 C 
ATOM      9  O   LIG    1       28.897 -12.566   4.255  0.00  0.00    -0.251 OA
BRANCH   8  10
ATOM     10  O   LIG    1       27.217 -13.059   5.702  0.00  0.00    -0.481 OA
ATOM     11  H   LIG    1       27.261 -12.120   6.013  0.00  0.00    +0.295 HD
ENDBRANCH   8  10
ENDBRANCH   7   8
ENDBRANCH   6   7
ENDBRANCH   5   6
ENDBRANCH   4   5
ENDBRANCH   3   4
ENDBRANCH   2   3
ENDBRANCH   1   2
BRANCH   1  12
ATOM     12  C   LIG    1       22.469 -15.784   4.677  0.00  0.00    -0.000 C 
BRANCH  12  13
ATOM     13  C   LIG    1       22.555 -17.246   5.096  0.00  0.00    -0.000 C 
BRANCH  13  14
ATOM     14  C   LIG    1       21.865 -18.232   4.130  0.00  0.00    -0.000 C 
BRANCH  14  15
ATOM     15  C   LIG    1       21.880 -19.727   4.518  0.00  0.00    -0.000 C 
BRANCH  15  16
ATOM     16  C   LIG    1       22.757 -20.054   5.724  0.00  0.00    -0.000 C 
BRANCH  16  17
ATOM     17  C   LIG    1       23.855 -21.074   5.512  0.00  0.00    -0.000 C 
BRANCH  17  18
ATOM     18  C   LIG    1       25.184 -20.515   6.064  0.00  0.00    -0.000 C 
BRANCH  18  19
ATOM     19  C   LIG    1       26.092 -20.076   4.923  0.00  0.00    -0.000 C 
BRANCH  19  21
ATOM     20  C   LIG    1       25.735 -18.092   3.327  0.00  0.00    +0.004 C 
ATOM     21  C   LIG    1       25.362 -19.520   3.700  0.00  0.00    -0.003 C 
ENDBRANCH  19  21
ENDBRANCH  18  19
ENDBRANCH  17  18
ENDBRANCH  16  17
ENDBRANCH  15  16
ENDBRANCH  14  15
ENDBRANCH  13  14
ENDBRANCH  12  13
ENDBRANCH   1  12
TORSDOF 17
ENDMDL
MODEL 3
REMARK VINA RESULT:      -5.3      1.438      2.217
REMARK  Name = *****
REMARK                            x       y       z     vdW  Elec       q    Type
REMARK                         _______ _______ _______ _____ _____    ______ ____
ROOT
ATOM      1  C   LIG    1       22.479 -16.476   5.077  0.00  0.00    -0.000 C 
ENDROOT
BRANCH   1   2
ATOM      2  C   LIG    1       23.037 -15.519   4.003  0.00  0.00    -0.000 C 
BRANCH   2   3
ATOM      3  C   LIG    1       23.971 -14.519   4.669  0.00  0.00    -0.000 C 
BRANCH   3   4
ATOM      4  C   LIG    1       24.002 -13.096   4.117  0.00  0.00    +0.000 C 
BRANCH   4   5
ATOM      5  C   LIG    1       24.406 -12.866   2.660  0.00  0.00    +0.000 C 
BRANCH   5   6
ATOM      6  C   LIG    1       25.800 -13.328   2.191  0.00  0.00    +0.011 C 
BRANCH   6   7
ATOM      7  C   LIG    1       27.016 -12.778   2.948  0.00  0.00    +0.120 C 
BRANCH   7   8
ATOM      8  C   LIG    1       27.996 -13.779   3.542  0.00  0.00    +0.305 C 
ATOM      9  O   LIG    1       27.647 -14.877   4.033  0.00  0.00    -0.251 OA
BRANCH   8  10
ATOM     10  O   LIG    1       29.280 -13.425   3.414  0.00  0.00    -0.481 OA
ATOM     11  H   LIG    1       29.745 -13.266   4.274  0.00  0.00    +0.295 HD
ENDBRANCH   8  10
ENDBRANCH   7   8
ENDBRANCH   6   7
ENDBRANCH   5   6
ENDBRANCH   4   5
ENDBRANCH   3   4
ENDBRANCH   2   3
ENDBRANCH   1   2
BRANCH   1  12
ATOM     12  C   LIG    1       22.060 -17.758   4.398  0.00  0.00    -0.000 C 
BRANCH  12  13
ATOM     13  C   LIG    1       23.044 -18.918   4.466  0.00  0.00    -0.000 C 
BRANCH  13  14
ATOM     14  C   LIG    1       22.765 -19.931   5.596  0.00  0.00    -0.000 C 
BRANCH  14  15
ATOM     15  C   LIG    1       23.800 -21.059   5.803  0.00  0.00    -0.000 C 
BRANCH  15  16
ATOM     16  C   LIG    1       24.654 -20.905   7.059  0.00  0.00    -0.000 C 
BRANCH  16  17
ATOM     17  C   LIG    1       26.053 -21.481   7.007  0.00  0.00    -0.000 C 
BRANCH  17  18
ATOM     18  C   LIG    1       27.027 -20.407   6.478  0.00  0.00    -0.000 C 
BRANCH  18  19
ATOM     19  C   LIG    1       28.419 -20.616   7.060  0.00  0.00    -0.000 C 
BRANCH  19  21
ATOM     20  C   LIG    1       28.995 -18.643   5.516  0.00  0.00    +0.004 C 
ATOM     21  C   LIG    1       29.461 -19.591   6.612  0.00  0.00    -0.003 C 
ENDBRANCH  19  21
ENDBRANCH  18  19
ENDBRANCH  17  18
ENDBRANCH  16  17
ENDBRANCH  15  16
ENDBRANCH  14  15
ENDBRANCH  13  14
ENDBRANCH  12  13
ENDBRANCH   1  12
TORSDOF 17
ENDMDL
MODEL 4
REMARK VINA RESULT:      -5.2      2.416      6.497
REMARK  Name = *****
REMARK                            x       y       z     vdW  Elec       q    Type
REMARK                         _______ _______ _______ _____ _____    ______ ____
ROOT
ATOM      1  C   LIG    1       22.208 -18.089   3.872  0.00  0.00    -0.000 C 
ENDROOT
BRANCH   1   2
ATOM      2  C   LIG    1       22.986 -19.389   4.166  0.00  0.00    -0.000 C 
BRANCH   2   3
ATOM      3  C   LIG    1       22.773 -19.774   5.623  0.00  0.00    -0.000 C 
BRANCH   3   4
ATOM      4  C   LIG    1       23.393 -21.080   6.114  0.00  0.00    +0.000 C 
BRANCH   4   5
ATOM      5  C   LIG    1       24.592 -21.031   7.062  0.00  0.00    +0.000 C 
BRANCH   5   6
ATOM      6  C   LIG    1       25.991 -21.375   6.513  0.00  0.00    +0.011 C 
BRANCH   6   7
ATOM      7  C   LIG    1       26.682 -20.322   5.636  0.00  0.00    +0.120 C 
BRANCH   7   8
ATOM      8  C   LIG    1       28.149 -20.022   5.906  0.00  0.00    +0.305 C 
ATOM      9  O   LIG    1       28.691 -18.928   5.628  0.00  0.00    -0.251 OA
BRANCH   8  10
ATOM     10  O   LIG    1       28.794 -21.001   6.550  0.00  0.00    -0.481 OA
ATOM     11  H   LIG    1       29.596 -21.339   6.077  0.00  0.00    +0.295 HD
ENDBRANCH   8  10
ENDBRANCH   7   8
ENDBRANCH   6   7
ENDBRANCH   5   6
ENDBRANCH   4   5
ENDBRANCH   3   4
ENDBRANCH   2   3
ENDBRANCH   1   2
BRANCH   1  12
ATOM     12  C   LIG    1       22.353 -17.171   5.062  0.00  0.00    -0.000 C 
BRANCH  12  13
ATOM     13  C   LIG    1       22.384 -15.677   4.770  0.00  0.00    -0.000 C 
BRANCH  13  14
ATOM     14  C   LIG    1       23.771 -15.127   4.377  0.00  0.00    -0.000 C 
BRANCH  14  15
ATOM     15  C   LIG    1       23.881 -13.610   4.114  0.00  0.00    -0.000 C 
BRANCH  15  16
ATOM     16  C   LIG    1       24.308 -13.247   2.694  0.00  0.00    -0.000 C 
BRANCH  16  17
ATOM     17  C   LIG    1       25.783 -12.991   2.470  0.00  0.00    -0.000 C 
BRANCH  17  18
ATOM     18  C   LIG    1       26.518 -14.340   2.319  0.00  0.00    -0.000 C 
BRANCH  18  19
ATOM     19  C   LIG    1       27.391 -14.612   3.537  0.00  0.00    -0.000 C 
BRANCH  19  21
ATOM     20  C   LIG    1       27.215 -13.430   5.814  0.00  0.00    +0.004 C 
ATOM     21  C   LIG    1       27.719 -13.377   4.378  0.00  0.00    -0.003 C 
ENDBRANCH  19  21
ENDBRANCH  18  19
ENDBRANCH  17  18
ENDBRANCH  16  17
ENDBRANCH  15  16
ENDBRANCH  14  15
ENDBRANCH  13  14
ENDBRANCH  12  13
ENDBRANCH   1  12
TORSDOF 17
ENDMDL
MODEL 5
REMARK VINA RESULT:      -5.2      1.396      2.880
REMARK  Name = *****
REMARK                            x       y       z     vdW  Elec       q    Type
REMARK                         _______ _______ _______ _____ _____    ______ ____
ROOT
ATOM      1  C   LIG    1       23.723 -15.487   4.065  0.00  0.00    -0.000 C 
ENDROOT
BRANCH   1   2
ATOM      2  C   LIG    1       24.293 -14.163   4.617  0.00  0.00    -0.000 C 
BRANCH   2   3
ATOM      3  C   LIG    1       24.099 -13.070   3.576  0.00  0.00    -0.000 C 
BRANCH   3   4
ATOM      4  C   LIG    1       25.278 -12.735   2.666  0.00  0.00    +0.000 C 
BRANCH   4   5
ATOM      5  C   LIG    1       26.167 -13.866   2.144  0.00  0.00    +0.000 C 
BRANCH   5   6
ATOM      6  C   LIG    1       27.325 -14.371   3.026  0.00  0.00    +0.011 C 
BRANCH   6   7
ATOM      7  C   LIG    1       28.263 -13.317   3.629  0.00  0.00    +0.120 C 
BRANCH   7   8
ATOM      8  C   LIG    1       28.038 -12.911   5.078  0.00  0.00    +0.305 C 
ATOM      9  O   LIG    1       27.197 -13.461   5.825  0.00  0.00    -0.251 OA
BRANCH   8  10
ATOM     10  O   LIG    1       28.882 -11.969   5.517  0.00  0.00    -0.481 OA
ATOM     11  H   LIG    1       28.576 -11.497   6.331  0.00  0.00    +0.295 HD
ENDBRANCH   8  10
ENDBRANCH   7   8
ENDBRANCH   6   7
ENDBRANCH   5   6
ENDBRANCH   4   5
ENDBRANCH   3   4
ENDBRANCH   2   3
ENDBRANCH   1   2
BRANCH   1  12
ATOM     12  C   LIG    1       22.439 -15.792   4.797  0.00  0.00    -0.000 C 
BRANCH  12  13
ATOM     13  C   LIG    1       22.214 -17.242   5.205  0.00  0.00    -0.000 C 
BRANCH  13  14
ATOM     14  C   LIG    1       22.411 -18.266   4.068  0.00  0.00    -0.000 C 
BRANCH  14  15
ATOM     15  C   LIG    1       22.372 -19.762   4.451  0.00  0.00    -0.000 C 
BRANCH  15  16
ATOM     16  C   LIG    1       22.803 -20.055   5.886  0.00  0.00    -0.000 C 
BRANCH  16  17
ATOM     17  C   LIG    1       23.547 -21.351   6.124  0.00  0.00    -0.000 C 
BRANCH  17  18
ATOM     18  C   LIG    1       24.749 -21.085   7.055  0.00  0.00    -0.000 C 
BRANCH  18  19
ATOM     19  C   LIG    1       25.937 -20.564   6.258  0.00  0.00    -0.000 C 
BRANCH  19  21
ATOM     20  C   LIG    1       28.444 -19.994   6.243  0.00  0.00    +0.004 C 
ATOM     21  C   LIG    1       27.228 -20.405   7.062  0.00  0.00    -0.003 C 
ENDBRANCH  19  21
ENDBRANCH  18  19
ENDBRANCH  17  18
ENDBRANCH  16  17
ENDBRANCH  15  16
ENDBRANCH  14  15
ENDBRANCH  13  14
ENDBRANCH  12  13
ENDBRANCH   1  12
TORSDOF 17
ENDMDL
MODEL 6
REMARK VINA RESULT:      -5.2      1.823      3.573
REMARK  Name = *****
REMARK                            x       y       z     vdW  Elec       q    Type
REMARK                         _______ _______ _______ _____ _____    ______ ____
ROOT
ATOM      1  C   LIG    1       24.119 -14.022   5.108  0.00  0.00    -0.000 C 
ENDROOT
BRANCH   1   2
ATOM      2  C   LIG    1       24.251 -12.593   4.540  0.00  0.00    -0.000 C 
BRANCH   2   3
ATOM      3  C   LIG    1       23.884 -12.613   3.064  0.00  0.00    -0.000 C 
BRANCH   3   4
ATOM      4  C   LIG    1       25.022 -12.588   2.046  0.00  0.00    +0.000 C 
BRANCH   4   5
ATOM      5  C   LIG    1       26.447 -12.898   2.508  0.00  0.00    +0.000 C 
BRANCH   5   6
ATOM      6  C   LIG    1       26.971 -14.343   2.392  0.00  0.00    +0.011 C 
BRANCH   6   7
ATOM      7  C   LIG    1       27.198 -15.116   3.698  0.00  0.00    +0.120 C 
BRANCH   7   8
ATOM      8  C   LIG    1       27.099 -16.634   3.652  0.00  0.00    +0.305 C 
ATOM      9  O   LIG    1       26.139 -17.246   3.129  0.00  0.00    -0.251 OA
BRANCH   8  10
ATOM     10  O   LIG    1       28.172 -17.264   4.143  0.00  0.00    -0.481 OA
ATOM     11  H   LIG    1       28.484 -18.025   3.590  0.00  0.00    +0.295 HD
ENDBRANCH   8  10
ENDBRANCH   7   8
ENDBRANCH   6   7
ENDBRANCH   5   6
ENDBRANCH   4   5
ENDBRANCH   3   4
ENDBRANCH   2   3
ENDBRANCH   1   2
BRANCH   1  12
ATOM     12  C   LIG    1       23.307 -14.844   4.138  0.00  0.00    -0.000 C 
BRANCH  12  13
ATOM     13  C   LIG    1       22.510 -16.002   4.725  0.00  0.00    -0.000 C 
BRANCH  13  14
ATOM     14  C   LIG    1       22.958 -17.398   4.246  0.00  0.00    -0.000 C 
BRANCH  14  15
ATOM     15  C   LIG    1       21.976 -18.569   4.468  0.00  0.00    -0.000 C 
BRANCH  15  16
ATOM     16  C   LIG    1       22.608 -19.809   5.098  0.00  0.00    -0.000 C 
BRANCH  16  17
ATOM     17  C   LIG    1       23.733 -20.467   4.328  0.00  0.00    -0.000 C 
BRANCH  17  18
ATOM     18  C   LIG    1       24.487 -21.440   5.259  0.00  0.00    -0.000 C 
BRANCH  18  19
ATOM     19  C   LIG    1       25.422 -20.674   6.186  0.00  0.00    -0.000 C 
BRANCH  19  21
ATOM     20  C   LIG    1       27.954 -20.243   6.317  0.00  0.00    +0.004 C 
ATOM     21  C   LIG    1       26.671 -20.107   5.509  0.00  0.00    -0.003 C 
ENDBRANCH  19  21
ENDBRANCH  18  19
ENDBRANCH  17  18
ENDBRANCH  16  17
ENDBRANCH  15  16
ENDBRANCH  14  15
ENDBRANCH  13  14
ENDBRANCH  12  13
ENDBRANCH   1  12
TORSDOF 17
ENDMDL
MODEL 7
REMARK VINA RESULT:      -5.1      2.475      6.326
REMARK  Name = *****
REMARK                            x       y       z     vdW  Elec       q    Type
REMARK                         _______ _______ _______ _____ _____    ______ ____
ROOT
ATOM      1  C   LIG    1       22.640 -17.359   3.988  0.00  0.00    -0.000 C 
ENDROOT
BRANCH   1   2
ATOM      2  C   LIG    1       22.007 -18.707   4.392  0.00  0.00    -0.000 C 
BRANCH   2   3
ATOM      3  C   LIG    1       23.111 -19.663   4.817  0.00  0.00    -0.000 C 
BRANCH   3   4
ATOM      4  C   LIG    1       23.017 -20.289   6.206  0.00  0.00    +0.000 C 
BRANCH   4   5
ATOM      5  C   LIG    1       23.889 -21.500   6.544  0.00  0.00    +0.000 C 
BRANCH   5   6
ATOM      6  C   LIG    1       25.371 -21.492   6.122  0.00  0.00    +0.011 C 
BRANCH   6   7
ATOM      7  C   LIG    1       26.318 -20.562   6.892  0.00  0.00    +0.120 C 
BRANCH   7   8
ATOM      8  C   LIG    1       27.623 -20.161   6.220  0.00  0.00    +0.305 C 
ATOM      9  O   LIG    1       28.717 -20.094   6.825  0.00  0.00    -0.251 OA
BRANCH   8  10
ATOM     10  O   LIG    1       27.519 -19.969   4.900  0.00  0.00    -0.481 OA
ATOM     11  H   LIG    1       28.148 -19.296   4.536  0.00  0.00    +0.295 HD
ENDBRANCH   8  10
ENDBRANCH   7   8
ENDBRANCH   6   7
ENDBRANCH   5   6
ENDBRANCH   4   5
ENDBRANCH   3   4
ENDBRANCH   2   3
ENDBRANCH   1   2
BRANCH   1  12
ATOM     12  C   LIG    1       22.269 -16.331   5.029  0.00  0.00    -0.000 C 
BRANCH  12  13
ATOM     13  C   LIG    1       23.070 -15.035   5.023  0.00  0.00    -0.000 C 
BRANCH  13  14
ATOM     14  C   LIG    1       23.429 -14.509   3.618  0.00  0.00    -0.000 C 
BRANCH  14  15
ATOM     15  C   LIG    1       24.322 -13.251   3.542  0.00  0.00    -0.000 C 
BRANCH  15  16
ATOM     16  C   LIG    1       25.011 -12.889   4.856  0.00  0.00    -0.000 C 
BRANCH  16  17
ATOM     17  C   LIG    1       26.361 -13.522   5.115  0.00  0.00    -0.000 C 
BRANCH  17  18
ATOM     18  C   LIG    1       27.235 -13.395   3.850  0.00  0.00    -0.000 C 
BRANCH  18  19
ATOM     19  C   LIG    1       27.098 -14.636   2.979  0.00  0.00    -0.000 C 
BRANCH  19  21
ATOM     20  C   LIG    1       26.172 -17.019   3.257  0.00  0.00    +0.004 C 
ATOM     21  C   LIG    1       27.155 -15.962   3.740  0.00  0.00    -0.003 C 
ENDBRANCH  19  21
ENDBRANCH  18  19
ENDBRANCH  17  18
ENDBRANCH  16  17
ENDBRANCH  15  16
ENDBRANCH  14  15
ENDBRANCH  13  14
ENDBRANCH  12  13
ENDBRANCH   1  12
TORSDOF 17
ENDMDL
MODEL 8
REMARK VINA RESULT:      -4.7      1.386      3.673
REMARK  Name = *****
REMARK                            x       y       z     vdW  Elec       q    Type
REMARK                         _______ _______ _______ _____ _____    ______ ____
ROOT
ATOM      1  C   LIG    1       22.392 -21.249   5.672  0.00  0.00    -0.000 C 
ENDROOT
BRANCH   1   2
ATOM      2  C   LIG    1       22.076 -20.158   4.627  0.00  0.00    -0.000 C 
BRANCH   2   3
ATOM      3  C   LIG    1       22.395 -18.795   5.225  0.00  0.00    -0.000 C 
BRANCH   3   4
ATOM      4  C   LIG    1       22.412 -17.591   4.286  0.00  0.00    +0.000 C 
BRANCH   4   5
ATOM      5  C   LIG    1       22.275 -16.184   4.869  0.00  0.00    +0.000 C 
BRANCH   5   6
ATOM      6  C   LIG    1       23.446 -15.194   4.711  0.00  0.00    +0.011 C 
BRANCH   6   7
ATOM      7  C   LIG    1       23.383 -14.209   3.536  0.00  0.00    +0.120 C 
BRANCH   7   8
ATOM      8  C   LIG    1       23.939 -12.809   3.751  0.00  0.00    +0.305 C 
ATOM      9  O   LIG    1       24.558 -12.465   4.784  0.00  0.00    -0.251 OA
BRANCH   8  10
ATOM     10  O   LIG    1       23.787 -11.996   2.699  0.00  0.00    -0.481 OA
ATOM     11  H   LIG    1       24.606 -11.499   2.449  0.00  0.00    +0.295 HD
ENDBRANCH   8  10
ENDBRANCH   7   8
ENDBRANCH   6   7
ENDBRANCH   5   6
ENDBRANCH   4   5
ENDBRANCH   3   4
ENDBRANCH   2   3
ENDBRANCH   1   2
BRANCH   1  12
ATOM     12  C   LIG    1       23.379 -20.683   6.664  0.00  0.00    -0.000 C 
BRANCH  12  13
ATOM     13  C   LIG    1       24.717 -21.402   6.780  0.00  0.00    -0.000 C 
BRANCH  13  14
ATOM     14  C   LIG    1       25.946 -20.469   6.815  0.00  0.00    -0.000 C 
BRANCH  14  15
ATOM     15  C   LIG    1       26.568 -20.070   5.459  0.00  0.00    -0.000 C 
BRANCH  15  16
ATOM     16  C   LIG    1       25.548 -19.719   4.378  0.00  0.00    -0.000 C 
BRANCH  16  17
ATOM     17  C   LIG    1       26.053 -18.918   3.197  0.00  0.00    -0.000 C 
BRANCH  17  18
ATOM     18  C   LIG    1       25.742 -17.424   3.424  0.00  0.00    -0.000 C 
BRANCH  18  19
ATOM     19  C   LIG    1       27.024 -16.602   3.402  0.00  0.00    -0.000 C 
BRANCH  19  21
ATOM     20  C   LIG    1       27.395 -14.094   2.975  0.00  0.00    +0.004 C 
ATOM     21  C   LIG    1       26.876 -15.170   3.918  0.00  0.00    -0.003 C 
ENDBRANCH  19  21
ENDBRANCH  18  19
ENDBRANCH  17  18
ENDBRANCH  16  17
ENDBRANCH  15  16
ENDBRANCH  14  15
ENDBRANCH  13  14
ENDBRANCH  12  13
ENDBRANCH   1  12
TORSDOF 17
ENDMDL
MODEL 9
REMARK VINA RESULT:      -4.6      3.039      7.649
REMARK  Name = *****
REMARK                            x       y       z     vdW  Elec       q    Type
REMARK                         _______ _______ _______ _____ _____    ______ ____
ROOT
ATOM      1  C   LIG    1       25.835 -17.740   3.316  0.00  0.00    -0.000 C 
ENDROOT
BRANCH   1   2
ATOM      2  C   LIG    1       25.439 -19.176   3.719  0.00  0.00    -0.000 C 
BRANCH   2   3
ATOM      3  C   LIG    1       26.443 -19.698   4.737  0.00  0.00    -0.000 C 
BRANCH   3   4
ATOM      4  C   LIG    1       26.018 -20.865   5.625  0.00  0.00    +0.000 C 
BRANCH   4   5
ATOM      5  C   LIG    1       25.275 -20.581   6.931  0.00  0.00    +0.000 C 
BRANCH   5   6
ATOM      6  C   LIG    1       23.795 -20.994   7.053  0.00  0.00    +0.011 C 
BRANCH   6   7
ATOM      7  C   LIG    1       23.119 -21.568   5.801  0.00  0.00    +0.120 C 
BRANCH   7   8
ATOM      8  C   LIG    1       22.165 -20.666   5.032  0.00  0.00    +0.305 C 
ATOM      9  O   LIG    1       22.337 -19.432   4.904  0.00  0.00    -0.251 OA
BRANCH   8  10
ATOM     10  O   LIG    1       21.167 -21.320   4.425  0.00  0.00    -0.481 OA
ATOM     11  H   LIG    1       21.425 -22.202   4.057  0.00  0.00    +0.295 HD
ENDBRANCH   8  10
ENDBRANCH   7   8
ENDBRANCH   6   7
ENDBRANCH   5   6
ENDBRANCH   4   5
ENDBRANCH   3   4
ENDBRANCH   2   3
ENDBRANCH   1   2
BRANCH   1  12
ATOM     12  C   LIG    1       27.189 -17.437   3.911  0.00  0.00    -0.000 C 
BRANCH  12  13
ATOM     13  C   LIG    1       27.558 -15.966   4.051  0.00  0.00    -0.000 C 
BRANCH  13  14
ATOM     14  C   LIG    1       26.846 -15.027   3.055  0.00  0.00    -0.000 C 
BRANCH  14  15
ATOM     15  C   LIG    1       27.372 -13.579   2.950  0.00  0.00    -0.000 C 
BRANCH  15  16
ATOM     16  C   LIG    1       26.320 -12.558   2.522  0.00  0.00    -0.000 C 
BRANCH  16  17
ATOM     17  C   LIG    1       24.993 -13.106   2.042  0.00  0.00    -0.000 C 
BRANCH  17  18
ATOM     18  C   LIG    1       23.855 -12.504   2.892  0.00  0.00    -0.000 C 
BRANCH  18  19
ATOM     19  C   LIG    1       24.138 -12.698   4.376  0.00  0.00    -0.000 C 
BRANCH  19  21
ATOM     20  C   LIG    1       23.110 -15.055   4.361  0.00  0.00    +0.004 C 
ATOM     21  C   LIG    1       24.250 -14.156   4.822  0.00  0.00    -0.003 C 
ENDBRANCH  19  21
ENDBRANCH  18  19
ENDBRANCH  17  18
ENDBRANCH  16  17
ENDBRANCH  15  16
ENDBRANCH  14  15
ENDBRANCH  13  14
ENDBRANCH  12  13
ENDBRANCH   1  12
TORSDOF 17
ENDMDL
