MODEL 1
REMARK VINA RESULT:       3.5      0.000      0.000
REMARK  Name = *****
REMARK                            x       y       z     vdW  Elec       q    Type
REMARK                         _______ _______ _______ _____ _____    ______ ____
ROOT
ATOM      1  C   LIG    1       23.517 -12.309   4.628  0.00  0.00    +0.034 C 
ATOM      2  C   LIG    1       23.891 -13.614   3.917  0.00  0.00    +0.122 C 
ATOM      3  N   LIG    1       25.334 -13.929   4.034  0.00  0.00    -0.337 NA
ATOM      4  C   LIG    1       25.645 -15.313   3.944  0.00  0.00    +0.097 C 
ATOM      5  C   LIG    1       26.990 -15.718   3.919  0.00  0.00    +0.052 C 
ATOM      6  C   LIG    1       28.060 -14.698   3.998  0.00  0.00    +0.204 C 
ATOM      7  C   LIG    1       27.674 -13.276   3.916  0.00  0.00    +0.122 C 
ATOM      8  O   LIG    1       29.244 -15.009   4.121  0.00  0.00    -0.286 OA
ATOM      9  C   LIG    1       27.338 -17.062   3.809  0.00  0.00    +0.054 C 
ATOM     10  C   LIG    1       26.340 -18.027   3.721  0.00  0.00    +0.149 C 
ATOM     11  F   LIG    1       26.749 -19.301   3.640  0.00  0.00    -0.203 F 
ATOM     12  C   LIG    1       24.968 -17.702   3.748  0.00  0.00    +0.110 C 
ATOM     13  C   LIG    1       24.650 -16.321   3.873  0.00  0.00    +0.168 C 
ATOM     14  O   LIG    1       23.307 -15.989   3.862  0.00  0.00    -0.486 OA
ATOM     15  C   LIG    1       26.361 -13.003   3.927  0.00  0.00    +0.105 C 
ATOM     16  C   LIG    1       23.067 -14.752   4.531  0.00  0.00    +0.254 C 
ENDROOT
BRANCH  12  17
ATOM     17  N   LIG    1       23.930 -18.666   3.673  0.00  0.00    -0.322 NA
ATOM     18  C   LIG    1       22.861 -18.438   4.674  0.00  0.00    +0.120 C 
ATOM     19  C   LIG    1       21.675 -19.415   4.460  0.00  0.00    +0.103 C 
ATOM     20  N   LIG    1       22.035 -20.849   4.377  0.00  0.00    -0.302 NA
ATOM     21  C   LIG    1       22.453 -21.372   5.677  0.00  0.00    +0.105 C 
ATOM     22  C   LIG    1       23.099 -20.998   3.356  0.00  0.00    +0.103 C 
ATOM     23  C   LIG    1       24.332 -20.086   3.562  0.00  0.00    +0.120 C 
ENDBRANCH  12  17
BRANCH   7  24
ATOM     24  C   LIG    1       28.647 -12.168   3.846  0.00  0.00    +0.342 C 
ATOM     25  O   LIG    1       28.863 -11.527   2.825  0.00  0.00    -0.245 OA
BRANCH  24  26
ATOM     26  O   LIG    1       29.261 -11.888   5.015  0.00  0.00    -0.477 OA
ATOM     27  H   LIG    1       30.208 -12.170   5.047  0.00  0.00    +0.295 HD
ENDBRANCH  24  26
ENDBRANCH   7  24
TORSDOF 3
ENDMDL
MODEL 2
REMARK VINA RESULT:       3.9      2.566      7.592
REMARK  Name = *****
REMARK                            x       y       z     vdW  Elec       q    Type
REMARK                         _______ _______ _______ _____ _____    ______ ____
ROOT
ATOM      1  C   LIG    1       26.784 -20.628   4.774  0.00  0.00    +0.034 C 
ATOM      2  C   LIG    1       26.406 -19.362   3.998  0.00  0.00    +0.122 C 
ATOM      3  N   LIG    1       25.004 -18.949   4.239  0.00  0.00    -0.337 NA
ATOM      4  C   LIG    1       24.760 -17.558   4.066  0.00  0.00    +0.097 C 
ATOM      5  C   LIG    1       23.443 -17.074   4.147  0.00  0.00    +0.052 C 
ATOM      6  C   LIG    1       22.335 -18.016   4.423  0.00  0.00    +0.204 C 
ATOM      7  C   LIG    1       22.633 -19.461   4.421  0.00  0.00    +0.122 C 
ATOM      8  O   LIG    1       21.190 -17.622   4.642  0.00  0.00    -0.286 OA
ATOM      9  C   LIG    1       23.159 -15.723   3.961  0.00  0.00    +0.054 C 
ATOM     10  C   LIG    1       24.192 -14.832   3.689  0.00  0.00    +0.149 C 
ATOM     11  F   LIG    1       23.846 -13.545   3.545  0.00  0.00    -0.203 F 
ATOM     12  C   LIG    1       25.539 -15.239   3.601  0.00  0.00    +0.110 C 
ATOM     13  C   LIG    1       25.794 -16.623   3.807  0.00  0.00    +0.168 C 
ATOM     14  O   LIG    1       27.108 -17.040   3.684  0.00  0.00    -0.486 OA
ATOM     15  C   LIG    1       23.922 -19.814   4.317  0.00  0.00    +0.105 C 
ATOM     16  C   LIG    1       27.353 -18.233   4.426  0.00  0.00    +0.254 C 
ENDROOT
BRANCH  12  17
ATOM     17  N   LIG    1       26.613 -14.351   3.336  0.00  0.00    -0.322 NA
ATOM     18  C   LIG    1       27.850 -14.714   4.068  0.00  0.00    +0.120 C 
ATOM     19  C   LIG    1       29.039 -13.815   3.637  0.00  0.00    +0.103 C 
ATOM     20  N   LIG    1       28.792 -12.357   3.691  0.00  0.00    -0.302 NA
ATOM     21  C   LIG    1       28.711 -11.879   5.071  0.00  0.00    +0.105 C 
ATOM     22  C   LIG    1       27.549 -12.072   2.937  0.00  0.00    +0.103 C 
ATOM     23  C   LIG    1       26.317 -12.902   3.373  0.00  0.00    +0.120 C 
ENDBRANCH  12  17
BRANCH   7  24
ATOM     24  C   LIG    1       21.599 -20.508   4.546  0.00  0.00    +0.342 C 
ATOM     25  O   LIG    1       20.506 -20.442   3.997  0.00  0.00    -0.245 OA
BRANCH  24  26
ATOM     26  O   LIG    1       21.968 -21.571   5.291  0.00  0.00    -0.477 OA
ATOM     27  H   LIG    1       21.933 -21.409   6.265  0.00  0.00    +0.295 HD
ENDBRANCH  24  26
ENDBRANCH   7  24
TORSDOF 3
ENDMDL
MODEL 3
REMARK VINA RESULT:       5.9      2.615      7.547
REMARK  Name = *****
REMARK                            x       y       z     vdW  Elec       q    Type
REMARK                         _______ _______ _______ _____ _____    ______ ____
ROOT
ATOM      1  C   LIG    1       26.260 -19.976   3.412  0.00  0.00    +0.034 C 
ATOM      2  C   LIG    1       25.787 -18.542   3.150  0.00  0.00    +0.122 C 
ATOM      3  N   LIG    1       24.437 -18.283   3.702  0.00  0.00    -0.337 NA
ATOM      4  C   LIG    1       24.183 -16.921   4.025  0.00  0.00    +0.097 C 
ATOM      5  C   LIG    1       22.896 -16.539   4.440  0.00  0.00    +0.052 C 
ATOM      6  C   LIG    1       21.830 -17.561   4.544  0.00  0.00    +0.204 C 
ATOM      7  C   LIG    1       22.112 -18.916   4.032  0.00  0.00    +0.122 C 
ATOM      8  O   LIG    1       20.732 -17.303   5.034  0.00  0.00    -0.286 OA
ATOM      9  C   LIG    1       22.600 -15.213   4.744  0.00  0.00    +0.054 C 
ATOM     10  C   LIG    1       23.592 -14.243   4.637  0.00  0.00    +0.149 C 
ATOM     11  F   LIG    1       23.240 -12.993   4.968  0.00  0.00    -0.203 F 
ATOM     12  C   LIG    1       24.909 -14.548   4.237  0.00  0.00    +0.110 C 
ATOM     13  C   LIG    1       25.178 -15.914   3.945  0.00  0.00    +0.168 C 
ATOM     14  O   LIG    1       26.457 -16.218   3.514  0.00  0.00    -0.486 OA
ATOM     15  C   LIG    1       23.370 -19.167   3.643  0.00  0.00    +0.105 C 
ATOM     16  C   LIG    1       26.795 -17.577   3.787  0.00  0.00    +0.254 C 
ENDROOT
BRANCH  12  17
ATOM     17  N   LIG    1       25.942 -13.582   4.131  0.00  0.00    -0.322 NA
ATOM     18  C   LIG    1       26.372 -13.354   2.730  0.00  0.00    +0.120 C 
ATOM     19  C   LIG    1       27.389 -12.186   2.640  0.00  0.00    +0.103 C 
ATOM     20  N   LIG    1       28.553 -12.279   3.551  0.00  0.00    -0.302 NA
ATOM     21  C   LIG    1       29.473 -13.337   3.136  0.00  0.00    +0.105 C 
ATOM     22  C   LIG    1       28.045 -12.499   4.926  0.00  0.00    +0.103 C 
ATOM     23  C   LIG    1       27.073 -13.694   5.078  0.00  0.00    +0.120 C 
ENDBRANCH  12  17
BRANCH   7  24
ATOM     24  C   LIG    1       21.098 -19.986   3.950  0.00  0.00    +0.342 C 
ATOM     25  O   LIG    1       19.976 -19.814   3.488  0.00  0.00    -0.245 OA
BRANCH  24  26
ATOM     26  O   LIG    1       21.517 -21.189   4.396  0.00  0.00    -0.477 OA
ATOM     27  H   LIG    1       20.938 -21.581   5.095  0.00  0.00    +0.295 HD
ENDBRANCH  24  26
ENDBRANCH   7  24
TORSDOF 3
ENDMDL
