MODEL 1
REMARK VINA RESULT:      -8.2      0.000      0.000
REMARK  Name = *****
REMARK                            x       y       z     vdW  Elec       q    Type
REMARK                         _______ _______ _______ _____ _____    ______ ____
ROOT
ATOM      1  C   LIG    1       25.705 -21.800   7.020  0.00  0.00    +0.114 C 
ENDROOT
BRANCH   1   2
ATOM      2  C   LIG    1       25.308 -23.312   6.815  0.00  0.00    +0.061 A 
ATOM      3  N   LIG    1       26.330 -24.215   6.765  0.00  0.00    -0.259 NA
ATOM      4  C   LIG    1       26.044 -25.516   6.514  0.00  0.00    +0.111 A 
ATOM      5  C   LIG    1       24.766 -25.998   6.328  0.00  0.00    +0.020 A 
ATOM      6  C   LIG    1       23.720 -25.093   6.410  0.00  0.00    +0.003 A 
ATOM      7  C   LIG    1       23.987 -23.744   6.657  0.00  0.00    +0.025 A 
ENDBRANCH   1   2
BRANCH   1   8
ATOM      8  C   LIG    1       24.834 -20.852   6.130  0.00  0.00    -0.027 A 
ATOM      9  C   LIG    1       25.282 -20.406   4.870  0.00  0.00    +0.005 A 
ATOM     10  C   LIG    1       24.456 -19.668   4.011  0.00  0.00    +0.000 A 
ATOM     11  C   LIG    1       23.162 -19.339   4.391  0.00  0.00    +0.000 A 
ATOM     12  C   LIG    1       22.688 -19.756   5.630  0.00  0.00    +0.000 A 
ATOM     13  C   LIG    1       23.506 -20.516   6.480  0.00  0.00    +0.005 A 
ENDBRANCH   1   8
BRANCH   1  14
ATOM     14  C   LIG    1       25.546 -21.444   8.536  0.00  0.00    +0.227 C 
ATOM     15  O   LIG    1       25.356 -22.285   9.439  0.00  0.00    -0.275 OA
ATOM     16  N   LIG    1       25.746 -20.156   8.943  0.00  0.00    -0.328 N 
ATOM     17  H   LIG    1       25.522 -19.966   9.911  0.00  0.00    +0.145 HD
ATOM     18  H   LIG    1       25.629 -19.387   8.288  0.00  0.00    +0.145 HD
ENDBRANCH   1  14
BRANCH   1  19
ATOM     19  C   LIG    1       27.255 -21.767   6.659  0.00  0.00    +0.042 C 
BRANCH  19  20
ATOM     20  C   LIG    1       28.332 -21.573   7.752  0.00  0.00    +0.086 C 
BRANCH  20  21
ATOM     21  N   LIG    1       29.270 -20.424   7.545  0.00  0.00    -0.297 NA
BRANCH  21  23
ATOM     22  C   LIG    1       28.217 -19.030   5.694  0.00  0.00    +0.024 C 
ATOM     23  C   LIG    1       29.390 -19.919   6.150  0.00  0.00    +0.051 C 
ATOM     24  C   LIG    1       30.664 -19.090   5.866  0.00  0.00    +0.024 C 
ENDBRANCH  21  23
BRANCH  21  25
ATOM     25  C   LIG    1       30.534 -20.444   8.335  0.00  0.00    +0.051 C 
ATOM     26  C   LIG    1       30.865 -21.743   9.095  0.00  0.00    +0.024 C 
ATOM     27  C   LIG    1       30.748 -19.276   9.311  0.00  0.00    +0.024 C 
ENDBRANCH  21  25
ENDBRANCH  20  21
ENDBRANCH  19  20
ENDBRANCH   1  19
TORSDOF 8
ENDMDL
MODEL 2
REMARK VINA RESULT:      -8.2      0.628      1.736
REMARK  Name = *****
REMARK                            x       y       z     vdW  Elec       q    Type
REMARK                         _______ _______ _______ _____ _____    ______ ____
ROOT
ATOM      1  C   LIG    1       25.738 -21.791   7.026  0.00  0.00    +0.114 C 
ENDROOT
BRANCH   1   2
ATOM      2  C   LIG    1       25.325 -23.296   6.803  0.00  0.00    +0.061 A 
ATOM      3  N   LIG    1       26.338 -24.205   6.715  0.00  0.00    -0.259 NA
ATOM      4  C   LIG    1       26.036 -25.500   6.447  0.00  0.00    +0.111 A 
ATOM      5  C   LIG    1       24.750 -25.969   6.280  0.00  0.00    +0.020 A 
ATOM      6  C   LIG    1       23.714 -25.058   6.400  0.00  0.00    +0.003 A 
ATOM      7  C   LIG    1       23.997 -23.715   6.666  0.00  0.00    +0.025 A 
ENDBRANCH   1   2
BRANCH   1   8
ATOM      8  C   LIG    1       24.920 -20.828   6.103  0.00  0.00    -0.027 A 
ATOM      9  C   LIG    1       25.470 -20.301   4.916  0.00  0.00    +0.005 A 
ATOM     10  C   LIG    1       24.702 -19.547   4.017  0.00  0.00    +0.000 A 
ATOM     11  C   LIG    1       23.364 -19.283   4.285  0.00  0.00    +0.000 A 
ATOM     12  C   LIG    1       22.791 -19.781   5.448  0.00  0.00    +0.000 A 
ATOM     13  C   LIG    1       23.552 -20.556   6.336  0.00  0.00    +0.005 A 
ENDBRANCH   1   8
BRANCH   1  14
ATOM     14  C   LIG    1       25.523 -21.434   8.534  0.00  0.00    +0.227 C 
ATOM     15  O   LIG    1       25.356 -22.277   9.440  0.00  0.00    -0.275 OA
ATOM     16  N   LIG    1       25.645 -20.133   8.935  0.00  0.00    -0.328 N 
ATOM     17  H   LIG    1       25.387 -19.949   9.896  0.00  0.00    +0.145 HD
ATOM     18  H   LIG    1       25.503 -19.377   8.271  0.00  0.00    +0.145 HD
ENDBRANCH   1  14
BRANCH   1  19
ATOM     19  C   LIG    1       27.302 -21.784   6.728  0.00  0.00    +0.042 C 
BRANCH  19  20
ATOM     20  C   LIG    1       28.338 -21.664   7.870  0.00  0.00    +0.086 C 
BRANCH  20  21
ATOM     21  N   LIG    1       29.428 -20.658   7.658  0.00  0.00    -0.297 NA
BRANCH  21  23
ATOM     22  C   LIG    1       30.949 -22.139   9.062  0.00  0.00    +0.024 C 
ATOM     23  C   LIG    1       30.566 -20.715   8.614  0.00  0.00    +0.051 C 
ATOM     24  C   LIG    1       31.880 -20.084   8.097  0.00  0.00    +0.024 C 
ENDBRANCH  21  23
BRANCH  21  25
ATOM     25  C   LIG    1       29.002 -19.292   7.241  0.00  0.00    +0.051 C 
ATOM     26  C   LIG    1       29.248 -18.898   5.772  0.00  0.00    +0.024 C 
ATOM     27  C   LIG    1       29.493 -18.127   8.115  0.00  0.00    +0.024 C 
ENDBRANCH  21  25
ENDBRANCH  20  21
ENDBRANCH  19  20
ENDBRANCH   1  19
TORSDOF 8
ENDMDL
MODEL 3
REMARK VINA RESULT:      -7.5      1.529      5.845
REMARK  Name = *****
REMARK                            x       y       z     vdW  Elec       q    Type
REMARK                         _______ _______ _______ _____ _____    ______ ____
ROOT
ATOM      1  C   LIG    1       26.561 -21.092   6.986  0.00  0.00    +0.114 C 
ENDROOT
BRANCH   1   2
ATOM      2  C   LIG    1       25.569 -20.527   5.897  0.00  0.00    +0.061 A 
ATOM      3  N   LIG    1       24.253 -20.447   6.246  0.00  0.00    -0.259 NA
ATOM      4  C   LIG    1       23.352 -20.040   5.319  0.00  0.00    +0.111 A 
ATOM      5  C   LIG    1       23.687 -19.671   4.033  0.00  0.00    +0.020 A 
ATOM      6  C   LIG    1       25.026 -19.719   3.681  0.00  0.00    +0.003 A 
ATOM      7  C   LIG    1       25.975 -20.144   4.614  0.00  0.00    +0.025 A 
ENDBRANCH   1   2
BRANCH   1   8
ATOM      8  C   LIG    1       27.950 -20.375   6.923  0.00  0.00    -0.027 A 
ATOM      9  C   LIG    1       29.048 -20.827   7.686  0.00  0.00    +0.005 A 
ATOM     10  C   LIG    1       30.328 -20.274   7.537  0.00  0.00    +0.000 A 
ATOM     11  C   LIG    1       30.548 -19.243   6.633  0.00  0.00    +0.000 A 
ATOM     12  C   LIG    1       29.488 -18.769   5.869  0.00  0.00    +0.000 A 
ATOM     13  C   LIG    1       28.212 -19.337   6.000  0.00  0.00    +0.005 A 
ENDBRANCH   1   8
BRANCH   1  14
ATOM     14  C   LIG    1       25.905 -20.916   8.395  0.00  0.00    +0.227 C 
ATOM     15  O   LIG    1       26.395 -20.234   9.319  0.00  0.00    -0.275 OA
ATOM     16  N   LIG    1       24.658 -21.427   8.618  0.00  0.00    -0.328 N 
ATOM     17  H   LIG    1       24.333 -21.380   9.575  0.00  0.00    +0.145 HD
ATOM     18  H   LIG    1       24.313 -22.202   8.057  0.00  0.00    +0.145 HD
ENDBRANCH   1  14
BRANCH   1  19
ATOM     19  C   LIG    1       26.631 -22.647   6.656  0.00  0.00    +0.042 C 
BRANCH  19  20
ATOM     20  C   LIG    1       25.953 -23.695   7.571  0.00  0.00    +0.086 C 
BRANCH  20  21
ATOM     21  N   LIG    1       25.249 -24.815   6.867  0.00  0.00    -0.297 NA
BRANCH  21  23
ATOM     22  C   LIG    1       26.140 -27.157   7.314  0.00  0.00    +0.024 C 
ATOM     23  C   LIG    1       26.110 -25.928   6.384  0.00  0.00    +0.051 C 
ATOM     24  C   LIG    1       25.735 -26.481   4.990  0.00  0.00    +0.024 C 
ENDBRANCH  21  23
BRANCH  21  25
ATOM     25  C   LIG    1       24.121 -24.434   5.970  0.00  0.00    +0.051 C 
ATOM     26  C   LIG    1       24.469 -23.599   4.723  0.00  0.00    +0.024 C 
ATOM     27  C   LIG    1       22.908 -23.770   6.641  0.00  0.00    +0.024 C 
ENDBRANCH  21  25
ENDBRANCH  20  21
ENDBRANCH  19  20
ENDBRANCH   1  19
TORSDOF 8
ENDMDL
MODEL 4
REMARK VINA RESULT:      -7.3      1.415      5.566
REMARK  Name = *****
REMARK                            x       y       z     vdW  Elec       q    Type
REMARK                         _______ _______ _______ _____ _____    ______ ____
ROOT
ATOM      1  C   LIG    1       26.629 -21.169   7.094  0.00  0.00    +0.114 C 
ENDROOT
BRANCH   1   2
ATOM      2  C   LIG    1       25.432 -20.713   6.174  0.00  0.00    +0.061 A 
ATOM      3  N   LIG    1       24.180 -20.792   6.710  0.00  0.00    -0.259 NA
ATOM      4  C   LIG    1       23.113 -20.484   5.933  0.00  0.00    +0.111 A 
ATOM      5  C   LIG    1       23.214 -20.064   4.623  0.00  0.00    +0.020 A 
ATOM      6  C   LIG    1       24.484 -19.950   4.082  0.00  0.00    +0.003 A 
ATOM      7  C   LIG    1       25.601 -20.271   4.858  0.00  0.00    +0.025 A 
ENDBRANCH   1   2
BRANCH   1   8
ATOM      8  C   LIG    1       27.817 -20.151   7.036  0.00  0.00    -0.027 A 
ATOM      9  C   LIG    1       28.615 -19.885   8.169  0.00  0.00    +0.005 A 
ATOM     10  C   LIG    1       29.759 -19.079   8.093  0.00  0.00    +0.000 A 
ATOM     11  C   LIG    1       30.133 -18.501   6.886  0.00  0.00    +0.000 A 
ATOM     12  C   LIG    1       29.367 -18.736   5.751  0.00  0.00    +0.000 A 
ATOM     13  C   LIG    1       28.235 -19.563   5.821  0.00  0.00    +0.005 A 
ENDBRANCH   1   8
BRANCH   1  14
ATOM     14  C   LIG    1       26.100 -21.327   8.558  0.00  0.00    +0.227 C 
ATOM     15  O   LIG    1       26.227 -22.363   9.244  0.00  0.00    -0.275 OA
ATOM     16  N   LIG    1       25.574 -20.241   9.197  0.00  0.00    -0.328 N 
ATOM     17  H   LIG    1       25.149 -20.429  10.096  0.00  0.00    +0.145 HD
ATOM     18  H   LIG    1       25.184 -19.469   8.661  0.00  0.00    +0.145 HD
ENDBRANCH   1  14
BRANCH   1  19
ATOM     19  C   LIG    1       27.000 -22.613   6.537  0.00  0.00    +0.042 C 
BRANCH  19  20
ATOM     20  C   LIG    1       26.241 -23.876   7.008  0.00  0.00    +0.086 C 
BRANCH  20  21
ATOM     21  N   LIG    1       25.873 -24.853   5.934  0.00  0.00    -0.297 NA
BRANCH  21  23
ATOM     22  C   LIG    1       23.420 -24.409   6.448  0.00  0.00    +0.024 C 
ATOM     23  C   LIG    1       24.492 -24.741   5.391  0.00  0.00    +0.051 C 
ATOM     24  C   LIG    1       24.314 -23.677   4.283  0.00  0.00    +0.024 C 
ENDBRANCH  21  23
BRANCH  21  25
ATOM     25  C   LIG    1       26.396 -26.241   6.088  0.00  0.00    +0.051 C 
ATOM     26  C   LIG    1       26.280 -27.173   4.867  0.00  0.00    +0.024 C 
ATOM     27  C   LIG    1       25.898 -27.026   7.311  0.00  0.00    +0.024 C 
ENDBRANCH  21  25
ENDBRANCH  20  21
ENDBRANCH  19  20
ENDBRANCH   1  19
TORSDOF 8
ENDMDL
MODEL 5
REMARK VINA RESULT:      -7.0      2.042      5.966
REMARK  Name = *****
REMARK                            x       y       z     vdW  Elec       q    Type
REMARK                         _______ _______ _______ _____ _____    ______ ____
ROOT
ATOM      1  C   LIG    1       24.899 -22.420   6.184  0.00  0.00    +0.114 C 
ENDROOT
BRANCH   1   2
ATOM      2  C   LIG    1       26.215 -21.671   6.625  0.00  0.00    +0.061 A 
ATOM      3  N   LIG    1       26.632 -20.642   5.831  0.00  0.00    -0.259 NA
ATOM      4  C   LIG    1       27.799 -20.018   6.126  0.00  0.00    +0.111 A 
ATOM      5  C   LIG    1       28.592 -20.343   7.207  0.00  0.00    +0.020 A 
ATOM      6  C   LIG    1       28.159 -21.366   8.035  0.00  0.00    +0.003 A 
ATOM      7  C   LIG    1       26.964 -22.033   7.749  0.00  0.00    +0.025 A 
ENDBRANCH   1   2
BRANCH   1   8
ATOM      8  C   LIG    1       25.145 -23.955   6.006  0.00  0.00    -0.027 A 
ATOM      9  C   LIG    1       24.949 -24.593   4.763  0.00  0.00    +0.005 A 
ATOM     10  C   LIG    1       25.293 -25.937   4.561  0.00  0.00    +0.000 A 
ATOM     11  C   LIG    1       25.828 -26.689   5.598  0.00  0.00    +0.000 A 
ATOM     12  C   LIG    1       26.029 -26.095   6.838  0.00  0.00    +0.000 A 
ATOM     13  C   LIG    1       25.708 -24.743   7.035  0.00  0.00    +0.005 A 
ENDBRANCH   1   8
BRANCH   1  14
ATOM     14  C   LIG    1       23.792 -22.153   7.258  0.00  0.00    +0.227 C 
ATOM     15  O   LIG    1       23.799 -21.189   8.051  0.00  0.00    -0.275 OA
ATOM     16  N   LIG    1       22.672 -22.935   7.268  0.00  0.00    -0.328 N 
ATOM     17  H   LIG    1       22.047 -22.788   8.050  0.00  0.00    +0.145 HD
ATOM     18  H   LIG    1       22.698 -23.872   6.875  0.00  0.00    +0.145 HD
ENDBRANCH   1  14
BRANCH   1  19
ATOM     19  C   LIG    1       24.481 -21.680   4.839  0.00  0.00    +0.042 C 
BRANCH  19  20
ATOM     20  C   LIG    1       23.171 -20.861   4.744  0.00  0.00    +0.086 C 
BRANCH  20  21
ATOM     21  N   LIG    1       23.336 -19.399   4.463  0.00  0.00    -0.297 NA
BRANCH  21  23
ATOM     22  C   LIG    1       22.417 -17.037   4.689  0.00  0.00    +0.024 C 
ATOM     23  C   LIG    1       22.132 -18.551   4.679  0.00  0.00    +0.051 C 
ATOM     24  C   LIG    1       21.006 -18.748   3.638  0.00  0.00    +0.024 C 
ENDBRANCH  21  23
BRANCH  21  25
ATOM     25  C   LIG    1       24.180 -19.038   3.288  0.00  0.00    +0.051 C 
ATOM     26  C   LIG    1       24.594 -20.182   2.344  0.00  0.00    +0.024 C 
ATOM     27  C   LIG    1       25.440 -18.208   3.581  0.00  0.00    +0.024 C 
ENDBRANCH  21  25
ENDBRANCH  20  21
ENDBRANCH  19  20
ENDBRANCH   1  19
TORSDOF 8
ENDMDL
MODEL 6
REMARK VINA RESULT:      -7.0      1.792      5.973
REMARK  Name = *****
REMARK                            x       y       z     vdW  Elec       q    Type
REMARK                         _______ _______ _______ _____ _____    ______ ____
ROOT
ATOM      1  C   LIG    1       25.430 -21.908   6.486  0.00  0.00    +0.114 C 
ENDROOT
BRANCH   1   2
ATOM      2  C   LIG    1       26.878 -21.296   6.613  0.00  0.00    +0.061 A 
ATOM      3  N   LIG    1       27.703 -21.856   7.544  0.00  0.00    -0.259 NA
ATOM      4  C   LIG    1       28.930 -21.315   7.743  0.00  0.00    +0.111 A 
ATOM      5  C   LIG    1       29.416 -20.235   7.038  0.00  0.00    +0.020 A 
ATOM      6  C   LIG    1       28.597 -19.681   6.068  0.00  0.00    +0.003 A 
ATOM      7  C   LIG    1       27.323 -20.212   5.849  0.00  0.00    +0.025 A 
ENDBRANCH   1   2
BRANCH   1   8
ATOM      8  C   LIG    1       25.479 -23.454   6.250  0.00  0.00    -0.027 A 
ATOM      9  C   LIG    1       25.874 -24.344   7.271  0.00  0.00    +0.005 A 
ATOM     10  C   LIG    1       25.793 -25.734   7.110  0.00  0.00    +0.000 A 
ATOM     11  C   LIG    1       25.331 -26.279   5.919  0.00  0.00    +0.000 A 
ATOM     12  C   LIG    1       24.939 -25.432   4.889  0.00  0.00    +0.000 A 
ATOM     13  C   LIG    1       24.996 -24.040   5.057  0.00  0.00    +0.005 A 
ENDBRANCH   1   8
BRANCH   1  14
ATOM     14  C   LIG    1       24.630 -21.567   7.787  0.00  0.00    +0.227 C 
ATOM     15  O   LIG    1       23.459 -21.938   8.010  0.00  0.00    -0.275 OA
ATOM     16  N   LIG    1       25.268 -20.931   8.814  0.00  0.00    -0.328 N 
ATOM     17  H   LIG    1       24.674 -20.640   9.580  0.00  0.00    +0.145 HD
ATOM     18  H   LIG    1       26.091 -20.363   8.633  0.00  0.00    +0.145 HD
ENDBRANCH   1  14
BRANCH   1  19
ATOM     19  C   LIG    1       24.787 -21.098   5.276  0.00  0.00    +0.042 C 
BRANCH  19  20
ATOM     20  C   LIG    1       23.736 -19.989   5.519  0.00  0.00    +0.086 C 
BRANCH  20  21
ATOM     21  N   LIG    1       23.094 -19.421   4.291  0.00  0.00    -0.297 NA
BRANCH  21  23
ATOM     22  C   LIG    1       25.208 -18.191   3.588  0.00  0.00    +0.024 C 
ATOM     23  C   LIG    1       24.012 -19.070   3.174  0.00  0.00    +0.051 C 
ATOM     24  C   LIG    1       24.632 -20.281   2.438  0.00  0.00    +0.024 C 
ENDBRANCH  21  23
BRANCH  21  25
ATOM     25  C   LIG    1       21.953 -18.486   4.507  0.00  0.00    +0.051 C 
ATOM     26  C   LIG    1       20.790 -18.554   3.498  0.00  0.00    +0.024 C 
ATOM     27  C   LIG    1       22.310 -17.003   4.694  0.00  0.00    +0.024 C 
ENDBRANCH  21  25
ENDBRANCH  20  21
ENDBRANCH  19  20
ENDBRANCH   1  19
TORSDOF 8
ENDMDL
MODEL 7
REMARK VINA RESULT:      -6.5      6.712      9.496
REMARK  Name = *****
REMARK                            x       y       z     vdW  Elec       q    Type
REMARK                         _______ _______ _______ _____ _____    ______ ____
ROOT
ATOM      1  C   LIG    1       25.324 -30.541   7.783  0.00  0.00    +0.114 C 
ENDROOT
BRANCH   1   2
ATOM      2  C   LIG    1       25.859 -31.510   6.660  0.00  0.00    +0.061 A 
ATOM      3  N   LIG    1       25.125 -31.588   5.513  0.00  0.00    -0.259 NA
ATOM      4  C   LIG    1       25.503 -32.464   4.550  0.00  0.00    +0.111 A 
ATOM      5  C   LIG    1       26.613 -33.276   4.645  0.00  0.00    +0.020 A 
ATOM      6  C   LIG    1       27.382 -33.180   5.793  0.00  0.00    +0.003 A 
ATOM      7  C   LIG    1       27.010 -32.292   6.807  0.00  0.00    +0.025 A 
ENDBRANCH   1   2
BRANCH   1   8
ATOM      8  C   LIG    1       25.189 -29.073   7.258  0.00  0.00    -0.027 A 
ATOM      9  C   LIG    1       26.029 -28.042   7.729  0.00  0.00    +0.005 A 
ATOM     10  C   LIG    1       26.005 -26.757   7.169  0.00  0.00    +0.000 A 
ATOM     11  C   LIG    1       25.130 -26.457   6.133  0.00  0.00    +0.000 A 
ATOM     12  C   LIG    1       24.283 -27.447   5.649  0.00  0.00    +0.000 A 
ATOM     13  C   LIG    1       24.323 -28.740   6.191  0.00  0.00    +0.005 A 
ENDBRANCH   1   8
BRANCH   1  14
ATOM     14  C   LIG    1       23.945 -31.081   8.291  0.00  0.00    +0.227 C 
ATOM     15  O   LIG    1       23.086 -30.383   8.868  0.00  0.00    -0.275 OA
ATOM     16  N   LIG    1       23.578 -32.361   7.987  0.00  0.00    -0.328 N 
ATOM     17  H   LIG    1       22.732 -32.688   8.434  0.00  0.00    +0.145 HD
ATOM     18  H   LIG    1       24.286 -33.062   7.782  0.00  0.00    +0.145 HD
ENDBRANCH   1  14
BRANCH   1  19
ATOM     19  C   LIG    1       26.387 -30.704   8.956  0.00  0.00    +0.042 C 
BRANCH  19  20
ATOM     20  C   LIG    1       25.946 -30.791  10.436  0.00  0.00    +0.086 C 
BRANCH  20  21
ATOM     21  N   LIG    1       25.799 -29.482  11.150  0.00  0.00    -0.297 NA
BRANCH  21  23
ATOM     22  C   LIG    1       26.837 -27.316  11.993  0.00  0.00    +0.024 C 
ATOM     23  C   LIG    1       27.009 -28.615  11.183  0.00  0.00    +0.051 C 
ATOM     24  C   LIG    1       28.275 -29.291  11.759  0.00  0.00    +0.024 C 
ENDBRANCH  21  23
BRANCH  21  25
ATOM     25  C   LIG    1       24.975 -29.488  12.392  0.00  0.00    +0.051 C 
ATOM     26  C   LIG    1       25.046 -30.749  13.274  0.00  0.00    +0.024 C 
ATOM     27  C   LIG    1       23.490 -29.128  12.228  0.00  0.00    +0.024 C 
ENDBRANCH  21  25
ENDBRANCH  20  21
ENDBRANCH  19  20
ENDBRANCH   1  19
TORSDOF 8
ENDMDL
MODEL 8
REMARK VINA RESULT:      -6.4      7.212      9.952
REMARK  Name = *****
REMARK                            x       y       z     vdW  Elec       q    Type
REMARK                         _______ _______ _______ _____ _____    ______ ____
ROOT
ATOM      1  C   LIG    1       25.516 -30.079   9.174  0.00  0.00    +0.114 C 
ENDROOT
BRANCH   1   2
ATOM      2  C   LIG    1       25.127 -29.281   7.871  0.00  0.00    +0.061 A 
ATOM      3  N   LIG    1       24.279 -29.901   7.000  0.00  0.00    -0.259 NA
ATOM      4  C   LIG    1       23.976 -29.286   5.831  0.00  0.00    +0.111 A 
ATOM      5  C   LIG    1       24.455 -28.044   5.470  0.00  0.00    +0.020 A 
ATOM      6  C   LIG    1       25.291 -27.394   6.363  0.00  0.00    +0.003 A 
ATOM      7  C   LIG    1       25.628 -28.010   7.572  0.00  0.00    +0.025 A 
ENDBRANCH   1   2
BRANCH   1   8
ATOM      8  C   LIG    1       24.269 -30.769   9.819  0.00  0.00    -0.027 A 
ATOM      9  C   LIG    1       24.333 -32.085  10.324  0.00  0.00    +0.005 A 
ATOM     10  C   LIG    1       23.262 -32.661  11.021  0.00  0.00    +0.000 A 
ATOM     11  C   LIG    1       22.088 -31.947  11.222  0.00  0.00    +0.000 A 
ATOM     12  C   LIG    1       21.987 -30.650  10.732  0.00  0.00    +0.000 A 
ATOM     13  C   LIG    1       23.067 -30.064  10.056  0.00  0.00    +0.005 A 
ENDBRANCH   1   8
BRANCH   1  14
ATOM     14  C   LIG    1       26.609 -31.136   8.802  0.00  0.00    +0.227 C 
ATOM     15  O   LIG    1       27.382 -31.668   9.625  0.00  0.00    -0.275 OA
ATOM     16  N   LIG    1       26.661 -31.619   7.525  0.00  0.00    -0.328 N 
ATOM     17  H   LIG    1       27.453 -32.213   7.317  0.00  0.00    +0.145 HD
ATOM     18  H   LIG    1       26.286 -31.073   6.754  0.00  0.00    +0.145 HD
ENDBRANCH   1  14
BRANCH   1  19
ATOM     19  C   LIG    1       26.186 -28.974  10.104  0.00  0.00    +0.042 C 
BRANCH  19  20
ATOM     20  C   LIG    1       26.259 -29.151  11.639  0.00  0.00    +0.086 C 
BRANCH  20  21
ATOM     21  N   LIG    1       25.667 -28.041  12.452  0.00  0.00    -0.297 NA
BRANCH  21  23
ATOM     22  C   LIG    1       26.041 -25.642  13.214  0.00  0.00    +0.024 C 
ATOM     23  C   LIG    1       26.630 -27.050  13.006  0.00  0.00    +0.051 C 
ATOM     24  C   LIG    1       27.249 -27.439  14.369  0.00  0.00    +0.024 C 
ENDBRANCH  21  23
BRANCH  21  25
ATOM     25  C   LIG    1       24.527 -28.401  13.342  0.00  0.00    +0.051 C 
ATOM     26  C   LIG    1       24.314 -29.899  13.637  0.00  0.00    +0.024 C 
ATOM     27  C   LIG    1       23.158 -27.809  12.971  0.00  0.00    +0.024 C 
ENDBRANCH  21  25
ENDBRANCH  20  21
ENDBRANCH  19  20
ENDBRANCH   1  19
TORSDOF 8
ENDMDL
MODEL 9
REMARK VINA RESULT:      -6.3      7.161     10.291
REMARK  Name = *****
REMARK                            x       y       z     vdW  Elec       q    Type
REMARK                         _______ _______ _______ _____ _____    ______ ____
ROOT
ATOM      1  C   LIG    1       25.434 -30.293   8.632  0.00  0.00    +0.114 C 
ENDROOT
BRANCH   1   2
ATOM      2  C   LIG    1       25.105 -29.186   7.558  0.00  0.00    +0.061 A 
ATOM      3  N   LIG    1       24.210 -29.519   6.584  0.00  0.00    -0.259 NA
ATOM      4  C   LIG    1       23.953 -28.627   5.596  0.00  0.00    +0.111 A 
ATOM      5  C   LIG    1       24.528 -27.376   5.524  0.00  0.00    +0.020 A 
ATOM      6  C   LIG    1       25.413 -27.018   6.527  0.00  0.00    +0.003 A 
ATOM      7  C   LIG    1       25.704 -27.921   7.552  0.00  0.00    +0.025 A 
ENDBRANCH   1   2
BRANCH   1   8
ATOM      8  C   LIG    1       24.130 -30.919   9.229  0.00  0.00    -0.027 A 
ATOM      9  C   LIG    1       23.246 -30.160  10.025  0.00  0.00    +0.005 A 
ATOM     10  C   LIG    1       22.013 -30.673  10.452  0.00  0.00    +0.000 A 
ATOM     11  C   LIG    1       21.631 -31.964  10.111  0.00  0.00    +0.000 A 
ATOM     12  C   LIG    1       22.480 -32.742   9.333  0.00  0.00    +0.000 A 
ATOM     13  C   LIG    1       23.704 -32.222   8.884  0.00  0.00    +0.005 A 
ENDBRANCH   1   8
BRANCH   1  14
ATOM     14  C   LIG    1       26.322 -31.391   7.958  0.00  0.00    +0.227 C 
ATOM     15  O   LIG    1       26.910 -32.300   8.580  0.00  0.00    -0.275 OA
ATOM     16  N   LIG    1       26.375 -31.461   6.595  0.00  0.00    -0.328 N 
ATOM     17  H   LIG    1       27.048 -32.116   6.219  0.00  0.00    +0.145 HD
ATOM     18  H   LIG    1       26.175 -30.639   6.031  0.00  0.00    +0.145 HD
ENDBRANCH   1  14
BRANCH   1  19
ATOM     19  C   LIG    1       26.320 -29.522   9.705  0.00  0.00    +0.042 C 
BRANCH  19  20
ATOM     20  C   LIG    1       26.779 -30.209  11.013  0.00  0.00    +0.086 C 
BRANCH  20  21
ATOM     21  N   LIG    1       26.238 -29.623  12.281  0.00  0.00    -0.297 NA
BRANCH  21  23
ATOM     22  C   LIG    1       25.248 -31.949  12.573  0.00  0.00    +0.024 C 
ATOM     23  C   LIG    1       25.534 -30.567  13.191  0.00  0.00    +0.051 C 
ATOM     24  C   LIG    1       26.270 -30.859  14.519  0.00  0.00    +0.024 C 
ENDBRANCH  21  23
BRANCH  21  25
ATOM     25  C   LIG    1       25.648 -28.257  12.185  0.00  0.00    +0.051 C 
ATOM     26  C   LIG    1       26.565 -27.071  12.539  0.00  0.00    +0.024 C 
ATOM     27  C   LIG    1       24.313 -28.037  12.915  0.00  0.00    +0.024 C 
ENDBRANCH  21  25
ENDBRANCH  20  21
ENDBRANCH  19  20
ENDBRANCH   1  19
TORSDOF 8
ENDMDL
