MODEL 1
REMARK VINA RESULT:      -9.5      0.000      0.000
REMARK  Name = *****
REMARK                            x       y       z     vdW  Elec       q    Type
REMARK                         _______ _______ _______ _____ _____    ______ ____
ROOT
ATOM      1  C   LIG    1       26.751 -21.698   7.430  0.00  0.00    -0.017 C 
ATOM      2  C   LIG    1       25.824 -22.053   6.515  0.00  0.00    -0.013 C 
ATOM      3  C   LIG    1       25.073 -21.062   5.700  0.00  0.00    -0.003 A 
ATOM      4  C   LIG    1       23.667 -21.152   5.657  0.00  0.00    +0.021 A 
ATOM      5  C   LIG    1       22.931 -20.225   4.906  0.00  0.00    +0.017 A 
ATOM      6  C   LIG    1       23.588 -19.242   4.164  0.00  0.00    +0.021 A 
ATOM      7  C   LIG    1       24.981 -19.196   4.160  0.00  0.00    +0.042 A 
ATOM      8 CL   LIG    1       25.792 -18.011   3.211  0.00  0.00    -0.084 Cl
ATOM      9  S   LIG    1       22.777 -22.459   6.505  0.00  0.00    -0.088 S 
ATOM     10  C   LIG    1       24.012 -23.764   6.480  0.00  0.00    +0.021 A 
ATOM     11  C   LIG    1       23.579 -25.095   6.448  0.00  0.00    +0.015 A 
ATOM     12  C   LIG    1       24.507 -26.137   6.399  0.00  0.00    +0.001 A 
ATOM     13  C   LIG    1       25.871 -25.856   6.380  0.00  0.00    +0.001 A 
ATOM     14  C   LIG    1       26.315 -24.533   6.423  0.00  0.00    +0.009 A 
ATOM     15  C   LIG    1       25.724 -20.103   4.913  0.00  0.00    +0.029 A 
ATOM     16  C   LIG    1       25.392 -23.478   6.489  0.00  0.00    -0.004 A 
ENDROOT
BRANCH   1  17
ATOM     17  C   LIG    1       27.231 -20.317   7.812  0.00  0.00    +0.043 C 
BRANCH  17  18
ATOM     18  C   LIG    1       28.679 -20.081   7.348  0.00  0.00    +0.088 C 
BRANCH  18  20
ATOM     19  C   LIG    1       30.735 -20.680   8.440  0.00  0.00    +0.104 C 
ATOM     20  N   LIG    1       29.617 -19.731   8.433  0.00  0.00    -0.308 NA
ATOM     21  C   LIG    1       30.132 -18.366   8.302  0.00  0.00    +0.104 C 
ENDBRANCH  18  20
ENDBRANCH  17  18
ENDBRANCH   1  17
TORSDOF 3
ENDMDL
MODEL 2
REMARK VINA RESULT:      -6.6      5.936      9.157
REMARK  Name = *****
REMARK                            x       y       z     vdW  Elec       q    Type
REMARK                         _______ _______ _______ _____ _____    ______ ____
ROOT
ATOM      1  C   LIG    1       25.050 -27.983   6.991  0.00  0.00    -0.017 C 
ATOM      2  C   LIG    1       25.244 -29.186   7.572  0.00  0.00    -0.013 C 
ATOM      3  C   LIG    1       24.914 -30.470   6.900  0.00  0.00    -0.003 A 
ATOM      4  C   LIG    1       24.120 -31.407   7.591  0.00  0.00    +0.021 A 
ATOM      5  C   LIG    1       23.782 -32.622   6.979  0.00  0.00    +0.017 A 
ATOM      6  C   LIG    1       24.269 -32.927   5.707  0.00  0.00    +0.021 A 
ATOM      7  C   LIG    1       25.106 -32.024   5.053  0.00  0.00    +0.042 A 
ATOM      8 CL   LIG    1       25.741 -32.418   3.503  0.00  0.00    -0.084 Cl
ATOM      9  S   LIG    1       23.555 -31.113   9.269  0.00  0.00    -0.088 S 
ATOM     10  C   LIG    1       24.876 -30.058   9.877  0.00  0.00    +0.021 A 
ATOM     11  C   LIG    1       25.191 -30.100  11.241  0.00  0.00    +0.015 A 
ATOM     12  C   LIG    1       26.229 -29.316  11.748  0.00  0.00    +0.001 A 
ATOM     13  C   LIG    1       26.960 -28.490  10.897  0.00  0.00    +0.001 A 
ATOM     14  C   LIG    1       26.647 -28.433   9.537  0.00  0.00    +0.009 A 
ATOM     15  C   LIG    1       25.437 -30.806   5.645  0.00  0.00    +0.029 A 
ATOM     16  C   LIG    1       25.595 -29.202   9.020  0.00  0.00    -0.004 A 
ENDROOT
BRANCH   1  17
ATOM     17  C   LIG    1       24.507 -27.667   5.616  0.00  0.00    +0.043 C 
BRANCH  17  18
ATOM     18  C   LIG    1       24.613 -26.163   5.307  0.00  0.00    +0.088 C 
BRANCH  18  20
ATOM     19  C   LIG    1       25.849 -24.468   6.481  0.00  0.00    +0.104 C 
ATOM     20  N   LIG    1       24.639 -25.296   6.501  0.00  0.00    -0.308 NA
ATOM     21  C   LIG    1       23.457 -24.435   6.587  0.00  0.00    +0.104 C 
ENDBRANCH  18  20
ENDBRANCH  17  18
ENDBRANCH   1  17
TORSDOF 3
ENDMDL
MODEL 3
REMARK VINA RESULT:      -6.6      2.867      6.147
REMARK  Name = *****
REMARK                            x       y       z     vdW  Elec       q    Type
REMARK                         _______ _______ _______ _____ _____    ______ ____
ROOT
ATOM      1  C   LIG    1       25.946 -19.774   4.537  0.00  0.00    -0.017 C 
ATOM      2  C   LIG    1       26.502 -20.516   5.518  0.00  0.00    -0.013 C 
ATOM      3  C   LIG    1       25.871 -21.752   6.052  0.00  0.00    -0.003 A 
ATOM      4  C   LIG    1       25.711 -21.879   7.446  0.00  0.00    +0.021 A 
ATOM      5  C   LIG    1       25.110 -23.027   7.978  0.00  0.00    +0.017 A 
ATOM      6  C   LIG    1       24.711 -24.066   7.135  0.00  0.00    +0.021 A 
ATOM      7  C   LIG    1       24.928 -23.963   5.762  0.00  0.00    +0.042 A 
ATOM      8 CL   LIG    1       24.476 -25.262   4.728  0.00  0.00    -0.084 Cl
ATOM      9  S   LIG    1       26.302 -20.622   8.583  0.00  0.00    -0.088 S 
ATOM     10  C   LIG    1       27.677 -19.950   7.642  0.00  0.00    +0.021 A 
ATOM     11  C   LIG    1       28.772 -19.426   8.339  0.00  0.00    +0.015 A 
ATOM     12  C   LIG    1       29.872 -18.920   7.644  0.00  0.00    +0.001 A 
ATOM     13  C   LIG    1       29.886 -18.938   6.251  0.00  0.00    +0.001 A 
ATOM     14  C   LIG    1       28.795 -19.448   5.546  0.00  0.00    +0.009 A 
ATOM     15  C   LIG    1       25.512 -22.820   5.219  0.00  0.00    +0.029 A 
ATOM     16  C   LIG    1       27.676 -19.943   6.233  0.00  0.00    -0.004 A 
ENDROOT
BRANCH   1  17
ATOM     17  C   LIG    1       24.656 -20.005   3.783  0.00  0.00    +0.043 C 
BRANCH  17  18
ATOM     18  C   LIG    1       23.726 -18.783   3.883  0.00  0.00    +0.088 C 
BRANCH  18  20
ATOM     19  C   LIG    1       21.338 -18.526   3.991  0.00  0.00    +0.104 C 
ATOM     20  N   LIG    1       22.523 -18.999   4.712  0.00  0.00    -0.308 NA
ATOM     21  C   LIG    1       22.347 -20.408   5.076  0.00  0.00    +0.104 C 
ENDBRANCH  18  20
ENDBRANCH  17  18
ENDBRANCH   1  17
TORSDOF 3
ENDMDL
