MODEL 1
REMARK VINA RESULT:      -6.4      0.000      0.000
REMARK  Name = *****
REMARK                            x       y       z     vdW  Elec       q    Type
REMARK                         _______ _______ _______ _____ _____    ______ ____
ROOT
ATOM      1  C   LIG    1       24.425 -30.444   8.639  0.00  0.00    -0.007 C 
ATOM      2  C   LIG    1       24.579 -31.738   8.253  0.00  0.00    -0.031 C 
ENDROOT
BRANCH   1   6
ATOM      3  C   LIG    1       25.590 -27.188   6.102  0.00  0.00    +0.121 A 
ATOM      4  C   LIG    1       24.498 -27.981   5.765  0.00  0.00    +0.046 A 
ATOM      5  C   LIG    1       24.115 -29.034   6.598  0.00  0.00    +0.012 A 
ATOM      6  C   LIG    1       24.851 -29.329   7.753  0.00  0.00    -0.017 A 
ATOM      7  C   LIG    1       25.921 -28.507   8.106  0.00  0.00    +0.012 A 
ATOM      8  C   LIG    1       26.285 -27.436   7.287  0.00  0.00    +0.046 A 
BRANCH   3   9
ATOM      9  O   LIG    1       26.036 -26.110   5.388  0.00  0.00    -0.491 OA
BRANCH   9  10
ATOM     10  C   LIG    1       25.146 -24.991   5.317  0.00  0.00    +0.244 C 
BRANCH  10  11
ATOM     11  C   LIG    1       25.384 -24.032   6.495  0.00  0.00    +0.124 C 
BRANCH  11  13
ATOM     12  C   LIG    1       24.551 -22.114   5.307  0.00  0.00    +0.104 C 
ATOM     13  N   LIG    1       24.455 -22.887   6.549  0.00  0.00    -0.305 NA
ATOM     14  C   LIG    1       23.071 -23.313   6.762  0.00  0.00    +0.104 C 
ENDBRANCH  11  13
ENDBRANCH  10  11
ENDBRANCH   9  10
ENDBRANCH   3   9
ENDBRANCH   1   6
BRANCH   1  15
ATOM     15  C   LIG    1       23.775 -30.089   9.941  0.00  0.00    -0.017 A 
ATOM     16  C   LIG    1       22.404 -30.307  10.140  0.00  0.00    +0.008 A 
ATOM     17  C   LIG    1       21.818 -30.070  11.391  0.00  0.00    +0.001 A 
ATOM     18  C   LIG    1       22.596 -29.602  12.446  0.00  0.00    +0.000 A 
ATOM     19  C   LIG    1       23.958 -29.380  12.261  0.00  0.00    +0.001 A 
ATOM     20  C   LIG    1       24.548 -29.628  11.016  0.00  0.00    +0.008 A 
ENDBRANCH   1  15
BRANCH   2  21
ATOM     21  C   LIG    1       25.310 -32.155   7.005  0.00  0.00    -0.021 A 
ATOM     22  C   LIG    1       24.615 -32.436   5.818  0.00  0.00    +0.008 A 
ATOM     23  C   LIG    1       25.298 -32.861   4.664  0.00  0.00    +0.001 A 
ATOM     24  C   LIG    1       26.680 -33.007   4.680  0.00  0.00    +0.000 A 
ATOM     25  C   LIG    1       27.387 -32.716   5.843  0.00  0.00    +0.001 A 
ATOM     26  C   LIG    1       26.705 -32.294   7.001  0.00  0.00    +0.008 A 
ENDBRANCH   2  21
BRANCH   2  27
ATOM     27  C   LIG    1       24.057 -32.919   9.068  0.00  0.00    +0.052 C 
BRANCH  27  28
ATOM     28  C   LIG    1       25.101 -33.438  10.060  0.00  0.00    +0.113 C 
ATOM     29 CL   LIG    1       24.566 -33.170  11.738  0.00  0.00    -0.125 Cl
ENDBRANCH  27  28
ENDBRANCH   2  27
TORSDOF 9
ENDMDL
MODEL 2
REMARK VINA RESULT:      -6.1      6.925     11.092
REMARK  Name = *****
REMARK                            x       y       z     vdW  Elec       q    Type
REMARK                         _______ _______ _______ _____ _____    ______ ____
ROOT
ATOM      1  C   LIG    1       25.558 -21.344   5.719  0.00  0.00    -0.007 C 
ATOM      2  C   LIG    1       25.103 -20.541   4.720  0.00  0.00    -0.031 C 
ENDROOT
BRANCH   1   6
ATOM      3  C   LIG    1       28.821 -20.178   8.247  0.00  0.00    +0.121 A 
ATOM      4  C   LIG    1       27.508 -19.977   8.662  0.00  0.00    +0.046 A 
ATOM      5  C   LIG    1       26.448 -20.367   7.841  0.00  0.00    +0.012 A 
ATOM      6  C   LIG    1       26.695 -20.920   6.579  0.00  0.00    -0.017 A 
ATOM      7  C   LIG    1       28.012 -21.155   6.184  0.00  0.00    +0.012 A 
ATOM      8  C   LIG    1       29.071 -20.791   7.018  0.00  0.00    +0.046 A 
BRANCH   3   9
ATOM      9  O   LIG    1       29.937 -19.874   8.977  0.00  0.00    -0.491 OA
BRANCH   9  10
ATOM     10  C   LIG    1       30.344 -18.502   8.962  0.00  0.00    +0.244 C 
BRANCH  10  11
ATOM     11  C   LIG    1       31.861 -18.383   9.179  0.00  0.00    +0.124 C 
BRANCH  11  13
ATOM     12  C   LIG    1       32.854 -16.362  10.022  0.00  0.00    +0.104 C 
ATOM     13  N   LIG    1       32.249 -17.643  10.396  0.00  0.00    -0.305 NA
ATOM     14  C   LIG    1       31.109 -17.414  11.285  0.00  0.00    +0.104 C 
ENDBRANCH  11  13
ENDBRANCH  10  11
ENDBRANCH   9  10
ENDBRANCH   3   9
ENDBRANCH   1   6
BRANCH   1  15
ATOM     15  C   LIG    1       24.902 -22.655   6.029  0.00  0.00    -0.017 A 
ATOM     16  C   LIG    1       23.663 -22.698   6.684  0.00  0.00    +0.008 A 
ATOM     17  C   LIG    1       23.003 -23.919   6.881  0.00  0.00    +0.001 A 
ATOM     18  C   LIG    1       23.584 -25.103   6.436  0.00  0.00    +0.000 A 
ATOM     19  C   LIG    1       24.814 -25.073   5.785  0.00  0.00    +0.001 A 
ATOM     20  C   LIG    1       25.469 -23.854   5.575  0.00  0.00    +0.008 A 
ENDBRANCH   1  15
BRANCH   2  21
ATOM     21  C   LIG    1       25.780 -19.263   4.303  0.00  0.00    -0.021 A 
ATOM     22  C   LIG    1       27.104 -18.988   4.679  0.00  0.00    +0.008 A 
ATOM     23  C   LIG    1       27.722 -17.777   4.318  0.00  0.00    +0.001 A 
ATOM     24  C   LIG    1       27.027 -16.829   3.577  0.00  0.00    +0.000 A 
ATOM     25  C   LIG    1       25.719 -17.092   3.180  0.00  0.00    +0.001 A 
ATOM     26  C   LIG    1       25.098 -18.303   3.543  0.00  0.00    +0.008 A 
ENDBRANCH   2  21
BRANCH   2  27
ATOM     27  C   LIG    1       23.869 -20.871   3.882  0.00  0.00    +0.052 C 
BRANCH  27  28
ATOM     28  C   LIG    1       22.570 -20.598   4.644  0.00  0.00    +0.113 C 
ATOM     29 CL   LIG    1       22.166 -18.864   4.604  0.00  0.00    -0.125 Cl
ENDBRANCH  27  28
ENDBRANCH   2  27
TORSDOF 9
ENDMDL
MODEL 3
REMARK VINA RESULT:      -5.9      1.405      2.252
REMARK  Name = *****
REMARK                            x       y       z     vdW  Elec       q    Type
REMARK                         _______ _______ _______ _____ _____    ______ ____
ROOT
ATOM      1  C   LIG    1       25.774 -30.001   9.046  0.00  0.00    -0.007 C 
ATOM      2  C   LIG    1       25.703 -31.325   8.743  0.00  0.00    -0.031 C 
ENDROOT
BRANCH   1   6
ATOM      3  C   LIG    1       24.857 -26.998   6.124  0.00  0.00    +0.121 A 
ATOM      4  C   LIG    1       24.035 -28.113   6.264  0.00  0.00    +0.046 A 
ATOM      5  C   LIG    1       24.331 -29.083   7.223  0.00  0.00    +0.012 A 
ATOM      6  C   LIG    1       25.477 -28.968   8.018  0.00  0.00    -0.017 A 
ATOM      7  C   LIG    1       26.276 -27.830   7.901  0.00  0.00    +0.012 A 
ATOM      8  C   LIG    1       25.963 -26.846   6.961  0.00  0.00    +0.046 A 
BRANCH   3   9
ATOM      9  O   LIG    1       24.650 -25.967   5.250  0.00  0.00    -0.491 OA
BRANCH   9  10
ATOM     10  C   LIG    1       25.045 -24.669   5.703  0.00  0.00    +0.244 C 
BRANCH  10  11
ATOM     11  C   LIG    1       23.910 -24.003   6.499  0.00  0.00    +0.124 C 
BRANCH  11  13
ATOM     12  C   LIG    1       24.260 -21.852   7.515  0.00  0.00    +0.104 C 
ATOM     13  N   LIG    1       23.803 -22.543   6.307  0.00  0.00    -0.305 NA
ATOM     14  C   LIG    1       24.574 -22.084   5.150  0.00  0.00    +0.104 C 
ENDBRANCH  11  13
ENDBRANCH  10  11
ENDBRANCH   9  10
ENDBRANCH   3   9
ENDBRANCH   1   6
BRANCH   1  15
ATOM     15  C   LIG    1       26.099 -29.532  10.431  0.00  0.00    -0.017 A 
ATOM     16  C   LIG    1       27.430 -29.434  10.860  0.00  0.00    +0.008 A 
ATOM     17  C   LIG    1       27.736 -28.900  12.119  0.00  0.00    +0.001 A 
ATOM     18  C   LIG    1       26.713 -28.473  12.961  0.00  0.00    +0.000 A 
ATOM     19  C   LIG    1       25.388 -28.567  12.547  0.00  0.00    +0.001 A 
ATOM     20  C   LIG    1       25.080 -29.088  11.285  0.00  0.00    +0.008 A 
ENDBRANCH   1  15
BRANCH   2  21
ATOM     21  C   LIG    1       25.477 -31.851   7.351  0.00  0.00    -0.021 A 
ATOM     22  C   LIG    1       26.514 -31.868   6.406  0.00  0.00    +0.008 A 
ATOM     23  C   LIG    1       26.290 -32.327   5.095  0.00  0.00    +0.001 A 
ATOM     24  C   LIG    1       25.031 -32.776   4.715  0.00  0.00    +0.000 A 
ATOM     25  C   LIG    1       23.995 -32.783   5.645  0.00  0.00    +0.001 A 
ATOM     26  C   LIG    1       24.216 -32.321   6.956  0.00  0.00    +0.008 A 
ENDBRANCH   2  21
BRANCH   2  27
ATOM     27  C   LIG    1       25.883 -32.428   9.783  0.00  0.00    +0.052 C 
BRANCH  27  28
ATOM     28  C   LIG    1       24.573 -32.759  10.502  0.00  0.00    +0.113 C 
ATOM     29 CL   LIG    1       24.741 -32.531  12.261  0.00  0.00    -0.125 Cl
ENDBRANCH  27  28
ENDBRANCH   2  27
TORSDOF 9
ENDMDL
MODEL 4
REMARK VINA RESULT:      -5.5      5.929     10.368
REMARK  Name = *****
REMARK                            x       y       z     vdW  Elec       q    Type
REMARK                         _______ _______ _______ _____ _____    ______ ____
ROOT
ATOM      1  C   LIG    1       25.067 -21.984   5.620  0.00  0.00    -0.007 C 
ATOM      2  C   LIG    1       23.974 -21.437   5.024  0.00  0.00    -0.031 C 
ENDROOT
BRANCH   1   6
ATOM      3  C   LIG    1       28.266 -19.563   7.136  0.00  0.00    +0.121 A 
ATOM      4  C   LIG    1       27.309 -20.082   8.004  0.00  0.00    +0.046 A 
ATOM      5  C   LIG    1       26.275 -20.878   7.508  0.00  0.00    +0.012 A 
ATOM      6  C   LIG    1       26.165 -21.123   6.134  0.00  0.00    -0.017 A 
ATOM      7  C   LIG    1       27.148 -20.633   5.274  0.00  0.00    +0.012 A 
ATOM      8  C   LIG    1       28.198 -19.861   5.775  0.00  0.00    +0.046 A 
BRANCH   3   9
ATOM      9  O   LIG    1       29.342 -18.804   7.507  0.00  0.00    -0.491 OA
BRANCH   9  10
ATOM     10  C   LIG    1       30.579 -19.504   7.669  0.00  0.00    +0.244 C 
BRANCH  10  11
ATOM     11  C   LIG    1       31.304 -19.039   8.942  0.00  0.00    +0.124 C 
BRANCH  11  13
ATOM     12  C   LIG    1       30.492 -17.639  10.721  0.00  0.00    +0.104 C 
ATOM     13  N   LIG    1       31.001 -17.652   9.347  0.00  0.00    -0.305 NA
ATOM     14  C   LIG    1       32.174 -16.782   9.244  0.00  0.00    +0.104 C 
ENDBRANCH  11  13
ENDBRANCH  10  11
ENDBRANCH   9  10
ENDBRANCH   3   9
ENDBRANCH   1   6
BRANCH   1  15
ATOM     15  C   LIG    1       25.185 -23.463   5.829  0.00  0.00    -0.017 A 
ATOM     16  C   LIG    1       24.955 -24.357   4.774  0.00  0.00    +0.008 A 
ATOM     17  C   LIG    1       25.164 -25.732   4.945  0.00  0.00    +0.001 A 
ATOM     18  C   LIG    1       25.593 -26.222   6.175  0.00  0.00    +0.000 A 
ATOM     19  C   LIG    1       25.823 -25.345   7.231  0.00  0.00    +0.001 A 
ATOM     20  C   LIG    1       25.627 -23.970   7.060  0.00  0.00    +0.008 A 
ENDBRANCH   1  15
BRANCH   2  21
ATOM     21  C   LIG    1       23.845 -19.973   4.701  0.00  0.00    -0.021 A 
ATOM     22  C   LIG    1       22.724 -19.236   5.113  0.00  0.00    +0.008 A 
ATOM     23  C   LIG    1       22.589 -17.876   4.778  0.00  0.00    +0.001 A 
ATOM     24  C   LIG    1       23.571 -17.237   4.030  0.00  0.00    +0.000 A 
ATOM     25  C   LIG    1       24.699 -17.949   3.628  0.00  0.00    +0.001 A 
ATOM     26  C   LIG    1       24.834 -19.310   3.960  0.00  0.00    +0.008 A 
ENDBRANCH   2  21
BRANCH   2  27
ATOM     27  C   LIG    1       22.766 -22.261   4.582  0.00  0.00    +0.052 C 
BRANCH  27  28
ATOM     28  C   LIG    1       21.710 -22.367   5.685  0.00  0.00    +0.113 C 
ATOM     29 CL   LIG    1       22.185 -23.579   6.901  0.00  0.00    -0.125 Cl
ENDBRANCH  27  28
ENDBRANCH   2  27
TORSDOF 9
ENDMDL
MODEL 5
REMARK VINA RESULT:      -5.4      6.226     10.278
REMARK  Name = *****
REMARK                            x       y       z     vdW  Elec       q    Type
REMARK                         _______ _______ _______ _____ _____    ______ ____
ROOT
ATOM      1  C   LIG    1       24.783 -20.768   5.457  0.00  0.00    -0.007 C 
ATOM      2  C   LIG    1       24.295 -22.000   5.147  0.00  0.00    -0.031 C 
ENDROOT
BRANCH   1   6
ATOM      3  C   LIG    1       28.453 -20.272   7.619  0.00  0.00    +0.121 A 
ATOM      4  C   LIG    1       28.463 -20.331   6.229  0.00  0.00    +0.046 A 
ATOM      5  C   LIG    1       27.265 -20.483   5.528  0.00  0.00    +0.012 A 
ATOM      6  C   LIG    1       26.053 -20.622   6.216  0.00  0.00    -0.017 A 
ATOM      7  C   LIG    1       26.045 -20.523   7.607  0.00  0.00    +0.012 A 
ATOM      8  C   LIG    1       27.240 -20.342   8.305  0.00  0.00    +0.046 A 
BRANCH   3   9
ATOM      9  O   LIG    1       29.553 -20.088   8.411  0.00  0.00    -0.491 OA
BRANCH   9  10
ATOM     10  C   LIG    1       30.082 -18.759   8.456  0.00  0.00    +0.244 C 
BRANCH  10  11
ATOM     11  C   LIG    1       31.572 -18.779   8.831  0.00  0.00    +0.124 C 
BRANCH  11  13
ATOM     12  C   LIG    1       32.469 -16.693   9.622  0.00  0.00    +0.104 C 
ATOM     13  N   LIG    1       31.912 -17.986  10.029  0.00  0.00    -0.305 NA
ATOM     14  C   LIG    1       30.751 -17.776  10.895  0.00  0.00    +0.104 C 
ENDBRANCH  11  13
ENDBRANCH  10  11
ENDBRANCH   9  10
ENDBRANCH   3   9
ENDBRANCH   1   6
BRANCH   1  15
ATOM     15  C   LIG    1       24.093 -19.518   5.004  0.00  0.00    -0.017 A 
ATOM     16  C   LIG    1       24.697 -18.667   4.067  0.00  0.00    +0.008 A 
ATOM     17  C   LIG    1       24.009 -17.553   3.569  0.00  0.00    +0.001 A 
ATOM     18  C   LIG    1       22.718 -17.277   4.012  0.00  0.00    +0.000 A 
ATOM     19  C   LIG    1       22.109 -18.114   4.942  0.00  0.00    +0.001 A 
ATOM     20  C   LIG    1       22.789 -19.234   5.432  0.00  0.00    +0.008 A 
ENDBRANCH   1  15
BRANCH   2  21
ATOM     21  C   LIG    1       24.890 -23.285   5.657  0.00  0.00    -0.021 A 
ATOM     22  C   LIG    1       24.987 -24.416   4.831  0.00  0.00    +0.008 A 
ATOM     23  C   LIG    1       25.510 -25.626   5.321  0.00  0.00    +0.001 A 
ATOM     24  C   LIG    1       25.944 -25.721   6.638  0.00  0.00    +0.000 A 
ATOM     25  C   LIG    1       25.871 -24.605   7.466  0.00  0.00    +0.001 A 
ATOM     26  C   LIG    1       25.345 -23.393   6.979  0.00  0.00    +0.008 A 
ENDBRANCH   2  21
BRANCH   2  27
ATOM     27  C   LIG    1       23.060 -22.211   4.274  0.00  0.00    +0.052 C 
BRANCH  27  28
ATOM     28  C   LIG    1       21.767 -22.173   5.091  0.00  0.00    +0.113 C 
ATOM     29 CL   LIG    1       21.971 -23.030   6.639  0.00  0.00    -0.125 Cl
ENDBRANCH  27  28
ENDBRANCH   2  27
TORSDOF 9
ENDMDL
MODEL 6
REMARK VINA RESULT:      -5.3      1.139      1.716
REMARK  Name = *****
REMARK                            x       y       z     vdW  Elec       q    Type
REMARK                         _______ _______ _______ _____ _____    ______ ____
ROOT
ATOM      1  C   LIG    1       25.234 -30.712   9.320  0.00  0.00    -0.007 C 
ATOM      2  C   LIG    1       25.458 -32.006   8.967  0.00  0.00    -0.031 C 
ENDROOT
BRANCH   1   6
ATOM      3  C   LIG    1       24.978 -27.668   6.309  0.00  0.00    +0.121 A 
ATOM      4  C   LIG    1       25.887 -27.543   7.356  0.00  0.00    +0.046 A 
ATOM      5  C   LIG    1       25.975 -28.540   8.329  0.00  0.00    +0.012 A 
ATOM      6  C   LIG    1       25.121 -29.649   8.286  0.00  0.00    -0.017 A 
ATOM      7  C   LIG    1       24.240 -29.789   7.215  0.00  0.00    +0.012 A 
ATOM      8  C   LIG    1       24.173 -28.805   6.227  0.00  0.00    +0.046 A 
BRANCH   3   9
ATOM      9  O   LIG    1       24.828 -26.779   5.281  0.00  0.00    -0.491 OA
BRANCH   9  10
ATOM     10  C   LIG    1       25.666 -25.620   5.324  0.00  0.00    +0.244 C 
BRANCH  10  11
ATOM     11  C   LIG    1       24.861 -24.355   4.983  0.00  0.00    +0.124 C 
BRANCH  11  13
ATOM     12  C   LIG    1       23.612 -23.275   6.731  0.00  0.00    +0.104 C 
ATOM     13  N   LIG    1       24.895 -23.310   6.024  0.00  0.00    -0.305 NA
ATOM     14  C   LIG    1       25.983 -23.523   6.980  0.00  0.00    +0.104 C 
ENDBRANCH  11  13
ENDBRANCH  10  11
ENDBRANCH   9  10
ENDBRANCH   3   9
ENDBRANCH   1   6
BRANCH   1  15
ATOM     15  C   LIG    1       25.038 -30.315  10.752  0.00  0.00    -0.017 A 
ATOM     16  C   LIG    1       23.753 -30.067  11.257  0.00  0.00    +0.008 A 
ATOM     17  C   LIG    1       23.563 -29.796  12.618  0.00  0.00    +0.001 A 
ATOM     18  C   LIG    1       24.656 -29.758  13.479  0.00  0.00    +0.000 A 
ATOM     19  C   LIG    1       25.936 -30.001  12.990  0.00  0.00    +0.001 A 
ATOM     20  C   LIG    1       26.128 -30.285  11.633  0.00  0.00    +0.008 A 
ENDBRANCH   1  15
BRANCH   2  21
ATOM     21  C   LIG    1       25.757 -32.447   7.560  0.00  0.00    -0.021 A 
ATOM     22  C   LIG    1       24.761 -33.015   6.751  0.00  0.00    +0.008 A 
ATOM     23  C   LIG    1       25.053 -33.460   5.449  0.00  0.00    +0.001 A 
ATOM     24  C   LIG    1       26.340 -33.341   4.939  0.00  0.00    +0.000 A 
ATOM     25  C   LIG    1       27.337 -32.764   5.721  0.00  0.00    +0.001 A 
ATOM     26  C   LIG    1       27.048 -32.321   7.026  0.00  0.00    +0.008 A 
ENDBRANCH   2  21
BRANCH   2  27
ATOM     27  C   LIG    1       25.468 -33.155   9.974  0.00  0.00    +0.052 C 
BRANCH  27  28
ATOM     28  C   LIG    1       24.082 -33.782  10.141  0.00  0.00    +0.113 C 
ATOM     29 CL   LIG    1       22.813 -32.676   9.559  0.00  0.00    -0.125 Cl
ENDBRANCH  27  28
ENDBRANCH   2  27
TORSDOF 9
ENDMDL
MODEL 7
REMARK VINA RESULT:      -5.3      6.163      8.821
REMARK  Name = *****
REMARK                            x       y       z     vdW  Elec       q    Type
REMARK                         _______ _______ _______ _____ _____    ______ ____
ROOT
ATOM      1  C   LIG    1       23.312 -27.651  13.750  0.00  0.00    -0.007 C 
ATOM      2  C   LIG    1       23.661 -28.836  13.181  0.00  0.00    -0.031 C 
ENDROOT
BRANCH   1   6
ATOM      3  C   LIG    1       19.175 -26.757  14.444  0.00  0.00    +0.121 A 
ATOM      4  C   LIG    1       19.759 -26.459  13.216  0.00  0.00    +0.046 A 
ATOM      5  C   LIG    1       21.103 -26.761  12.991  0.00  0.00    +0.012 A 
ATOM      6  C   LIG    1       21.885 -27.322  14.008  0.00  0.00    -0.017 A 
ATOM      7  C   LIG    1       21.285 -27.654  15.222  0.00  0.00    +0.012 A 
ATOM      8  C   LIG    1       19.933 -27.378  15.437  0.00  0.00    +0.046 A 
BRANCH   3   9
ATOM      9  O   LIG    1       17.863 -26.545  14.769  0.00  0.00    -0.491 OA
BRANCH   9  10
ATOM     10  C   LIG    1       17.181 -27.642  15.383  0.00  0.00    +0.244 C 
BRANCH  10  11
ATOM     11  C   LIG    1       16.266 -28.349  14.370  0.00  0.00    +0.124 C 
BRANCH  11  13
ATOM     12  C   LIG    1       15.814 -30.355  13.124  0.00  0.00    +0.104 C 
ATOM     13  N   LIG    1       16.378 -29.821  14.366  0.00  0.00    -0.305 NA
ATOM     14  C   LIG    1       17.765 -30.265  14.513  0.00  0.00    +0.104 C 
ENDBRANCH  11  13
ENDBRANCH  10  11
ENDBRANCH   9  10
ENDBRANCH   3   9
ENDBRANCH   1   6
BRANCH   1  15
ATOM     15  C   LIG    1       24.346 -26.659  14.189  0.00  0.00    -0.017 A 
ATOM     16  C   LIG    1       25.294 -26.998  15.165  0.00  0.00    +0.008 A 
ATOM     17  C   LIG    1       26.322 -26.106  15.500  0.00  0.00    +0.001 A 
ATOM     18  C   LIG    1       26.400 -24.867  14.870  0.00  0.00    +0.000 A 
ATOM     19  C   LIG    1       25.464 -24.519  13.901  0.00  0.00    +0.001 A 
ATOM     20  C   LIG    1       24.444 -25.413  13.555  0.00  0.00    +0.008 A 
ENDBRANCH   1  15
BRANCH   2  21
ATOM     21  C   LIG    1       22.666 -29.824  12.635  0.00  0.00    -0.021 A 
ATOM     22  C   LIG    1       22.097 -30.809  13.457  0.00  0.00    +0.008 A 
ATOM     23  C   LIG    1       21.196 -31.754  12.935  0.00  0.00    +0.001 A 
ATOM     24  C   LIG    1       20.851 -31.726  11.589  0.00  0.00    +0.000 A 
ATOM     25  C   LIG    1       21.392 -30.745  10.762  0.00  0.00    +0.001 A 
ATOM     26  C   LIG    1       22.297 -29.800  11.282  0.00  0.00    +0.008 A 
ENDBRANCH   2  21
BRANCH   2  27
ATOM     27  C   LIG    1       25.112 -29.277  12.999  0.00  0.00    +0.052 C 
BRANCH  27  28
ATOM     28  C   LIG    1       25.666 -28.875  11.630  0.00  0.00    +0.113 C 
ATOM     29 CL   LIG    1       26.794 -27.505  11.783  0.00  0.00    -0.125 Cl
ENDBRANCH  27  28
ENDBRANCH   2  27
TORSDOF 9
ENDMDL
MODEL 8
REMARK VINA RESULT:      -5.1      3.753      6.667
REMARK  Name = *****
REMARK                            x       y       z     vdW  Elec       q    Type
REMARK                         _______ _______ _______ _____ _____    ______ ____
ROOT
ATOM      1  C   LIG    1       25.085 -28.681  12.506  0.00  0.00    -0.007 C 
ATOM      2  C   LIG    1       23.790 -28.754  12.915  0.00  0.00    -0.031 C 
ENDROOT
BRANCH   1   6
ATOM      3  C   LIG    1       26.576 -31.087   9.284  0.00  0.00    +0.121 A 
ATOM      4  C   LIG    1       26.460 -29.709   9.132  0.00  0.00    +0.046 A 
ATOM      5  C   LIG    1       25.984 -28.928  10.186  0.00  0.00    +0.012 A 
ATOM      6  C   LIG    1       25.577 -29.526  11.385  0.00  0.00    -0.017 A 
ATOM      7  C   LIG    1       25.732 -30.902  11.546  0.00  0.00    +0.012 A 
ATOM      8  C   LIG    1       26.235 -31.679  10.501  0.00  0.00    +0.046 A 
BRANCH   3   9
ATOM      9  O   LIG    1       27.063 -31.949   8.340  0.00  0.00    -0.491 OA
BRANCH   9  10
ATOM     10  C   LIG    1       26.097 -32.522   7.453  0.00  0.00    +0.244 C 
BRANCH  10  11
ATOM     11  C   LIG    1       26.291 -31.991   6.023  0.00  0.00    +0.124 C 
BRANCH  11  13
ATOM     12  C   LIG    1       23.905 -31.733   6.176  0.00  0.00    +0.104 C 
ATOM     13  N   LIG    1       25.111 -31.307   5.459  0.00  0.00    -0.305 NA
ATOM     14  C   LIG    1       25.239 -29.850   5.524  0.00  0.00    +0.104 C 
ENDBRANCH  11  13
ENDBRANCH  10  11
ENDBRANCH   9  10
ENDBRANCH   3   9
ENDBRANCH   1   6
BRANCH   1  15
ATOM     15  C   LIG    1       26.048 -27.715  13.126  0.00  0.00    -0.017 A 
ATOM     16  C   LIG    1       26.150 -26.400  12.648  0.00  0.00    +0.008 A 
ATOM     17  C   LIG    1       26.976 -25.470  13.293  0.00  0.00    +0.001 A 
ATOM     18  C   LIG    1       27.713 -25.852  14.411  0.00  0.00    +0.000 A 
ATOM     19  C   LIG    1       27.620 -27.154  14.893  0.00  0.00    +0.001 A 
ATOM     20  C   LIG    1       26.787 -28.082  14.259  0.00  0.00    +0.008 A 
ENDBRANCH   1  15
BRANCH   2  21
ATOM     21  C   LIG    1       22.807 -29.769  12.398  0.00  0.00    -0.021 A 
ATOM     22  C   LIG    1       22.364 -30.827  13.207  0.00  0.00    +0.008 A 
ATOM     23  C   LIG    1       21.473 -31.794  12.708  0.00  0.00    +0.001 A 
ATOM     24  C   LIG    1       21.013 -31.716  11.399  0.00  0.00    +0.000 A 
ATOM     25  C   LIG    1       21.428 -30.664  10.588  0.00  0.00    +0.001 A 
ATOM     26  C   LIG    1       22.322 -29.696  11.084  0.00  0.00    +0.008 A 
ENDBRANCH   2  21
BRANCH   2  27
ATOM     27  C   LIG    1       23.200 -27.832  13.980  0.00  0.00    +0.052 C 
BRANCH  27  28
ATOM     28  C   LIG    1       22.561 -26.584  13.367  0.00  0.00    +0.113 C 
ATOM     29 CL   LIG    1       20.844 -26.873  12.989  0.00  0.00    -0.125 Cl
ENDBRANCH  27  28
ENDBRANCH   2  27
TORSDOF 9
ENDMDL
MODEL 9
REMARK VINA RESULT:      -5.1      4.329      7.014
REMARK  Name = *****
REMARK                            x       y       z     vdW  Elec       q    Type
REMARK                         _______ _______ _______ _____ _____    ______ ____
ROOT
ATOM      1  C   LIG    1       23.268 -28.754  12.982  0.00  0.00    -0.007 C 
ATOM      2  C   LIG    1       24.428 -28.155  13.366  0.00  0.00    -0.031 C 
ENDROOT
BRANCH   1   6
ATOM      3  C   LIG    1       23.377 -32.151  10.365  0.00  0.00    +0.121 A 
ATOM      4  C   LIG    1       22.949 -30.915   9.890  0.00  0.00    +0.046 A 
ATOM      5  C   LIG    1       22.924 -29.809  10.742  0.00  0.00    +0.012 A 
ATOM      6  C   LIG    1       23.285 -29.943  12.088  0.00  0.00    -0.017 A 
ATOM      7  C   LIG    1       23.751 -31.174  12.549  0.00  0.00    +0.012 A 
ATOM      8  C   LIG    1       23.803 -32.272  11.689  0.00  0.00    +0.046 A 
BRANCH   3   9
ATOM      9  O   LIG    1       23.481 -33.293   9.620  0.00  0.00    -0.491 OA
BRANCH   9  10
ATOM     10  C   LIG    1       23.644 -33.111   8.210  0.00  0.00    +0.244 C 
BRANCH  10  11
ATOM     11  C   LIG    1       25.135 -33.064   7.837  0.00  0.00    +0.124 C 
BRANCH  11  13
ATOM     12  C   LIG    1       26.477 -32.271   6.007  0.00  0.00    +0.104 C 
ATOM     13  N   LIG    1       25.533 -31.877   7.056  0.00  0.00    -0.305 NA
ATOM     14  C   LIG    1       24.380 -31.201   6.458  0.00  0.00    +0.104 C 
ENDBRANCH  11  13
ENDBRANCH  10  11
ENDBRANCH   9  10
ENDBRANCH   3   9
ENDBRANCH   1   6
BRANCH   1  15
ATOM     15  C   LIG    1       21.939 -28.279  13.484  0.00  0.00    -0.017 A 
ATOM     16  C   LIG    1       21.356 -28.854  14.622  0.00  0.00    +0.008 A 
ATOM     17  C   LIG    1       20.163 -28.341  15.148  0.00  0.00    +0.001 A 
ATOM     18  C   LIG    1       19.541 -27.257  14.534  0.00  0.00    +0.000 A 
ATOM     19  C   LIG    1       20.110 -26.679  13.403  0.00  0.00    +0.001 A 
ATOM     20  C   LIG    1       21.307 -27.181  12.882  0.00  0.00    +0.008 A 
ENDBRANCH   1  15
BRANCH   2  21
ATOM     21  C   LIG    1       25.780 -28.527  12.819  0.00  0.00    -0.021 A 
ATOM     22  C   LIG    1       26.135 -28.224  11.496  0.00  0.00    +0.008 A 
ATOM     23  C   LIG    1       27.386 -28.605  10.977  0.00  0.00    +0.001 A 
ATOM     24  C   LIG    1       28.296 -29.290  11.773  0.00  0.00    +0.000 A 
ATOM     25  C   LIG    1       27.967 -29.584  13.094  0.00  0.00    +0.001 A 
ATOM     26  C   LIG    1       26.714 -29.206  13.614  0.00  0.00    +0.008 A 
ENDBRANCH   2  21
BRANCH   2  27
ATOM     27  C   LIG    1       24.479 -27.007  14.371  0.00  0.00    +0.052 C 
BRANCH  27  28
ATOM     28  C   LIG    1       24.668 -25.652  13.685  0.00  0.00    +0.113 C 
ATOM     29 CL   LIG    1       26.383 -25.171  13.696  0.00  0.00    -0.125 Cl
ENDBRANCH  27  28
ENDBRANCH   2  27
TORSDOF 9
ENDMDL
