MODEL 1
REMARK VINA RESULT:      -5.4      0.000      0.000
REMARK  Name = *****
REMARK                            x       y       z     vdW  Elec       q    Type
REMARK                         _______ _______ _______ _____ _____    ______ ____
ROOT
ATOM      1  C   LIG    1       26.735 -15.660   3.245  0.00  0.00    +0.181 C 
ATOM      2  O   LIG    1       25.331 -15.346   3.195  0.00  0.00    -0.340 OA
ATOM      3  C   LIG    1       25.272 -13.918   3.364  0.00  0.00    +0.171 C 
ATOM      4  C   LIG    1       24.220 -13.601   4.432  0.00  0.00    +0.065 C 
ATOM      5  C   LIG    1       23.991 -12.098   4.582  0.00  0.00    +0.005 C 
ATOM      6  C   LIG    1       23.642 -11.448   3.246  0.00  0.00    +0.000 C 
ATOM      7  C   LIG    1       24.689 -11.752   2.177  0.00  0.00    +0.005 C 
ATOM      8  C   LIG    1       24.920 -13.255   2.028  0.00  0.00    +0.065 C 
ATOM      9  O   LIG    1       26.557 -13.433   3.792  0.00  0.00    -0.346 OA
ATOM     10  C   LIG    1       27.286 -14.601   4.167  0.00  0.00    +0.198 C 
ENDROOT
BRANCH   1  11
ATOM     11  C   LIG    1       26.984 -17.090   3.719  0.00  0.00    +0.229 C 
BRANCH  11  12
ATOM     12  N   LIG    1       25.960 -17.993   3.193  0.00  0.00    -0.274 N 
ATOM     13  H   LIG    1       26.072 -18.114   2.189  0.00  0.00    +0.258 HD
BRANCH  12  16
ATOM     14  N   LIG    1       26.505 -19.846   4.507  0.00  0.00    -0.130 NA
ATOM     15  H   LIG    1       26.042 -20.677   4.872  0.00  0.00    +0.306 HD
ATOM     16  C   LIG    1       25.664 -19.144   3.836  0.00  0.00    +0.376 C 
BRANCH  16  17
ATOM     17  N   LIG    1       24.370 -19.476   3.685  0.00  0.00    -0.289 N 
ATOM     18  H   LIG    1       23.806 -19.304   4.509  0.00  0.00    +0.255 HD
ATOM     19  H   LIG    1       24.199 -20.399   3.307  0.00  0.00    +0.255 HD
ENDBRANCH  16  17
ENDBRANCH  12  16
ENDBRANCH  11  12
ENDBRANCH   1  11
TORSDOF 4
ENDMDL
MODEL 2
REMARK VINA RESULT:      -4.6      5.477      6.569
REMARK  Name = *****
REMARK                            x       y       z     vdW  Elec       q    Type
REMARK                         _______ _______ _______ _____ _____    ______ ____
ROOT
ATOM      1  C   LIG    1       25.675 -20.808   5.674  0.00  0.00    +0.181 C 
ATOM      2  O   LIG    1       24.492 -20.199   6.224  0.00  0.00    -0.340 OA
ATOM      3  C   LIG    1       23.537 -20.227   5.147  0.00  0.00    +0.171 C 
ATOM      4  C   LIG    1       22.909 -18.835   5.022  0.00  0.00    +0.065 C 
ATOM      5  C   LIG    1       21.781 -18.805   3.992  0.00  0.00    +0.005 C 
ATOM      6  C   LIG    1       20.726 -19.868   4.285  0.00  0.00    +0.000 C 
ATOM      7  C   LIG    1       21.341 -21.260   4.404  0.00  0.00    +0.005 C 
ATOM      8  C   LIG    1       22.470 -21.290   5.433  0.00  0.00    +0.065 C 
ATOM      9  O   LIG    1       24.206 -20.568   3.921  0.00  0.00    -0.346 OA
ATOM     10  C   LIG    1       25.598 -20.442   4.213  0.00  0.00    +0.198 C 
ENDROOT
BRANCH   1  11
ATOM     11  C   LIG    1       26.944 -20.324   6.373  0.00  0.00    +0.229 C 
BRANCH  11  12
ATOM     12  N   LIG    1       27.957 -19.935   5.391  0.00  0.00    -0.274 N 
ATOM     13  H   LIG    1       27.524 -19.731   4.493  0.00  0.00    +0.258 HD
BRANCH  12  16
ATOM     14  N   LIG    1       29.309 -18.072   4.993  0.00  0.00    -0.130 NA
ATOM     15  H   LIG    1       30.074 -17.582   5.451  0.00  0.00    +0.306 HD
ATOM     16  C   LIG    1       28.932 -19.061   5.721  0.00  0.00    +0.376 C 
BRANCH  16  17
ATOM     17  N   LIG    1       29.475 -19.354   6.917  0.00  0.00    -0.289 N 
ATOM     18  H   LIG    1       30.160 -18.675   7.230  0.00  0.00    +0.255 HD
ATOM     19  H   LIG    1       29.820 -20.299   7.018  0.00  0.00    +0.255 HD
ENDBRANCH  16  17
ENDBRANCH  12  16
ENDBRANCH  11  12
ENDBRANCH   1  11
TORSDOF 4
ENDMDL
MODEL 3
REMARK VINA RESULT:      -4.0      5.279      6.399
REMARK  Name = *****
REMARK                            x       y       z     vdW  Elec       q    Type
REMARK                         _______ _______ _______ _____ _____    ______ ____
ROOT
ATOM      1  C   LIG    1       25.344 -20.536   6.234  0.00  0.00    +0.181 C 
ATOM      2  O   LIG    1       24.835 -20.527   4.888  0.00  0.00    -0.340 OA
ATOM      3  C   LIG    1       23.488 -20.036   5.012  0.00  0.00    +0.171 C 
ATOM      4  C   LIG    1       22.558 -20.967   4.227  0.00  0.00    +0.065 C 
ATOM      5  C   LIG    1       21.123 -20.446   4.189  0.00  0.00    +0.005 C 
ATOM      6  C   LIG    1       21.059 -19.017   3.657  0.00  0.00    +0.000 C 
ATOM      7  C   LIG    1       21.976 -18.080   4.438  0.00  0.00    +0.005 C 
ATOM      8  C   LIG    1       23.412 -18.601   4.478  0.00  0.00    +0.065 C 
ATOM      9  O   LIG    1       23.107 -20.028   6.400  0.00  0.00    -0.346 OA
ATOM     10  C   LIG    1       24.110 -20.798   7.062  0.00  0.00    +0.198 C 
ENDROOT
BRANCH   1  11
ATOM     11  C   LIG    1       26.451 -21.572   6.420  0.00  0.00    +0.229 C 
BRANCH  11  12
ATOM     12  N   LIG    1       27.619 -20.969   7.062  0.00  0.00    -0.274 N 
ATOM     13  H   LIG    1       28.197 -21.684   7.497  0.00  0.00    +0.258 HD
BRANCH  12  16
ATOM     14  N   LIG    1       29.186 -19.238   6.991  0.00  0.00    -0.130 NA
ATOM     15  H   LIG    1       29.576 -18.599   6.302  0.00  0.00    +0.306 HD
ATOM     16  C   LIG    1       28.339 -20.021   6.425  0.00  0.00    +0.376 C 
BRANCH  16  17
ATOM     17  N   LIG    1       28.058 -19.986   5.110  0.00  0.00    -0.289 N 
ATOM     18  H   LIG    1       27.793 -20.885   4.726  0.00  0.00    +0.255 HD
ATOM     19  H   LIG    1       28.748 -19.527   4.530  0.00  0.00    +0.255 HD
ENDBRANCH  16  17
ENDBRANCH  12  16
ENDBRANCH  11  12
ENDBRANCH   1  11
TORSDOF 4
ENDMDL
MODEL 4
REMARK VINA RESULT:      -3.4      2.210      2.703
REMARK  Name = *****
REMARK                            x       y       z     vdW  Elec       q    Type
REMARK                         _______ _______ _______ _____ _____    ______ ____
ROOT
ATOM      1  C   LIG    1       26.058 -17.226   3.191  0.00  0.00    +0.181 C 
ATOM      2  O   LIG    1       25.544 -15.899   3.406  0.00  0.00    -0.340 OA
ATOM      3  C   LIG    1       26.697 -15.118   3.774  0.00  0.00    +0.171 C 
ATOM      4  C   LIG    1       26.353 -14.308   5.028  0.00  0.00    +0.065 C 
ATOM      5  C   LIG    1       27.474 -13.345   5.413  0.00  0.00    +0.005 C 
ATOM      6  C   LIG    1       27.855 -12.434   4.249  0.00  0.00    +0.000 C 
ATOM      7  C   LIG    1       28.207 -13.233   2.997  0.00  0.00    +0.005 C 
ATOM      8  C   LIG    1       27.087 -14.198   2.612  0.00  0.00    +0.065 C 
ATOM      9  O   LIG    1       27.801 -15.998   4.053  0.00  0.00    -0.346 OA
ATOM     10  C   LIG    1       27.222 -17.299   4.147  0.00  0.00    +0.198 C 
ENDROOT
BRANCH   1  11
ATOM     11  C   LIG    1       24.992 -18.295   3.422  0.00  0.00    +0.229 C 
BRANCH  11  12
ATOM     12  N   LIG    1       25.599 -19.625   3.478  0.00  0.00    -0.274 N 
ATOM     13  H   LIG    1       26.602 -19.554   3.630  0.00  0.00    +0.258 HD
BRANCH  12  16
ATOM     14  N   LIG    1       23.923 -21.200   3.884  0.00  0.00    -0.130 NA
ATOM     15  H   LIG    1       23.689 -21.889   4.596  0.00  0.00    +0.306 HD
ATOM     16  C   LIG    1       25.022 -20.613   4.195  0.00  0.00    +0.376 C 
BRANCH  16  17
ATOM     17  N   LIG    1       25.740 -20.911   5.293  0.00  0.00    -0.289 N 
ATOM     18  H   LIG    1       25.415 -20.444   6.131  0.00  0.00    +0.255 HD
ATOM     19  H   LIG    1       26.743 -20.831   5.191  0.00  0.00    +0.255 HD
ENDBRANCH  16  17
ENDBRANCH  12  16
ENDBRANCH  11  12
ENDBRANCH   1  11
TORSDOF 4
ENDMDL
MODEL 5
REMARK VINA RESULT:      -3.3      1.935      2.993
REMARK  Name = *****
REMARK                            x       y       z     vdW  Elec       q    Type
REMARK                         _______ _______ _______ _____ _____    ______ ____
ROOT
ATOM      1  C   LIG    1       27.465 -16.727   4.443  0.00  0.00    +0.181 C 
ATOM      2  O   LIG    1       27.656 -15.310   4.281  0.00  0.00    -0.340 OA
ATOM      3  C   LIG    1       26.417 -14.839   3.718  0.00  0.00    +0.171 C 
ATOM      4  C   LIG    1       26.741 -13.947   2.515  0.00  0.00    +0.065 C 
ATOM      5  C   LIG    1       25.489 -13.290   1.935  0.00  0.00    +0.005 C 
ATOM      6  C   LIG    1       24.712 -12.525   3.003  0.00  0.00    +0.000 C 
ATOM      7  C   LIG    1       24.378 -13.409   4.202  0.00  0.00    +0.005 C 
ATOM      8  C   LIG    1       25.629 -14.067   4.782  0.00  0.00    +0.065 C 
ATOM      9  O   LIG    1       25.628 -15.963   3.289  0.00  0.00    -0.346 OA
ATOM     10  C   LIG    1       26.524 -17.074   3.317  0.00  0.00    +0.198 C 
ENDROOT
BRANCH   1  11
ATOM     11  C   LIG    1       28.788 -17.489   4.408  0.00  0.00    +0.229 C 
BRANCH  11  12
ATOM     12  N   LIG    1       28.989 -18.231   5.653  0.00  0.00    -0.274 N 
ATOM     13  H   LIG    1       28.668 -17.686   6.449  0.00  0.00    +0.258 HD
BRANCH  12  16
ATOM     14  N   LIG    1       27.680 -20.086   5.105  0.00  0.00    -0.130 NA
ATOM     15  H   LIG    1       27.624 -21.072   5.354  0.00  0.00    +0.306 HD
ATOM     16  C   LIG    1       28.657 -19.537   5.734  0.00  0.00    +0.376 C 
BRANCH  16  17
ATOM     17  N   LIG    1       29.474 -20.205   6.568  0.00  0.00    -0.289 N 
ATOM     18  H   LIG    1       30.390 -19.783   6.665  0.00  0.00    +0.255 HD
ATOM     19  H   LIG    1       29.543 -21.201   6.404  0.00  0.00    +0.255 HD
ENDBRANCH  16  17
ENDBRANCH  12  16
ENDBRANCH  11  12
ENDBRANCH   1  11
TORSDOF 4
ENDMDL
MODEL 6
REMARK VINA RESULT:      -3.1      1.931      2.884
REMARK  Name = *****
REMARK                            x       y       z     vdW  Elec       q    Type
REMARK                         _______ _______ _______ _____ _____    ______ ____
ROOT
ATOM      1  C   LIG    1       25.259 -17.318   3.809  0.00  0.00    +0.181 C 
ATOM      2  O   LIG    1       26.338 -16.704   3.081  0.00  0.00    -0.340 OA
ATOM      3  C   LIG    1       26.271 -15.312   3.438  0.00  0.00    +0.171 C 
ATOM      4  C   LIG    1       26.342 -14.479   2.154  0.00  0.00    +0.065 C 
ATOM      5  C   LIG    1       26.414 -12.981   2.445  0.00  0.00    +0.005 C 
ATOM      6  C   LIG    1       27.568 -12.649   3.388  0.00  0.00    +0.000 C 
ATOM      7  C   LIG    1       27.502 -13.469   4.675  0.00  0.00    +0.005 C 
ATOM      8  C   LIG    1       27.427 -14.967   4.384  0.00  0.00    +0.065 C 
ATOM      9  O   LIG    1       25.030 -15.050   4.117  0.00  0.00    -0.346 OA
ATOM     10  C   LIG    1       24.235 -16.214   3.892  0.00  0.00    +0.198 C 
ENDROOT
BRANCH   1  11
ATOM     11  C   LIG    1       24.755 -18.586   3.123  0.00  0.00    +0.229 C 
BRANCH  11  12
ATOM     12  N   LIG    1       25.632 -19.718   3.421  0.00  0.00    -0.274 N 
ATOM     13  H   LIG    1       26.504 -19.641   2.903  0.00  0.00    +0.258 HD
BRANCH  12  16
ATOM     14  N   LIG    1       24.861 -20.489   5.487  0.00  0.00    -0.130 NA
ATOM     15  H   LIG    1       25.249 -20.734   6.395  0.00  0.00    +0.306 HD
ATOM     16  C   LIG    1       25.807 -20.133   4.694  0.00  0.00    +0.376 C 
BRANCH  16  17
ATOM     17  N   LIG    1       27.106 -20.125   5.044  0.00  0.00    -0.289 N 
ATOM     18  H   LIG    1       27.404 -19.263   5.487  0.00  0.00    +0.255 HD
ATOM     19  H   LIG    1       27.753 -20.409   4.320  0.00  0.00    +0.255 HD
ENDBRANCH  16  17
ENDBRANCH  12  16
ENDBRANCH  11  12
ENDBRANCH   1  11
TORSDOF 4
ENDMDL
MODEL 7
REMARK VINA RESULT:      -2.9      1.940      2.827
REMARK  Name = *****
REMARK                            x       y       z     vdW  Elec       q    Type
REMARK                         _______ _______ _______ _____ _____    ______ ____
ROOT
ATOM      1  C   LIG    1       25.472 -17.364   3.702  0.00  0.00    +0.181 C 
ATOM      2  O   LIG    1       26.533 -16.668   3.023  0.00  0.00    -0.340 OA
ATOM      3  C   LIG    1       26.375 -15.293   3.416  0.00  0.00    +0.171 C 
ATOM      4  C   LIG    1       26.432 -14.420   2.158  0.00  0.00    +0.065 C 
ATOM      5  C   LIG    1       26.408 -12.930   2.492  0.00  0.00    +0.005 C 
ATOM      6  C   LIG    1       27.513 -12.559   3.478  0.00  0.00    +0.000 C 
ATOM      7  C   LIG    1       27.460 -13.418   4.739  0.00  0.00    +0.005 C 
ATOM      8  C   LIG    1       27.482 -14.909   4.405  0.00  0.00    +0.065 C 
ATOM      9  O   LIG    1       25.102 -15.124   4.065  0.00  0.00    -0.346 OA
ATOM     10  C   LIG    1       24.383 -16.324   3.785  0.00  0.00    +0.198 C 
ENDROOT
BRANCH   1  11
ATOM     11  C   LIG    1       25.063 -18.639   2.966  0.00  0.00    +0.229 C 
BRANCH  11  12
ATOM     12  N   LIG    1       24.193 -19.462   3.805  0.00  0.00    -0.274 N 
ATOM     13  H   LIG    1       23.277 -19.566   3.377  0.00  0.00    +0.258 HD
BRANCH  12  16
ATOM     14  N   LIG    1       25.838 -20.771   4.826  0.00  0.00    -0.130 NA
ATOM     15  H   LIG    1       25.944 -21.727   5.159  0.00  0.00    +0.306 HD
ATOM     16  C   LIG    1       24.654 -20.607   4.355  0.00  0.00    +0.376 C 
BRANCH  16  17
ATOM     17  N   LIG    1       23.717 -21.572   4.347  0.00  0.00    -0.289 N 
ATOM     18  H   LIG    1       24.013 -22.431   4.796  0.00  0.00    +0.255 HD
ATOM     19  H   LIG    1       23.288 -21.754   3.449  0.00  0.00    +0.255 HD
ENDBRANCH  16  17
ENDBRANCH  12  16
ENDBRANCH  11  12
ENDBRANCH   1  11
TORSDOF 4
ENDMDL
MODEL 8
REMARK VINA RESULT:      -2.9      1.962      3.465
REMARK  Name = *****
REMARK                            x       y       z     vdW  Elec       q    Type
REMARK                         _______ _______ _______ _____ _____    ______ ____
ROOT
ATOM      1  C   LIG    1       23.661 -14.826   4.377  0.00  0.00    +0.181 C 
ATOM      2  O   LIG    1       24.982 -15.366   4.196  0.00  0.00    -0.340 OA
ATOM      3  C   LIG    1       25.828 -14.211   4.043  0.00  0.00    +0.171 C 
ATOM      4  C   LIG    1       26.724 -14.427   2.819  0.00  0.00    +0.065 C 
ATOM      5  C   LIG    1       27.753 -13.309   2.657  0.00  0.00    +0.005 C 
ATOM      6  C   LIG    1       28.579 -13.121   3.926  0.00  0.00    +0.000 C 
ATOM      7  C   LIG    1       27.695 -12.897   5.150  0.00  0.00    +0.005 C 
ATOM      8  C   LIG    1       26.665 -14.014   5.312  0.00  0.00    +0.065 C 
ATOM      9  O   LIG    1       25.012 -13.043   3.846  0.00  0.00    -0.346 OA
ATOM     10  C   LIG    1       23.704 -13.547   3.578  0.00  0.00    +0.198 C 
ENDROOT
BRANCH   1  11
ATOM     11  C   LIG    1       22.578 -15.806   3.928  0.00  0.00    +0.229 C 
BRANCH  11  12
ATOM     12  N   LIG    1       22.568 -16.992   4.785  0.00  0.00    -0.274 N 
ATOM     13  H   LIG    1       21.708 -17.034   5.326  0.00  0.00    +0.258 HD
BRANCH  12  16
ATOM     14  N   LIG    1       24.047 -18.416   3.671  0.00  0.00    -0.130 NA
ATOM     15  H   LIG    1       24.086 -19.393   3.386  0.00  0.00    +0.306 HD
ATOM     16  C   LIG    1       22.948 -18.193   4.298  0.00  0.00    +0.376 C 
BRANCH  16  17
ATOM     17  N   LIG    1       22.026 -19.140   4.544  0.00  0.00    -0.289 N 
ATOM     18  H   LIG    1       21.769 -19.681   3.726  0.00  0.00    +0.255 HD
ATOM     19  H   LIG    1       21.208 -18.831   5.052  0.00  0.00    +0.255 HD
ENDBRANCH  16  17
ENDBRANCH  12  16
ENDBRANCH  11  12
ENDBRANCH   1  11
TORSDOF 4
ENDMDL
MODEL 9
REMARK VINA RESULT:      -2.8      3.370      6.323
REMARK  Name = *****
REMARK                            x       y       z     vdW  Elec       q    Type
REMARK                         _______ _______ _______ _____ _____    ______ ____
ROOT
ATOM      1  C   LIG    1       25.382 -17.899   3.254  0.00  0.00    +0.181 C 
ATOM      2  O   LIG    1       25.572 -19.061   4.082  0.00  0.00    -0.340 OA
ATOM      3  C   LIG    1       24.239 -19.478   4.432  0.00  0.00    +0.171 C 
ATOM      4  C   LIG    1       24.189 -19.718   5.945  0.00  0.00    +0.065 C 
ATOM      5  C   LIG    1       22.847 -20.296   6.390  0.00  0.00    +0.005 C 
ATOM      6  C   LIG    1       22.497 -21.562   5.613  0.00  0.00    +0.000 C 
ATOM      7  C   LIG    1       22.537 -21.331   4.104  0.00  0.00    +0.005 C 
ATOM      8  C   LIG    1       23.879 -20.751   3.659  0.00  0.00    +0.065 C 
ATOM      9  O   LIG    1       23.304 -18.444   4.075  0.00  0.00    -0.346 OA
ATOM     10  C   LIG    1       24.109 -17.299   3.797  0.00  0.00    +0.198 C 
ENDROOT
BRANCH   1  11
ATOM     11  C   LIG    1       26.586 -16.960   3.304  0.00  0.00    +0.229 C 
BRANCH  11  12
ATOM     12  N   LIG    1       26.149 -15.564   3.352  0.00  0.00    -0.274 N 
ATOM     13  H   LIG    1       25.634 -15.380   4.209  0.00  0.00    +0.258 HD
BRANCH  12  16
ATOM     14  N   LIG    1       26.874 -13.811   1.989  0.00  0.00    -0.130 NA
ATOM     15  H   LIG    1       27.653 -13.157   1.949  0.00  0.00    +0.306 HD
ATOM     16  C   LIG    1       26.999 -14.568   3.019  0.00  0.00    +0.376 C 
BRANCH  16  17
ATOM     17  N   LIG    1       28.008 -14.463   3.902  0.00  0.00    -0.289 N 
ATOM     18  H   LIG    1       28.888 -14.187   3.483  0.00  0.00    +0.255 HD
ATOM     19  H   LIG    1       28.127 -15.253   4.523  0.00  0.00    +0.255 HD
ENDBRANCH  16  17
ENDBRANCH  12  16
ENDBRANCH  11  12
ENDBRANCH   1  11
TORSDOF 4
ENDMDL
