MODEL 1
REMARK VINA RESULT:      -0.1      0.000      0.000
REMARK  Name = *****
REMARK                            x       y       z     vdW  Elec       q    Type
REMARK                         _______ _______ _______ _____ _____    ______ ____
ROOT
ATOM      1  C   LIG    1       26.682 -20.373   6.079  0.00  0.00    +0.134 C 
ATOM      2  N   LIG    1       26.735 -19.943   4.803  0.00  0.00    -0.276 N 
ATOM      3  C   LIG    1       25.540 -20.298   4.242  0.00  0.00    +0.347 C 
ATOM      4  O   LIG    1       25.128 -19.987   3.124  0.00  0.00    -0.245 OA
ATOM      5  N   LIG    1       24.881 -21.048   5.211  0.00  0.00    -0.213 N 
ATOM      6  N   LIG    1       25.603 -21.040   6.382  0.00  0.00    -0.154 NA
ENDROOT
BRANCH   1   8
ATOM      7  C   LIG    1       28.931 -21.116   6.791  0.00  0.00    +0.012 C 
ATOM      8  C   LIG    1       27.793 -20.149   7.061  0.00  0.00    +0.073 C 
ENDBRANCH   1   8
BRANCH   2   9
ATOM      9  C   LIG    1       27.743 -19.132   4.145  0.00  0.00    +0.169 C 
BRANCH   9  10
ATOM     10  C   LIG    1       27.672 -17.654   4.539  0.00  0.00    +0.250 C 
BRANCH  10  11
ATOM     11  O   LIG    1       27.094 -16.905   3.462  0.00  0.00    -0.490 OA
BRANCH  11  12
ATOM     12  C   LIG    1       27.204 -15.544   3.534  0.00  0.00    +0.121 A 
ATOM     13  C   LIG    1       26.937 -14.667   2.482  0.00  0.00    +0.045 A 
ATOM     14  C   LIG    1       27.143 -13.296   2.642  0.00  0.00    +0.004 A 
ATOM     15  C   LIG    1       27.579 -12.790   3.865  0.00  0.00    +0.000 A 
ATOM     16  C   LIG    1       27.801 -13.656   4.935  0.00  0.00    +0.004 A 
ATOM     17  C   LIG    1       27.609 -15.030   4.769  0.00  0.00    +0.045 A 
ENDBRANCH  11  12
ENDBRANCH  10  11
ENDBRANCH   9  10
ENDBRANCH   2   9
BRANCH   5  18
ATOM     18  C   LIG    1       23.512 -21.516   5.153  0.00  0.00    +0.150 C 
BRANCH  18  19
ATOM     19  C   LIG    1       22.592 -20.601   5.950  0.00  0.00    +0.039 C 
BRANCH  19  20
ATOM     20  C   LIG    1       22.892 -19.117   5.702  0.00  0.00    +0.086 C 
BRANCH  20  21
ATOM     21  N   LIG    1       22.321 -18.647   4.427  0.00  0.00    -0.299 NA
ATOM     22  C   LIG    1       21.378 -17.519   4.616  0.00  0.00    +0.103 C 
ATOM     23  C   LIG    1       22.022 -16.169   5.013  0.00  0.00    +0.120 C 
ATOM     24  N   LIG    1       23.071 -15.790   4.040  0.00  0.00    -0.327 N 
ATOM     25  C   LIG    1       24.065 -16.865   3.824  0.00  0.00    +0.120 C 
ATOM     26  C   LIG    1       23.358 -18.194   3.468  0.00  0.00    +0.103 C 
BRANCH  24  27
ATOM     27  C   LIG    1       23.479 -14.459   3.931  0.00  0.00    +0.031 A 
ATOM     28  C   LIG    1       23.850 -13.687   5.045  0.00  0.00    +0.043 A 
ATOM     29  C   LIG    1       24.234 -12.346   4.924  0.00  0.00    +0.043 A 
ATOM     30 CL   LIG    1       24.699 -11.465   6.329  0.00  0.00    -0.084 Cl
ATOM     31  C   LIG    1       24.257 -11.725   3.684  0.00  0.00    +0.020 A 
ATOM     32  C   LIG    1       23.871 -12.447   2.564  0.00  0.00    +0.003 A 
ATOM     33  C   LIG    1       23.478 -13.786   2.694  0.00  0.00    +0.023 A 
ENDBRANCH  24  27
ENDBRANCH  20  21
ENDBRANCH  19  20
ENDBRANCH  18  19
ENDBRANCH   5  18
TORSDOF 10
ENDMDL
