MODEL 1
REMARK VINA RESULT:      -5.6      0.000      0.000
REMARK  Name = *****
REMARK                            x       y       z     vdW  Elec       q    Type
REMARK                         _______ _______ _______ _____ _____    ______ ____
ROOT
ATOM      1  C   LIG    1       24.535 -18.946   4.072  0.00  0.00    +0.034 A 
ATOM      2  C   LIG    1       24.778 -19.910   5.094  0.00  0.00    +0.044 A 
ATOM      3  C   LIG    1       23.653 -20.452   5.742  0.00  0.00    +0.024 A 
ATOM      4  C   LIG    1       22.351 -20.120   5.367  0.00  0.00    +0.002 A 
ATOM      5  C   LIG    1       22.133 -19.245   4.306  0.00  0.00    +0.001 A 
ATOM      6  C   LIG    1       23.221 -18.662   3.666  0.00  0.00    +0.017 A 
ENDROOT
BRANCH   2   7
ATOM      7  N   LIG    1       26.095 -20.318   5.422  0.00  0.00    -0.327 N 
ATOM      8  C   LIG    1       26.119 -20.999   6.742  0.00  0.00    +0.120 C 
ATOM      9  C   LIG    1       27.531 -21.547   7.060  0.00  0.00    +0.100 C 
ATOM     10  N   LIG    1       28.605 -20.537   6.958  0.00  0.00    -0.313 NA
ATOM     11  H   LIG    1       28.412 -19.801   7.637  0.00  0.00    +0.122 HD
ATOM     12  C   LIG    1       28.547 -19.940   5.605  0.00  0.00    +0.100 C 
ATOM     13  C   LIG    1       27.171 -19.314   5.281  0.00  0.00    +0.120 C 
ENDBRANCH   2   7
BRANCH   1  14
ATOM     14  S   LIG    1       25.866 -17.984   3.331  0.00  0.00    -0.087 S 
BRANCH  14  20
ATOM     15  C   LIG    1       23.889 -12.309   4.525  0.00  0.00    +0.044 C 
ATOM     16  C   LIG    1       24.388 -13.703   4.280  0.00  0.00    -0.050 A 
ATOM     17  C   LIG    1       25.761 -13.936   4.140  0.00  0.00    +0.007 A 
ATOM     18  C   LIG    1       26.268 -15.222   3.869  0.00  0.00    -0.036 A 
ATOM     19  C   LIG    1       27.758 -15.375   3.731  0.00  0.00    +0.045 C 
ATOM     20  C   LIG    1       25.370 -16.299   3.732  0.00  0.00    +0.016 A 
ATOM     21  C   LIG    1       23.992 -16.056   3.863  0.00  0.00    +0.015 A 
ATOM     22  C   LIG    1       23.506 -14.774   4.134  0.00  0.00    +0.004 A 
ENDBRANCH  14  20
ENDBRANCH   1  14
TORSDOF 3
ENDMDL
MODEL 2
REMARK VINA RESULT:      -5.0      1.076      2.155
REMARK  Name = *****
REMARK                            x       y       z     vdW  Elec       q    Type
REMARK                         _______ _______ _______ _____ _____    ______ ____
ROOT
ATOM      1  C   LIG    1       24.571 -20.228   4.570  0.00  0.00    +0.034 A 
ATOM      2  C   LIG    1       25.327 -20.484   5.752  0.00  0.00    +0.044 A 
ATOM      3  C   LIG    1       24.607 -20.827   6.910  0.00  0.00    +0.024 A 
ATOM      4  C   LIG    1       23.220 -20.979   6.902  0.00  0.00    +0.002 A 
ATOM      5  C   LIG    1       22.508 -20.813   5.717  0.00  0.00    +0.001 A 
ATOM      6  C   LIG    1       23.183 -20.438   4.560  0.00  0.00    +0.017 A 
ENDROOT
BRANCH   2   7
ATOM      7  N   LIG    1       26.743 -20.417   5.747  0.00  0.00    -0.327 N 
ATOM      8  C   LIG    1       27.306 -21.174   6.895  0.00  0.00    +0.120 C 
ATOM      9  C   LIG    1       28.853 -21.202   6.839  0.00  0.00    +0.100 C 
ATOM     10  N   LIG    1       29.474 -19.866   6.720  0.00  0.00    -0.313 NA
ATOM     11  H   LIG    1       29.216 -19.325   7.545  0.00  0.00    +0.122 HD
ATOM     12  C   LIG    1       28.900 -19.196   5.532  0.00  0.00    +0.100 C 
ATOM     13  C   LIG    1       27.360 -19.082   5.590  0.00  0.00    +0.120 C 
ENDBRANCH   2   7
BRANCH   1  14
ATOM     14  S   LIG    1       25.324 -19.537   3.086  0.00  0.00    -0.087 S 
BRANCH  14  20
ATOM     15  C   LIG    1       25.126 -13.515   4.196  0.00  0.00    +0.044 C 
ATOM     16  C   LIG    1       25.150 -14.983   3.881  0.00  0.00    -0.050 A 
ATOM     17  C   LIG    1       23.995 -15.751   4.060  0.00  0.00    +0.007 A 
ATOM     18  C   LIG    1       23.985 -17.139   3.816  0.00  0.00    -0.036 A 
ATOM     19  C   LIG    1       22.698 -17.884   4.040  0.00  0.00    +0.045 C 
ATOM     20  C   LIG    1       25.170 -17.768   3.383  0.00  0.00    +0.016 A 
ATOM     21  C   LIG    1       26.329 -16.991   3.216  0.00  0.00    +0.015 A 
ATOM     22  C   LIG    1       26.321 -15.615   3.461  0.00  0.00    +0.004 A 
ENDBRANCH  14  20
ENDBRANCH   1  14
TORSDOF 3
ENDMDL
MODEL 3
REMARK VINA RESULT:      -4.7      1.397      3.877
REMARK  Name = *****
REMARK                            x       y       z     vdW  Elec       q    Type
REMARK                         _______ _______ _______ _____ _____    ______ ____
ROOT
ATOM      1  C   LIG    1       26.820 -19.003   4.547  0.00  0.00    +0.034 A 
ATOM      2  C   LIG    1       26.584 -20.071   5.461  0.00  0.00    +0.044 A 
ATOM      3  C   LIG    1       27.617 -20.381   6.363  0.00  0.00    +0.024 A 
ATOM      4  C   LIG    1       28.800 -19.642   6.417  0.00  0.00    +0.002 A 
ATOM      5  C   LIG    1       28.975 -18.545   5.577  0.00  0.00    +0.001 A 
ATOM      6  C   LIG    1       27.989 -18.231   4.648  0.00  0.00    +0.017 A 
ENDROOT
BRANCH   2   7
ATOM      7  N   LIG    1       25.351 -20.770   5.472  0.00  0.00    -0.327 N 
ATOM      8  C   LIG    1       24.708 -20.719   4.134  0.00  0.00    +0.120 C 
ATOM      9  C   LIG    1       23.417 -21.572   4.103  0.00  0.00    +0.100 C 
ATOM     10  N   LIG    1       22.453 -21.242   5.175  0.00  0.00    -0.313 NA
ATOM     11  H   LIG    1       22.170 -20.270   5.056  0.00  0.00    +0.122 HD
ATOM     12  C   LIG    1       23.152 -21.362   6.474  0.00  0.00    +0.100 C 
ATOM     13  C   LIG    1       24.407 -20.464   6.568  0.00  0.00    +0.120 C 
ENDBRANCH   2   7
BRANCH   1  14
ATOM     14  S   LIG    1       25.703 -18.655   3.176  0.00  0.00    -0.087 S 
BRANCH  14  20
ATOM     15  C   LIG    1       24.357 -12.813   4.438  0.00  0.00    +0.044 C 
ATOM     16  C   LIG    1       24.659 -14.241   4.088  0.00  0.00    -0.050 A 
ATOM     17  C   LIG    1       23.692 -15.229   4.302  0.00  0.00    +0.007 A 
ATOM     18  C   LIG    1       23.949 -16.587   4.025  0.00  0.00    -0.036 A 
ATOM     19  C   LIG    1       22.850 -17.579   4.291  0.00  0.00    +0.045 C 
ATOM     20  C   LIG    1       25.212 -16.957   3.523  0.00  0.00    +0.016 A 
ATOM     21  C   LIG    1       26.182 -15.961   3.320  0.00  0.00    +0.015 A 
ATOM     22  C   LIG    1       25.910 -14.618   3.598  0.00  0.00    +0.004 A 
ENDBRANCH  14  20
ENDBRANCH   1  14
TORSDOF 3
ENDMDL
MODEL 4
REMARK VINA RESULT:      -3.3      2.464      5.895
REMARK  Name = *****
REMARK                            x       y       z     vdW  Elec       q    Type
REMARK                         _______ _______ _______ _____ _____    ______ ____
ROOT
ATOM      1  C   LIG    1       24.218 -17.117   3.910  0.00  0.00    +0.034 A 
ATOM      2  C   LIG    1       24.432 -15.729   4.155  0.00  0.00    +0.044 A 
ATOM      3  C   LIG    1       23.382 -15.018   4.764  0.00  0.00    +0.024 A 
ATOM      4  C   LIG    1       22.205 -15.644   5.176  0.00  0.00    +0.002 A 
ATOM      5  C   LIG    1       22.051 -17.018   5.010  0.00  0.00    +0.001 A 
ATOM      6  C   LIG    1       23.054 -17.746   4.379  0.00  0.00    +0.017 A 
ENDROOT
BRANCH   2   7
ATOM      7  N   LIG    1       25.659 -15.103   3.820  0.00  0.00    -0.327 N 
ATOM      8  C   LIG    1       26.019 -14.080   4.835  0.00  0.00    +0.120 C 
ATOM      9  C   LIG    1       27.410 -13.468   4.540  0.00  0.00    +0.100 C 
ATOM     10  N   LIG    1       27.554 -12.937   3.168  0.00  0.00    -0.313 NA
ATOM     11  H   LIG    1       26.869 -12.192   3.045  0.00  0.00    +0.122 HD
ATOM     12  C   LIG    1       27.226 -14.024   2.218  0.00  0.00    +0.100 C 
ATOM     13  C   LIG    1       25.812 -14.608   2.435  0.00  0.00    +0.120 C 
ENDBRANCH   2   7
BRANCH   1  14
ATOM     14  S   LIG    1       25.359 -18.098   2.918  0.00  0.00    -0.087 S 
BRANCH  14  20
ATOM     15  C   LIG    1       29.042 -20.705   7.062  0.00  0.00    +0.044 C 
ATOM     16  C   LIG    1       28.111 -20.048   6.084  0.00  0.00    -0.050 A 
ATOM     17  C   LIG    1       26.860 -20.617   5.824  0.00  0.00    +0.007 A 
ATOM     18  C   LIG    1       25.974 -20.055   4.884  0.00  0.00    -0.036 A 
ATOM     19  C   LIG    1       24.652 -20.739   4.668  0.00  0.00    +0.045 C 
ATOM     20  C   LIG    1       26.359 -18.894   4.186  0.00  0.00    +0.016 A 
ATOM     21  C   LIG    1       27.622 -18.334   4.444  0.00  0.00    +0.015 A 
ATOM     22  C   LIG    1       28.489 -18.903   5.381  0.00  0.00    +0.004 A 
ENDBRANCH  14  20
ENDBRANCH   1  14
TORSDOF 3
ENDMDL
