MODEL 1
REMARK VINA RESULT:      -3.6      0.000      0.000
REMARK  Name = *****
REMARK                            x       y       z     vdW  Elec       q    Type
REMARK                         _______ _______ _______ _____ _____    ______ ____
ROOT
ATOM      1  O   LIG    1       27.402 -12.379   2.947  0.00  0.00    -0.251 OA
ATOM      2  C   LIG    1       26.708 -13.360   3.171  0.00  0.00    +0.341 C 
ATOM      3  N   LIG    1       25.393 -13.340   3.628  0.00  0.00    -0.005 NA
ATOM      4  C   LIG    1       25.033 -14.585   3.739  0.00  0.00    +0.370 C 
ATOM      5  N   LIG    1       25.978 -15.501   3.416  0.00  0.00    -0.212 N 
ATOM      6  C   LIG    1       25.815 -16.926   3.344  0.00  0.00    +0.228 C 
ATOM      7  C   LIG    1       24.456 -17.373   3.837  0.00  0.00    +0.040 A 
ATOM      8  C   LIG    1       23.505 -16.402   4.213  0.00  0.00    +0.099 A 
ATOM      9  C   LIG    1       22.242 -16.801   4.661  0.00  0.00    +0.042 A 
ATOM     10  C   LIG    1       21.913 -18.154   4.735  0.00  0.00    +0.025 A 
ATOM     11  C   LIG    1       22.846 -19.123   4.363  0.00  0.00    +0.060 A 
ATOM     12 CL   LIG    1       22.358 -20.778   4.481  0.00  0.00    -0.082 Cl
ATOM     13  C   LIG    1       24.117 -18.739   3.911  0.00  0.00    +0.068 A 
ATOM     14 CL   LIG    1       25.282 -19.938   3.437  0.00  0.00    -0.082 Cl
ATOM     15  N   LIG    1       23.828 -15.042   4.143  0.00  0.00    -0.207 N 
ATOM     16  H   LIG    1       23.135 -14.352   4.397  0.00  0.00    +0.251 HD
ATOM     17  C   LIG    1       27.168 -14.814   2.974  0.00  0.00    +0.305 C 
ENDROOT
TORSDOF 0
ENDMDL
MODEL 2
REMARK VINA RESULT:      -3.6      1.409      2.489
REMARK  Name = *****
REMARK                            x       y       z     vdW  Elec       q    Type
REMARK                         _______ _______ _______ _____ _____    ______ ____
ROOT
ATOM      1  O   LIG    1       27.164 -12.872   2.937  0.00  0.00    -0.251 OA
ATOM      2  C   LIG    1       26.622 -13.952   3.123  0.00  0.00    +0.341 C 
ATOM      3  N   LIG    1       27.248 -15.194   3.078  0.00  0.00    -0.005 NA
ATOM      4  C   LIG    1       26.319 -16.072   3.324  0.00  0.00    +0.370 C 
ATOM      5  N   LIG    1       25.076 -15.572   3.527  0.00  0.00    -0.212 N 
ATOM      6  C   LIG    1       23.902 -16.299   3.920  0.00  0.00    +0.228 C 
ATOM      7  C   LIG    1       24.136 -17.794   3.946  0.00  0.00    +0.040 A 
ATOM      8  C   LIG    1       25.429 -18.294   3.684  0.00  0.00    +0.099 A 
ATOM      9  C   LIG    1       25.661 -19.673   3.714  0.00  0.00    +0.042 A 
ATOM     10  C   LIG    1       24.625 -20.558   4.005  0.00  0.00    +0.025 A 
ATOM     11  C   LIG    1       23.343 -20.074   4.269  0.00  0.00    +0.060 A 
ATOM     12 CL   LIG    1       22.113 -21.238   4.624  0.00  0.00    -0.082 Cl
ATOM     13  C   LIG    1       23.092 -18.693   4.242  0.00  0.00    +0.068 A 
ATOM     14 CL   LIG    1       21.502 -18.080   4.577  0.00  0.00    -0.082 Cl
ATOM     15  N   LIG    1       26.474 -17.412   3.389  0.00  0.00    -0.207 N 
ATOM     16  H   LIG    1       27.401 -17.777   3.221  0.00  0.00    +0.251 HD
ATOM     17  C   LIG    1       25.131 -14.131   3.455  0.00  0.00    +0.305 C 
ENDROOT
TORSDOF 0
ENDMDL
MODEL 3
REMARK VINA RESULT:      -2.1      3.922      5.443
REMARK  Name = *****
REMARK                            x       y       z     vdW  Elec       q    Type
REMARK                         _______ _______ _______ _____ _____    ______ ____
ROOT
ATOM      1  O   LIG    1       23.921 -21.572   4.061  0.00  0.00    -0.251 OA
ATOM      2  C   LIG    1       24.083 -20.362   3.982  0.00  0.00    +0.341 C 
ATOM      3  N   LIG    1       23.156 -19.392   4.350  0.00  0.00    -0.005 NA
ATOM      4  C   LIG    1       23.719 -18.246   4.100  0.00  0.00    +0.370 C 
ATOM      5  N   LIG    1       24.965 -18.305   3.571  0.00  0.00    -0.212 N 
ATOM      6  C   LIG    1       25.847 -17.205   3.303  0.00  0.00    +0.228 C 
ATOM      7  C   LIG    1       25.180 -15.866   3.533  0.00  0.00    +0.040 A 
ATOM      8  C   LIG    1       23.864 -15.830   4.040  0.00  0.00    +0.099 A 
ATOM      9  C   LIG    1       23.239 -14.600   4.266  0.00  0.00    +0.042 A 
ATOM     10  C   LIG    1       23.908 -13.407   3.997  0.00  0.00    +0.025 A 
ATOM     11  C   LIG    1       25.211 -13.431   3.497  0.00  0.00    +0.060 A 
ATOM     12 CL   LIG    1       25.972 -11.908   3.193  0.00  0.00    -0.082 Cl
ATOM     13  C   LIG    1       25.852 -14.657   3.265  0.00  0.00    +0.068 A 
ATOM     14 CL   LIG    1       27.477 -14.698   2.652  0.00  0.00    -0.082 Cl
ATOM     15  N   LIG    1       23.185 -17.023   4.311  0.00  0.00    -0.207 N 
ATOM     16  H   LIG    1       22.249 -16.988   4.692  0.00  0.00    +0.251 HD
ATOM     17  C   LIG    1       25.364 -19.689   3.463  0.00  0.00    +0.305 C 
ENDROOT
TORSDOF 0
ENDMDL
MODEL 4
REMARK VINA RESULT:      -1.9      4.042      6.021
REMARK  Name = *****
REMARK                            x       y       z     vdW  Elec       q    Type
REMARK                         _______ _______ _______ _____ _____    ______ ____
ROOT
ATOM      1  O   LIG    1       21.858 -21.217   4.643  0.00  0.00    -0.251 OA
ATOM      2  C   LIG    1       22.525 -20.209   4.457  0.00  0.00    +0.341 C 
ATOM      3  N   LIG    1       23.869 -20.178   4.099  0.00  0.00    -0.005 NA
ATOM      4  C   LIG    1       24.188 -18.919   4.012  0.00  0.00    +0.370 C 
ATOM      5  N   LIG    1       23.195 -18.040   4.292  0.00  0.00    -0.212 N 
ATOM      6  C   LIG    1       23.241 -16.611   4.169  0.00  0.00    +0.228 C 
ATOM      7  C   LIG    1       24.627 -16.110   3.823  0.00  0.00    +0.040 A 
ATOM      8  C   LIG    1       25.657 -17.044   3.583  0.00  0.00    +0.099 A 
ATOM      9  C   LIG    1       26.940 -16.595   3.254  0.00  0.00    +0.042 A 
ATOM     10  C   LIG    1       27.208 -15.230   3.156  0.00  0.00    +0.025 A 
ATOM     11  C   LIG    1       26.196 -14.299   3.389  0.00  0.00    +0.060 A 
ATOM     12 CL   LIG    1       26.610 -12.625   3.246  0.00  0.00    -0.082 Cl
ATOM     13  C   LIG    1       24.903 -14.732   3.721  0.00  0.00    +0.068 A 
ATOM     14 CL   LIG    1       23.634 -13.580   4.004  0.00  0.00    -0.082 Cl
ATOM     15  N   LIG    1       25.396 -18.415   3.680  0.00  0.00    -0.207 N 
ATOM     16  H   LIG    1       26.135 -19.077   3.489  0.00  0.00    +0.251 HD
ATOM     17  C   LIG    1       21.985 -18.775   4.581  0.00  0.00    +0.305 C 
ENDROOT
TORSDOF 0
ENDMDL
MODEL 5
REMARK VINA RESULT:      -1.6      3.966      5.916
REMARK  Name = *****
REMARK                            x       y       z     vdW  Elec       q    Type
REMARK                         _______ _______ _______ _____ _____    ______ ____
ROOT
ATOM      1  O   LIG    1       23.759 -21.572   4.157  0.00  0.00    -0.251 OA
ATOM      2  C   LIG    1       24.079 -20.397   4.042  0.00  0.00    +0.341 C 
ATOM      3  N   LIG    1       25.329 -19.931   3.644  0.00  0.00    -0.005 NA
ATOM      4  C   LIG    1       25.247 -18.632   3.660  0.00  0.00    +0.370 C 
ATOM      5  N   LIG    1       24.053 -18.122   4.049  0.00  0.00    -0.212 N 
ATOM      6  C   LIG    1       23.660 -16.741   4.053  0.00  0.00    +0.228 C 
ATOM      7  C   LIG    1       24.808 -15.817   3.709  0.00  0.00    +0.040 A 
ATOM      8  C   LIG    1       26.056 -16.371   3.354  0.00  0.00    +0.099 A 
ATOM      9  C   LIG    1       27.122 -15.529   3.025  0.00  0.00    +0.042 A 
ATOM     10  C   LIG    1       26.961 -14.144   3.042  0.00  0.00    +0.025 A 
ATOM     11  C   LIG    1       25.730 -13.586   3.389  0.00  0.00    +0.060 A 
ATOM     12 CL   LIG    1       25.612 -11.860   3.382  0.00  0.00    -0.082 Cl
ATOM     13  C   LIG    1       24.649 -14.417   3.721  0.00  0.00    +0.068 A 
ATOM     14 CL   LIG    1       23.111 -13.732   4.146  0.00  0.00    -0.082 Cl
ATOM     15  N   LIG    1       26.226 -17.760   3.337  0.00  0.00    -0.207 N 
ATOM     16  H   LIG    1       27.118 -18.149   3.063  0.00  0.00    +0.251 HD
ATOM     17  C   LIG    1       23.140 -19.210   4.310  0.00  0.00    +0.305 C 
ENDROOT
TORSDOF 0
ENDMDL
