MODEL 1
REMARK VINA RESULT:      -7.1      0.000      0.000
REMARK  Name = *****
REMARK                            x       y       z     vdW  Elec       q    Type
REMARK                         _______ _______ _______ _____ _____    ______ ____
ROOT
ATOM      1  C   LIG    1       24.588 -20.455   4.508  0.00  0.00    +0.080 C 
ATOM      2  C   LIG    1       25.472 -21.497   5.211  0.00  0.00    +0.097 C 
ATOM      3  C   LIG    1       24.658 -22.580   5.968  0.00  0.00    +0.065 C 
ATOM      4  C   LIG    1       23.309 -22.490   6.091  0.00  0.00    +0.016 C 
ATOM      5  C   LIG    1       22.421 -23.422   6.881  0.00  0.00    +0.061 C 
ATOM      6  N   LIG    1       22.643 -21.471   5.445  0.00  0.00    -0.309 N 
ATOM      7  H   LIG    1       21.635 -21.397   5.583  0.00  0.00    +0.152 HD
ATOM      8  C   LIG    1       23.250 -20.503   4.675  0.00  0.00    +0.120 C 
ENDROOT
BRANCH   2   9
ATOM      9  C   LIG    1       26.479 -20.825   6.173  0.00  0.00    -0.029 A 
ATOM     10  C   LIG    1       27.665 -20.251   5.674  0.00  0.00    +0.088 A 
ATOM     11  C   LIG    1       28.602 -19.684   6.555  0.00  0.00    +0.273 A 
ATOM     12  C   LIG    1       28.349 -19.639   7.931  0.00  0.00    +0.084 A 
ATOM     13  C   LIG    1       27.159 -20.172   8.426  0.00  0.00    +0.007 A 
ATOM     14  C   LIG    1       26.238 -20.767   7.558  0.00  0.00    +0.005 A 
BRANCH  11  15
ATOM     15  N   LIG    1       29.882 -19.174   6.041  0.00  0.00    +0.080 N 
ATOM     16  O   LIG    1       30.927 -19.655   6.504  0.00  0.00    -0.576 OA
ATOM     17  O   LIG    1       29.844 -18.275   5.187  0.00  0.00    +0.041 OA
ENDBRANCH  11  15
ENDBRANCH   2   9
BRANCH   1  18
ATOM     18  C   LIG    1       25.266 -19.384   3.731  0.00  0.00    +0.338 C 
ATOM     19  O   LIG    1       25.949 -19.602   2.729  0.00  0.00    -0.245 OA
BRANCH  18  21
ATOM     20  C   LIG    1       25.418 -17.028   3.452  0.00  0.00    +0.280 C 
ATOM     21  O   LIG    1       24.989 -18.165   4.208  0.00  0.00    -0.465 OA
ENDBRANCH  18  21
ENDBRANCH   1  18
BRANCH   3  22
ATOM     22  C   LIG    1       25.461 -23.724   6.476  0.00  0.00    +0.338 C 
ATOM     23  O   LIG    1       25.877 -23.771   7.627  0.00  0.00    -0.245 OA
BRANCH  22  24
ATOM     24  O   LIG    1       25.636 -24.682   5.537  0.00  0.00    -0.459 OA
BRANCH  24  25
ATOM     25  C   LIG    1       25.649 -26.053   5.981  0.00  0.00    +0.171 C 
ATOM     26  C   LIG    1       26.418 -26.873   4.945  0.00  0.00    +0.051 C 
ATOM     27  C   LIG    1       24.214 -26.556   6.082  0.00  0.00    +0.051 C 
ENDBRANCH  24  25
ENDBRANCH  22  24
ENDBRANCH   3  22
BRANCH   8  28
ATOM     28  C   LIG    1       22.379 -19.446   4.355  0.00  0.00    +0.115 C 
ATOM     29  N   LIG    1       21.668 -18.580   4.093  0.00  0.00    -0.190 NA
ENDBRANCH   8  28
TORSDOF 8
ENDMDL
MODEL 2
REMARK VINA RESULT:      -6.2      8.950     11.569
REMARK  Name = *****
REMARK                            x       y       z     vdW  Elec       q    Type
REMARK                         _______ _______ _______ _____ _____    ______ ____
ROOT
ATOM      1  C   LIG    1       21.767 -31.429  11.128  0.00  0.00    +0.080 C 
ATOM      2  C   LIG    1       23.117 -30.874  11.609  0.00  0.00    +0.097 C 
ATOM      3  C   LIG    1       22.995 -29.500  12.319  0.00  0.00    +0.065 C 
ATOM      4  C   LIG    1       21.817 -28.827  12.356  0.00  0.00    +0.016 C 
ATOM      5  C   LIG    1       21.595 -27.447  12.928  0.00  0.00    +0.061 C 
ATOM      6  N   LIG    1       20.687 -29.424  11.840  0.00  0.00    -0.309 N 
ATOM      7  H   LIG    1       19.820 -28.886  11.840  0.00  0.00    +0.152 HD
ATOM      8  C   LIG    1       20.656 -30.676  11.264  0.00  0.00    +0.120 C 
ENDROOT
BRANCH   2   9
ATOM      9  C   LIG    1       24.134 -30.782  10.449  0.00  0.00    -0.029 A 
ATOM     10  C   LIG    1       23.866 -29.967   9.331  0.00  0.00    +0.088 A 
ATOM     11  C   LIG    1       24.770 -29.922   8.256  0.00  0.00    +0.273 A 
ATOM     12  C   LIG    1       25.968 -30.646   8.301  0.00  0.00    +0.084 A 
ATOM     13  C   LIG    1       26.255 -31.423   9.422  0.00  0.00    +0.007 A 
ATOM     14  C   LIG    1       25.345 -31.498  10.481  0.00  0.00    +0.005 A 
BRANCH  11  15
ATOM     15  N   LIG    1       24.441 -29.149   7.049  0.00  0.00    +0.080 N 
ATOM     16  O   LIG    1       23.638 -29.643   6.243  0.00  0.00    -0.576 OA
ATOM     17  O   LIG    1       25.002 -28.054   6.894  0.00  0.00    +0.041 OA
ENDBRANCH  11  15
ENDBRANCH   2   9
BRANCH   1  18
ATOM     18  C   LIG    1       21.764 -32.755  10.455  0.00  0.00    +0.338 C 
ATOM     19  O   LIG    1       21.734 -33.825  11.064  0.00  0.00    -0.245 OA
BRANCH  18  21
ATOM     20  C   LIG    1       22.668 -33.399   8.353  0.00  0.00    +0.280 C 
ATOM     21  O   LIG    1       21.729 -32.642   9.122  0.00  0.00    -0.465 OA
ENDBRANCH  18  21
ENDBRANCH   1  18
BRANCH   3  22
ATOM     22  C   LIG    1       24.237 -29.032  12.991  0.00  0.00    +0.338 C 
ATOM     23  O   LIG    1       24.645 -29.531  14.032  0.00  0.00    -0.245 OA
BRANCH  22  24
ATOM     24  O   LIG    1       24.845 -28.038  12.304  0.00  0.00    -0.459 OA
BRANCH  24  25
ATOM     25  C   LIG    1       26.279 -27.938  12.409  0.00  0.00    +0.171 C 
ATOM     26  C   LIG    1       26.615 -26.536  12.916  0.00  0.00    +0.051 C 
ATOM     27  C   LIG    1       26.894 -28.155  11.032  0.00  0.00    +0.051 C 
ENDBRANCH  24  25
ENDBRANCH  22  24
ENDBRANCH   3  22
BRANCH   8  28
ATOM     28  C   LIG    1       19.447 -30.929  10.592  0.00  0.00    +0.115 C 
ATOM     29  N   LIG    1       18.458 -31.136  10.041  0.00  0.00    -0.190 NA
ENDBRANCH   8  28
TORSDOF 8
ENDMDL
MODEL 3
REMARK VINA RESULT:      -5.9      8.404     11.517
REMARK  Name = *****
REMARK                            x       y       z     vdW  Elec       q    Type
REMARK                         _______ _______ _______ _____ _____    ______ ____
ROOT
ATOM      1  C   LIG    1       25.243 -30.817   6.835  0.00  0.00    +0.080 C 
ATOM      2  C   LIG    1       25.325 -30.841   8.370  0.00  0.00    +0.097 C 
ATOM      3  C   LIG    1       26.397 -31.824   8.910  0.00  0.00    +0.065 C 
ATOM      4  C   LIG    1       27.066 -32.663   8.080  0.00  0.00    +0.016 C 
ATOM      5  C   LIG    1       28.056 -33.727   8.494  0.00  0.00    +0.061 C 
ATOM      6  N   LIG    1       26.860 -32.568   6.721  0.00  0.00    -0.309 N 
ATOM      7  H   LIG    1       27.341 -33.235   6.117  0.00  0.00    +0.152 HD
ATOM      8  C   LIG    1       25.999 -31.676   6.120  0.00  0.00    +0.120 C 
ENDROOT
BRANCH   2   9
ATOM      9  C   LIG    1       23.951 -31.157   9.003  0.00  0.00    -0.029 A 
ATOM     10  C   LIG    1       23.383 -30.279   9.948  0.00  0.00    +0.088 A 
ATOM     11  C   LIG    1       22.157 -30.593  10.558  0.00  0.00    +0.273 A 
ATOM     12  C   LIG    1       21.461 -31.755  10.202  0.00  0.00    +0.084 A 
ATOM     13  C   LIG    1       22.000 -32.608   9.240  0.00  0.00    +0.007 A 
ATOM     14  C   LIG    1       23.236 -32.318   8.653  0.00  0.00    +0.005 A 
BRANCH  11  15
ATOM     15  N   LIG    1       21.616 -29.725  11.614  0.00  0.00    +0.080 N 
ATOM     16  O   LIG    1       20.443 -29.906  11.971  0.00  0.00    -0.576 OA
ATOM     17  O   LIG    1       22.359 -28.844  12.074  0.00  0.00    +0.041 OA
ENDBRANCH  11  15
ENDBRANCH   2   9
BRANCH   1  18
ATOM     18  C   LIG    1       24.264 -29.889   6.209  0.00  0.00    +0.338 C 
ATOM     19  O   LIG    1       23.216 -30.265   5.683  0.00  0.00    -0.245 OA
BRANCH  18  21
ATOM     20  C   LIG    1       25.401 -28.006   5.309  0.00  0.00    +0.280 C 
ATOM     21  O   LIG    1       24.625 -28.609   6.349  0.00  0.00    -0.465 OA
ENDBRANCH  18  21
ENDBRANCH   1  18
BRANCH   3  22
ATOM     22  C   LIG    1       26.662 -31.719  10.370  0.00  0.00    +0.338 C 
ATOM     23  O   LIG    1       26.127 -32.460  11.187  0.00  0.00    -0.245 OA
BRANCH  22  24
ATOM     24  O   LIG    1       27.561 -30.750  10.659  0.00  0.00    -0.459 OA
BRANCH  24  25
ATOM     25  C   LIG    1       27.120 -29.663  11.495  0.00  0.00    +0.171 C 
ATOM     26  C   LIG    1       26.961 -28.427  10.611  0.00  0.00    +0.051 C 
ATOM     27  C   LIG    1       28.172 -29.404  12.567  0.00  0.00    +0.051 C 
ENDBRANCH  24  25
ENDBRANCH  22  24
ENDBRANCH   3  22
BRANCH   8  28
ATOM     28  C   LIG    1       25.784 -31.968   4.761  0.00  0.00    +0.115 C 
ATOM     29  N   LIG    1       25.609 -32.206   3.649  0.00  0.00    -0.190 NA
ENDBRANCH   8  28
TORSDOF 8
ENDMDL
MODEL 4
REMARK VINA RESULT:      -5.9      9.486     11.226
REMARK  Name = *****
REMARK                            x       y       z     vdW  Elec       q    Type
REMARK                         _______ _______ _______ _____ _____    ______ ____
ROOT
ATOM      1  C   LIG    1       22.193 -28.431  12.700  0.00  0.00    +0.080 C 
ATOM      2  C   LIG    1       23.138 -29.163  11.735  0.00  0.00    +0.097 C 
ATOM      3  C   LIG    1       22.420 -30.231  10.868  0.00  0.00    +0.065 C 
ATOM      4  C   LIG    1       21.118 -30.553  11.080  0.00  0.00    +0.016 C 
ATOM      5  C   LIG    1       20.340 -31.637  10.372  0.00  0.00    +0.061 C 
ATOM      6  N   LIG    1       20.396 -29.845  12.017  0.00  0.00    -0.309 N 
ATOM      7  H   LIG    1       19.432 -30.129  12.191  0.00  0.00    +0.152 HD
ATOM      8  C   LIG    1       20.903 -28.819  12.785  0.00  0.00    +0.120 C 
ENDROOT
BRANCH   2   9
ATOM      9  C   LIG    1       24.326 -29.806  12.487  0.00  0.00    -0.029 A 
ATOM     10  C   LIG    1       25.644 -29.374  12.237  0.00  0.00    +0.088 A 
ATOM     11  C   LIG    1       26.726 -29.992  12.886  0.00  0.00    +0.273 A 
ATOM     12  C   LIG    1       26.508 -31.010  13.823  0.00  0.00    +0.084 A 
ATOM     13  C   LIG    1       25.203 -31.415  14.102  0.00  0.00    +0.007 A 
ATOM     14  C   LIG    1       24.123 -30.826  13.435  0.00  0.00    +0.005 A 
BRANCH  11  15
ATOM     15  N   LIG    1       28.104 -29.606  12.550  0.00  0.00    +0.080 N 
ATOM     16  O   LIG    1       28.467 -29.716  11.370  0.00  0.00    -0.576 OA
ATOM     17  O   LIG    1       28.834 -29.212  13.473  0.00  0.00    +0.041 OA
ENDBRANCH  11  15
ENDBRANCH   2   9
BRANCH   1  18
ATOM     18  C   LIG    1       22.773 -27.368  13.563  0.00  0.00    +0.338 C 
ATOM     19  O   LIG    1       22.895 -26.196  13.205  0.00  0.00    -0.245 OA
BRANCH  18  21
ATOM     20  C   LIG    1       24.370 -27.518  15.317  0.00  0.00    +0.280 C 
ATOM     21  O   LIG    1       23.078 -27.822  14.784  0.00  0.00    -0.465 OA
ENDBRANCH  18  21
ENDBRANCH   1  18
BRANCH   3  22
ATOM     22  C   LIG    1       23.246 -30.806   9.773  0.00  0.00    +0.338 C 
ATOM     23  O   LIG    1       23.732 -31.929   9.841  0.00  0.00    -0.245 OA
BRANCH  22  24
ATOM     24  O   LIG    1       23.359 -29.963   8.721  0.00  0.00    -0.459 OA
BRANCH  24  25
ATOM     25  C   LIG    1       24.552 -30.058   7.919  0.00  0.00    +0.171 C 
ATOM     26  C   LIG    1       25.655 -29.270   8.624  0.00  0.00    +0.051 C 
ATOM     27  C   LIG    1       24.277 -29.454   6.547  0.00  0.00    +0.051 C 
ENDBRANCH  24  25
ENDBRANCH  22  24
ENDBRANCH   3  22
BRANCH   8  28
ATOM     28  C   LIG    1       20.039 -28.454  13.832  0.00  0.00    +0.115 C 
ATOM     29  N   LIG    1       19.332 -28.154  14.689  0.00  0.00    -0.190 NA
ENDBRANCH   8  28
TORSDOF 8
ENDMDL
MODEL 5
REMARK VINA RESULT:      -5.8      9.003     11.473
REMARK  Name = *****
REMARK                            x       y       z     vdW  Elec       q    Type
REMARK                         _______ _______ _______ _____ _____    ______ ____
ROOT
ATOM      1  C   LIG    1       23.783 -29.987  12.179  0.00  0.00    +0.080 C 
ATOM      2  C   LIG    1       25.228 -30.297  11.758  0.00  0.00    +0.097 C 
ATOM      3  C   LIG    1       26.214 -29.135  12.049  0.00  0.00    +0.065 C 
ATOM      4  C   LIG    1       25.772 -27.931  12.495  0.00  0.00    +0.016 C 
ATOM      5  C   LIG    1       26.616 -26.698  12.721  0.00  0.00    +0.061 C 
ATOM      6  N   LIG    1       24.435 -27.774  12.789  0.00  0.00    -0.309 N 
ATOM      7  H   LIG    1       24.116 -26.851  13.082  0.00  0.00    +0.152 HD
ATOM      8  C   LIG    1       23.482 -28.760  12.652  0.00  0.00    +0.120 C 
ENDROOT
BRANCH   2   9
ATOM      9  C   LIG    1       25.308 -30.696  10.266  0.00  0.00    -0.029 A 
ATOM     10  C   LIG    1       24.940 -29.776   9.263  0.00  0.00    +0.088 A 
ATOM     11  C   LIG    1       24.967 -30.157   7.911  0.00  0.00    +0.273 A 
ATOM     12  C   LIG    1       25.403 -31.434   7.538  0.00  0.00    +0.084 A 
ATOM     13  C   LIG    1       25.804 -32.334   8.525  0.00  0.00    +0.007 A 
ATOM     14  C   LIG    1       25.749 -31.974   9.875  0.00  0.00    +0.005 A 
BRANCH  11  15
ATOM     15  N   LIG    1       24.490 -29.228   6.875  0.00  0.00    +0.080 N 
ATOM     16  O   LIG    1       24.961 -28.081   6.861  0.00  0.00    -0.576 OA
ATOM     17  O   LIG    1       23.625 -29.638   6.087  0.00  0.00    +0.041 OA
ENDBRANCH  11  15
ENDBRANCH   2   9
BRANCH   1  18
ATOM     18  C   LIG    1       22.759 -31.044  11.967  0.00  0.00    +0.338 C 
ATOM     19  O   LIG    1       22.548 -31.954  12.770  0.00  0.00    -0.245 OA
BRANCH  18  21
ATOM     20  C   LIG    1       21.871 -31.954   9.959  0.00  0.00    +0.280 C 
ATOM     21  O   LIG    1       22.057 -30.846  10.845  0.00  0.00    -0.465 OA
ENDBRANCH  18  21
ENDBRANCH   1  18
BRANCH   3  22
ATOM     22  C   LIG    1       27.650 -29.471  11.862  0.00  0.00    +0.338 C 
ATOM     23  O   LIG    1       28.271 -29.151  10.855  0.00  0.00    -0.245 OA
BRANCH  22  24
ATOM     24  O   LIG    1       28.164 -30.128  12.927  0.00  0.00    -0.459 OA
BRANCH  24  25
ATOM     25  C   LIG    1       28.879 -29.349  13.905  0.00  0.00    +0.171 C 
ATOM     26  C   LIG    1       30.363 -29.696  13.787  0.00  0.00    +0.051 C 
ATOM     27  C   LIG    1       28.370 -29.709  15.295  0.00  0.00    +0.051 C 
ENDBRANCH  24  25
ENDBRANCH  22  24
ENDBRANCH   3  22
BRANCH   8  28
ATOM     28  C   LIG    1       22.171 -28.261  12.767  0.00  0.00    +0.115 C 
ATOM     29  N   LIG    1       21.100 -27.853  12.860  0.00  0.00    -0.190 NA
ENDBRANCH   8  28
TORSDOF 8
ENDMDL
MODEL 6
REMARK VINA RESULT:      -5.8      9.039     11.649
REMARK  Name = *****
REMARK                            x       y       z     vdW  Elec       q    Type
REMARK                         _______ _______ _______ _____ _____    ______ ____
ROOT
ATOM      1  C   LIG    1       26.122 -29.586  11.991  0.00  0.00    +0.080 C 
ATOM      2  C   LIG    1       24.801 -29.754  11.223  0.00  0.00    +0.097 C 
ATOM      3  C   LIG    1       23.727 -30.542  12.019  0.00  0.00    +0.065 C 
ATOM      4  C   LIG    1       24.020 -31.130  13.207  0.00  0.00    +0.016 C 
ATOM      5  C   LIG    1       23.094 -32.001  14.024  0.00  0.00    +0.061 C 
ATOM      6  N   LIG    1       25.266 -30.937  13.762  0.00  0.00    -0.309 N 
ATOM      7  H   LIG    1       25.481 -31.421  14.634  0.00  0.00    +0.152 HD
ATOM      8  C   LIG    1       26.270 -30.187  13.190  0.00  0.00    +0.120 C 
ENDROOT
BRANCH   2   9
ATOM      9  C   LIG    1       25.030 -30.417   9.846  0.00  0.00    -0.029 A 
ATOM     10  C   LIG    1       24.711 -29.725   8.661  0.00  0.00    +0.088 A 
ATOM     11  C   LIG    1       24.875 -30.347   7.412  0.00  0.00    +0.273 A 
ATOM     12  C   LIG    1       25.401 -31.642   7.324  0.00  0.00    +0.084 A 
ATOM     13  C   LIG    1       25.754 -32.317   8.492  0.00  0.00    +0.007 A 
ATOM     14  C   LIG    1       25.563 -31.716   9.741  0.00  0.00    +0.005 A 
BRANCH  11  15
ATOM     15  N   LIG    1       24.449 -29.659   6.184  0.00  0.00    +0.080 N 
ATOM     16  O   LIG    1       25.269 -28.919   5.619  0.00  0.00    -0.576 OA
ATOM     17  O   LIG    1       23.286 -29.839   5.796  0.00  0.00    +0.041 OA
ENDBRANCH  11  15
ENDBRANCH   2   9
BRANCH   1  18
ATOM     18  C   LIG    1       27.214 -28.823  11.330  0.00  0.00    +0.338 C 
ATOM     19  O   LIG    1       28.197 -29.356  10.815  0.00  0.00    -0.245 OA
BRANCH  18  21
ATOM     20  C   LIG    1       26.839 -26.818  12.550  0.00  0.00    +0.280 C 
ATOM     21  O   LIG    1       26.964 -27.509  11.304  0.00  0.00    -0.465 OA
ENDBRANCH  18  21
ENDBRANCH   1  18
BRANCH   3  22
ATOM     22  C   LIG    1       22.371 -30.540  11.409  0.00  0.00    +0.338 C 
ATOM     23  O   LIG    1       21.895 -31.532  10.868  0.00  0.00    -0.245 OA
BRANCH  22  24
ATOM     24  O   LIG    1       21.748 -29.348  11.553  0.00  0.00    -0.459 OA
BRANCH  24  25
ATOM     25  C   LIG    1       21.480 -28.897  12.895  0.00  0.00    +0.171 C 
ATOM     26  C   LIG    1       20.164 -29.530  13.347  0.00  0.00    +0.051 C 
ATOM     27  C   LIG    1       21.353 -27.378  12.892  0.00  0.00    +0.051 C 
ENDBRANCH  24  25
ENDBRANCH  22  24
ENDBRANCH   3  22
BRANCH   8  28
ATOM     28  C   LIG    1       27.510 -30.371  13.829  0.00  0.00    +0.115 C 
ATOM     29  N   LIG    1       28.524 -30.521  14.351  0.00  0.00    -0.190 NA
ENDBRANCH   8  28
TORSDOF 8
ENDMDL
MODEL 7
REMARK VINA RESULT:      -5.7      9.763     12.794
REMARK  Name = *****
REMARK                            x       y       z     vdW  Elec       q    Type
REMARK                         _______ _______ _______ _____ _____    ______ ____
ROOT
ATOM      1  C   LIG    1       24.155 -30.780   9.412  0.00  0.00    +0.080 C 
ATOM      2  C   LIG    1       23.096 -30.339  10.435  0.00  0.00    +0.097 C 
ATOM      3  C   LIG    1       23.677 -30.102  11.854  0.00  0.00    +0.065 C 
ATOM      4  C   LIG    1       24.966 -30.409  12.148  0.00  0.00    +0.016 C 
ATOM      5  C   LIG    1       25.618 -30.316  13.508  0.00  0.00    +0.061 C 
ATOM      6  N   LIG    1       25.799 -30.844  11.140  0.00  0.00    -0.309 N 
ATOM      7  H   LIG    1       26.752 -31.109  11.389  0.00  0.00    +0.152 HD
ATOM      8  C   LIG    1       25.418 -31.009   9.826  0.00  0.00    +0.120 C 
ENDROOT
BRANCH   2   9
ATOM      9  C   LIG    1       21.925 -31.346  10.505  0.00  0.00    -0.029 A 
ATOM     10  C   LIG    1       20.596 -30.905  10.346  0.00  0.00    +0.088 A 
ATOM     11  C   LIG    1       19.531 -31.814  10.458  0.00  0.00    +0.273 A 
ATOM     12  C   LIG    1       19.776 -33.175  10.681  0.00  0.00    +0.084 A 
ATOM     13  C   LIG    1       21.091 -33.622  10.801  0.00  0.00    +0.007 A 
ATOM     14  C   LIG    1       22.155 -32.718  10.723  0.00  0.00    +0.005 A 
BRANCH  11  15
ATOM     15  N   LIG    1       18.143 -31.335  10.389  0.00  0.00    +0.080 N 
ATOM     16  O   LIG    1       17.723 -30.925   9.296  0.00  0.00    -0.576 OA
ATOM     17  O   LIG    1       17.476 -31.346  11.434  0.00  0.00    +0.041 OA
ENDBRANCH  11  15
ENDBRANCH   2   9
BRANCH   1  18
ATOM     18  C   LIG    1       23.710 -31.011   8.012  0.00  0.00    +0.338 C 
ATOM     19  O   LIG    1       23.313 -32.101   7.599  0.00  0.00    -0.245 OA
BRANCH  18  21
ATOM     20  C   LIG    1       24.551 -29.850   6.116  0.00  0.00    +0.280 C 
ATOM     21  O   LIG    1       23.730 -29.887   7.287  0.00  0.00    -0.465 OA
ENDBRANCH  18  21
ENDBRANCH   1  18
BRANCH   3  22
ATOM     22  C   LIG    1       22.737 -29.467  12.816  0.00  0.00    +0.338 C 
ATOM     23  O   LIG    1       22.352 -30.040  13.829  0.00  0.00    -0.245 OA
BRANCH  22  24
ATOM     24  O   LIG    1       22.402 -28.209  12.449  0.00  0.00    -0.459 OA
BRANCH  24  25
ATOM     25  C   LIG    1       22.026 -27.290  13.493  0.00  0.00    +0.171 C 
ATOM     26  C   LIG    1       20.657 -26.712  13.137  0.00  0.00    +0.051 C 
ATOM     27  C   LIG    1       23.060 -26.173  13.567  0.00  0.00    +0.051 C 
ENDBRANCH  24  25
ENDBRANCH  22  24
ENDBRANCH   3  22
BRANCH   8  28
ATOM     28  C   LIG    1       26.378 -31.707   9.072  0.00  0.00    +0.115 C 
ATOM     29  N   LIG    1       27.164 -32.278   8.454  0.00  0.00    -0.190 NA
ENDBRANCH   8  28
TORSDOF 8
ENDMDL
MODEL 8
REMARK VINA RESULT:      -5.6      9.218     11.961
REMARK  Name = *****
REMARK                            x       y       z     vdW  Elec       q    Type
REMARK                         _______ _______ _______ _____ _____    ______ ____
ROOT
ATOM      1  C   LIG    1       25.077 -30.052   9.613  0.00  0.00    +0.080 C 
ATOM      2  C   LIG    1       24.755 -29.357  10.946  0.00  0.00    +0.097 C 
ATOM      3  C   LIG    1       26.009 -29.106  11.824  0.00  0.00    +0.065 C 
ATOM      4  C   LIG    1       27.224 -29.600  11.475  0.00  0.00    +0.016 C 
ATOM      5  C   LIG    1       28.493 -29.507  12.290  0.00  0.00    +0.061 C 
ATOM      6  N   LIG    1       27.363 -30.249  10.268  0.00  0.00    -0.309 N 
ATOM      7  H   LIG    1       28.274 -30.649  10.043  0.00  0.00    +0.152 HD
ATOM      8  C   LIG    1       26.341 -30.455   9.367  0.00  0.00    +0.120 C 
ENDROOT
BRANCH   2   9
ATOM      9  C   LIG    1       23.696 -30.145  11.751  0.00  0.00    -0.029 A 
ATOM     10  C   LIG    1       22.442 -29.567  12.034  0.00  0.00    +0.088 A 
ATOM     11  C   LIG    1       21.499 -30.266  12.807  0.00  0.00    +0.273 A 
ATOM     12  C   LIG    1       21.772 -31.561  13.264  0.00  0.00    +0.084 A 
ATOM     13  C   LIG    1       22.996 -32.152  12.953  0.00  0.00    +0.007 A 
ATOM     14  C   LIG    1       23.951 -31.450  12.213  0.00  0.00    +0.005 A 
BRANCH  11  15
ATOM     15  N   LIG    1       20.232 -29.621  13.183  0.00  0.00    +0.080 N 
ATOM     16  O   LIG    1       20.203 -28.382  13.232  0.00  0.00    -0.576 OA
ATOM     17  O   LIG    1       19.270 -30.354  13.453  0.00  0.00    +0.041 OA
ENDBRANCH  11  15
ENDBRANCH   2   9
BRANCH   1  18
ATOM     18  C   LIG    1       23.949 -30.318   8.682  0.00  0.00    +0.338 C 
ATOM     19  O   LIG    1       23.186 -31.278   8.799  0.00  0.00    -0.245 OA
BRANCH  18  21
ATOM     20  C   LIG    1       24.189 -29.675   6.406  0.00  0.00    +0.280 C 
ATOM     21  O   LIG    1       23.826 -29.362   7.755  0.00  0.00    -0.465 OA
ENDBRANCH  18  21
ENDBRANCH   1  18
BRANCH   3  22
ATOM     22  C   LIG    1       25.776 -28.247  13.016  0.00  0.00    +0.338 C 
ATOM     23  O   LIG    1       26.052 -28.614  14.151  0.00  0.00    -0.245 OA
BRANCH  22  24
ATOM     24  O   LIG    1       25.264 -27.040  12.682  0.00  0.00    -0.459 OA
BRANCH  24  25
ATOM     25  C   LIG    1       24.642 -26.270  13.729  0.00  0.00    +0.171 C 
ATOM     26  C   LIG    1       23.133 -26.279  13.484  0.00  0.00    +0.051 C 
ATOM     27  C   LIG    1       25.170 -24.841  13.675  0.00  0.00    +0.051 C 
ENDBRANCH  24  25
ENDBRANCH  22  24
ENDBRANCH   3  22
BRANCH   8  28
ATOM     28  C   LIG    1       26.693 -31.363   8.352  0.00  0.00    +0.115 C 
ATOM     29  N   LIG    1       26.981 -32.106   7.522  0.00  0.00    -0.190 NA
ENDBRANCH   8  28
TORSDOF 8
ENDMDL
MODEL 9
REMARK VINA RESULT:      -5.6      2.297      5.298
REMARK  Name = *****
REMARK                            x       y       z     vdW  Elec       q    Type
REMARK                         _______ _______ _______ _____ _____    ______ ____
ROOT
ATOM      1  C   LIG    1       24.722 -20.233   5.297  0.00  0.00    +0.080 C 
ATOM      2  C   LIG    1       25.221 -20.999   6.532  0.00  0.00    +0.097 C 
ATOM      3  C   LIG    1       26.759 -20.919   6.722  0.00  0.00    +0.065 C 
ATOM      4  C   LIG    1       27.556 -20.344   5.786  0.00  0.00    +0.016 C 
ATOM      5  C   LIG    1       29.066 -20.291   5.810  0.00  0.00    +0.061 C 
ATOM      6  N   LIG    1       26.977 -19.733   4.695  0.00  0.00    -0.309 N 
ATOM      7  H   LIG    1       27.593 -19.343   3.983  0.00  0.00    +0.152 HD
ATOM      8  C   LIG    1       25.620 -19.665   4.465  0.00  0.00    +0.120 C 
ENDROOT
BRANCH   2   9
ATOM      9  C   LIG    1       24.769 -22.477   6.500  0.00  0.00    -0.029 A 
ATOM     10  C   LIG    1       25.638 -23.477   6.017  0.00  0.00    +0.088 A 
ATOM     11  C   LIG    1       25.208 -24.812   5.944  0.00  0.00    +0.273 A 
ATOM     12  C   LIG    1       23.932 -25.176   6.393  0.00  0.00    +0.084 A 
ATOM     13  C   LIG    1       23.083 -24.196   6.907  0.00  0.00    +0.007 A 
ATOM     14  C   LIG    1       23.493 -22.860   6.952  0.00  0.00    +0.005 A 
BRANCH  11  15
ATOM     15  N   LIG    1       26.080 -25.835   5.348  0.00  0.00    +0.080 N 
ATOM     16  O   LIG    1       25.796 -26.254   4.216  0.00  0.00    -0.576 OA
ATOM     17  O   LIG    1       27.040 -26.237   6.022  0.00  0.00    +0.041 OA
ENDBRANCH  11  15
ENDBRANCH   2   9
BRANCH   1  18
ATOM     18  C   LIG    1       23.259 -20.224   5.033  0.00  0.00    +0.338 C 
ATOM     19  O   LIG    1       22.668 -21.139   4.459  0.00  0.00    -0.245 OA
BRANCH  18  21
ATOM     20  C   LIG    1       22.139 -18.162   4.651  0.00  0.00    +0.280 C 
ATOM     21  O   LIG    1       22.662 -19.144   5.551  0.00  0.00    -0.465 OA
ENDBRANCH  18  21
ENDBRANCH   1  18
BRANCH   3  22
ATOM     22  C   LIG    1       27.258 -21.456   8.016  0.00  0.00    +0.338 C 
ATOM     23  O   LIG    1       26.529 -21.595   8.992  0.00  0.00    -0.245 OA
BRANCH  22  24
ATOM     24  O   LIG    1       28.569 -21.786   7.961  0.00  0.00    -0.459 OA
BRANCH  24  25
ATOM     25  C   LIG    1       29.433 -21.242   8.978  0.00  0.00    +0.171 C 
ATOM     26  C   LIG    1       29.630 -19.756   8.679  0.00  0.00    +0.051 C 
ATOM     27  C   LIG    1       30.774 -21.965   8.928  0.00  0.00    +0.051 C 
ENDBRANCH  24  25
ENDBRANCH  22  24
ENDBRANCH   3  22
BRANCH   8  28
ATOM     28  C   LIG    1       25.316 -19.224   3.164  0.00  0.00    +0.115 C 
ATOM     29  N   LIG    1       25.068 -18.864   2.100  0.00  0.00    -0.190 NA
ENDBRANCH   8  28
TORSDOF 8
ENDMDL
