MODEL 1
REMARK VINA RESULT:       6.5      0.000      0.000
REMARK  Name = *****
REMARK                            x       y       z     vdW  Elec       q    Type
REMARK                         _______ _______ _______ _____ _____    ______ ____
ROOT
ATOM      1  C   LIG    1       27.066 -14.009   2.824  0.00  0.00    +0.105 C 
ATOM      2  N   LIG    1       26.388 -14.556   3.998  0.00  0.00    -0.305 NA
ATOM      3  C   LIG    1       25.198 -15.339   3.635  0.00  0.00    +0.088 C 
ATOM      4  C   LIG    1       25.497 -16.687   2.960  0.00  0.00    +0.047 C 
ATOM      5  C   LIG    1       26.458 -17.551   3.772  0.00  0.00    -0.059 C 
ATOM      6  C   LIG    1       26.243 -18.864   4.073  0.00  0.00    -0.010 C 
ATOM      7  C   LIG    1       27.234 -19.568   4.944  0.00  0.00    -0.014 A 
ATOM      8  C   LIG    1       26.853 -19.997   6.229  0.00  0.00    -0.032 A 
ATOM      9  C   LIG    1       27.797 -20.625   7.056  0.00  0.00    +0.005 A 
ATOM     10  C   LIG    1       29.104 -20.827   6.611  0.00  0.00    +0.000 A 
ATOM     11  C   LIG    1       29.474 -20.430   5.329  0.00  0.00    +0.001 A 
ATOM     12  C   LIG    1       25.440 -19.790   6.719  0.00  0.00    +0.115 C 
ATOM     13  C   LIG    1       24.406 -20.597   5.950  0.00  0.00    +0.174 C 
ATOM     14  O   LIG    1       23.699 -21.396   6.569  0.00  0.00    -0.291 OA
ATOM     15  C   LIG    1       24.267 -20.339   4.516  0.00  0.00    +0.063 A 
ATOM     16  S   LIG    1       22.923 -21.027   3.692  0.00  0.00    -0.093 S 
ATOM     17  C   LIG    1       23.406 -20.370   2.196  0.00  0.00    +0.046 A 
ATOM     18  C   LIG    1       24.582 -19.666   2.302  0.00  0.00    +0.017 A 
ATOM     19  C   LIG    1       28.541 -19.818   4.492  0.00  0.00    +0.009 A 
ATOM     20  C   LIG    1       25.054 -19.588   3.654  0.00  0.00    +0.000 A 
ATOM     21  C   LIG    1       27.671 -16.734   4.221  0.00  0.00    +0.047 C 
ATOM     22  C   LIG    1       27.286 -15.373   4.827  0.00  0.00    +0.088 C 
ENDROOT
TORSDOF 0
ENDMDL
MODEL 2
REMARK VINA RESULT:       6.6      2.824      5.290
REMARK  Name = *****
REMARK                            x       y       z     vdW  Elec       q    Type
REMARK                         _______ _______ _______ _____ _____    ______ ____
ROOT
ATOM      1  C   LIG    1       29.111 -21.359   6.449  0.00  0.00    +0.105 C 
ATOM      2  N   LIG    1       28.004 -20.627   7.062  0.00  0.00    -0.305 NA
ATOM      3  C   LIG    1       27.991 -19.211   6.668  0.00  0.00    +0.088 C 
ATOM      4  C   LIG    1       27.586 -18.954   5.208  0.00  0.00    +0.047 C 
ATOM      5  C   LIG    1       26.255 -19.605   4.844  0.00  0.00    -0.059 C 
ATOM      6  C   LIG    1       25.231 -18.961   4.212  0.00  0.00    -0.010 C 
ATOM      7  C   LIG    1       23.953 -19.702   3.986  0.00  0.00    -0.014 A 
ATOM      8  C   LIG    1       22.784 -19.297   4.659  0.00  0.00    -0.032 A 
ATOM      9  C   LIG    1       21.595 -20.019   4.471  0.00  0.00    +0.005 A 
ATOM     10  C   LIG    1       21.566 -21.127   3.623  0.00  0.00    +0.000 A 
ATOM     11  C   LIG    1       22.713 -21.509   2.935  0.00  0.00    +0.001 A 
ATOM     12  C   LIG    1       22.802 -18.096   5.572  0.00  0.00    +0.115 C 
ATOM     13  C   LIG    1       23.050 -16.783   4.846  0.00  0.00    +0.174 C 
ATOM     14  O   LIG    1       22.204 -15.890   4.932  0.00  0.00    -0.291 OA
ATOM     15  C   LIG    1       24.315 -16.631   4.125  0.00  0.00    +0.063 A 
ATOM     16  S   LIG    1       24.737 -15.068   3.543  0.00  0.00    -0.093 S 
ATOM     17  C   LIG    1       26.190 -15.631   2.856  0.00  0.00    +0.046 A 
ATOM     18  C   LIG    1       26.347 -16.986   3.031  0.00  0.00    +0.017 A 
ATOM     19  C   LIG    1       23.899 -20.792   3.102  0.00  0.00    +0.009 A 
ATOM     20  C   LIG    1       25.298 -17.562   3.822  0.00  0.00    +0.000 A 
ATOM     21  C   LIG    1       26.221 -21.062   5.310  0.00  0.00    +0.047 C 
ATOM     22  C   LIG    1       26.701 -21.238   6.761  0.00  0.00    +0.088 C 
ENDROOT
TORSDOF 0
ENDMDL
MODEL 3
REMARK VINA RESULT:       7.1      2.983      5.428
REMARK  Name = *****
REMARK                            x       y       z     vdW  Elec       q    Type
REMARK                         _______ _______ _______ _____ _____    ______ ____
ROOT
ATOM      1  C   LIG    1       29.475 -20.350   5.998  0.00  0.00    +0.105 C 
ATOM      2  N   LIG    1       28.445 -19.527   6.629  0.00  0.00    -0.305 NA
ATOM      3  C   LIG    1       28.534 -18.118   6.219  0.00  0.00    +0.088 C 
ATOM      4  C   LIG    1       28.114 -17.844   4.766  0.00  0.00    +0.047 C 
ATOM      5  C   LIG    1       26.727 -18.391   4.441  0.00  0.00    -0.059 C 
ATOM      6  C   LIG    1       25.742 -17.674   3.827  0.00  0.00    -0.010 C 
ATOM      7  C   LIG    1       24.404 -18.314   3.641  0.00  0.00    -0.014 A 
ATOM      8  C   LIG    1       23.287 -17.811   4.336  0.00  0.00    -0.032 A 
ATOM      9  C   LIG    1       22.041 -18.438   4.186  0.00  0.00    +0.005 A 
ATOM     10  C   LIG    1       21.903 -19.548   3.352  0.00  0.00    +0.000 A 
ATOM     11  C   LIG    1       22.999 -20.027   2.641  0.00  0.00    +0.001 A 
ATOM     12  C   LIG    1       23.422 -16.606   5.236  0.00  0.00    +0.115 C 
ATOM     13  C   LIG    1       23.755 -15.324   4.488  0.00  0.00    +0.174 C 
ATOM     14  O   LIG    1       22.985 -14.366   4.584  0.00  0.00    -0.291 OA
ATOM     15  C   LIG    1       25.010 -15.280   3.736  0.00  0.00    +0.063 A 
ATOM     16  S   LIG    1       25.539 -13.760   3.125  0.00  0.00    -0.093 S 
ATOM     17  C   LIG    1       26.926 -14.444   2.410  0.00  0.00    +0.046 A 
ATOM     18  C   LIG    1       26.980 -15.805   2.597  0.00  0.00    +0.017 A 
ATOM     19  C   LIG    1       24.242 -19.405   2.771  0.00  0.00    +0.009 A 
ATOM     20  C   LIG    1       25.909 -16.289   3.420  0.00  0.00    +0.000 A 
ATOM     21  C   LIG    1       26.590 -19.836   4.925  0.00  0.00    +0.047 C 
ATOM     22  C   LIG    1       27.090 -20.035   6.366  0.00  0.00    +0.088 C 
ENDROOT
TORSDOF 0
ENDMDL
