MODEL 1
REMARK VINA RESULT:      -9.3      0.000      0.000
REMARK  Name = *****
REMARK                            x       y       z     vdW  Elec       q    Type
REMARK                         _______ _______ _______ _____ _____    ______ ____
ROOT
ATOM      1  C   LIG    1       27.334 -21.588   7.450  0.00  0.00    +0.128 A 
ATOM      2  N   LIG    1       26.684 -22.643   6.913  0.00  0.00    -0.199 NA
ATOM      3  C   LIG    1       25.364 -22.780   7.165  0.00  0.00    +0.221 A 
ATOM      4  N   LIG    1       24.665 -21.930   7.932  0.00  0.00    -0.223 NA
ATOM      5  C   LIG    1       25.332 -20.889   8.448  0.00  0.00    +0.118 A 
ATOM      6  C   LIG    1       26.664 -20.655   8.212  0.00  0.00    +0.063 A 
ENDROOT
BRANCH   1   7
ATOM      7  N   LIG    1       28.710 -21.440   7.161  0.00  0.00    -0.299 N 
ATOM      8  H   LIG    1       29.120 -22.372   7.107  0.00  0.00    +0.154 HD
BRANCH   7  11
ATOM      9  C   LIG    1       28.823 -18.875   5.742  0.00  0.00    +0.045 C 
ATOM     10  C   LIG    1       29.744 -19.237   6.881  0.00  0.00    -0.029 A 
ATOM     11  C   LIG    1       29.676 -20.479   7.582  0.00  0.00    +0.038 A 
ATOM     12  C   LIG    1       30.620 -20.699   8.620  0.00  0.00    -0.029 A 
ATOM     13  C   LIG    1       30.774 -21.991   9.379  0.00  0.00    +0.045 C 
ATOM     14  C   LIG    1       31.532 -19.677   8.976  0.00  0.00    +0.013 A 
ATOM     15  C   LIG    1       31.563 -18.455   8.312  0.00  0.00    -0.024 A 
ATOM     16  C   LIG    1       30.674 -18.245   7.265  0.00  0.00    +0.013 A 
BRANCH  15  17
ATOM     17  C   LIG    1       32.525 -17.426   8.693  0.00  0.00    +0.019 C 
ATOM     18  C   LIG    1       32.369 -16.545   9.696  0.00  0.00    +0.089 C 
BRANCH  18  19
ATOM     19  C   LIG    1       31.257 -16.498  10.558  0.00  0.00    +0.091 C 
ATOM     20  N   LIG    1       30.301 -16.480  11.253  0.00  0.00    -0.192 NA
ENDBRANCH  18  19
ENDBRANCH  15  17
ENDBRANCH   7  11
ENDBRANCH   1   7
BRANCH   3  21
ATOM     21  N   LIG    1       24.598 -23.842   6.685  0.00  0.00    -0.284 N 
ATOM     22  H   LIG    1       23.656 -23.514   6.515  0.00  0.00    +0.155 HD
BRANCH  21  23
ATOM     23  C   LIG    1       24.860 -25.192   6.446  0.00  0.00    +0.034 A 
ATOM     24  C   LIG    1       25.855 -25.906   7.116  0.00  0.00    +0.024 A 
ATOM     25  C   LIG    1       26.019 -27.280   6.916  0.00  0.00    +0.021 A 
ATOM     26  C   LIG    1       25.171 -27.972   6.048  0.00  0.00    +0.052 A 
ATOM     27  C   LIG    1       24.165 -27.279   5.375  0.00  0.00    +0.021 A 
ATOM     28  C   LIG    1       24.015 -25.901   5.575  0.00  0.00    +0.024 A 
BRANCH  26  29
ATOM     29  C   LIG    1       25.334 -29.385   5.856  0.00  0.00    +0.099 C 
ATOM     30  N   LIG    1       25.470 -30.523   5.702  0.00  0.00    -0.191 NA
ENDBRANCH  26  29
ENDBRANCH  21  23
ENDBRANCH   3  21
TORSDOF 7
ENDMDL
MODEL 2
REMARK VINA RESULT:      -8.9      2.058      3.640
REMARK  Name = *****
REMARK                            x       y       z     vdW  Elec       q    Type
REMARK                         _______ _______ _______ _____ _____    ______ ____
ROOT
ATOM      1  C   LIG    1       24.251 -22.199   6.475  0.00  0.00    +0.128 A 
ATOM      2  N   LIG    1       25.053 -23.232   6.138  0.00  0.00    -0.199 NA
ATOM      3  C   LIG    1       24.532 -24.479   6.149  0.00  0.00    +0.221 A 
ATOM      4  N   LIG    1       23.263 -24.748   6.488  0.00  0.00    -0.223 NA
ATOM      5  C   LIG    1       22.487 -23.705   6.812  0.00  0.00    +0.118 A 
ATOM      6  C   LIG    1       22.925 -22.404   6.792  0.00  0.00    +0.063 A 
ENDROOT
BRANCH   1   7
ATOM      7  N   LIG    1       24.798 -20.896   6.438  0.00  0.00    -0.299 N 
ATOM      8  H   LIG    1       24.219 -20.331   5.817  0.00  0.00    +0.154 HD
BRANCH   7  11
ATOM      9  C   LIG    1       26.233 -20.878   8.998  0.00  0.00    +0.045 C 
ATOM     10  C   LIG    1       26.839 -20.399   7.700  0.00  0.00    -0.029 A 
ATOM     11  C   LIG    1       26.145 -20.426   6.453  0.00  0.00    +0.038 A 
ATOM     12  C   LIG    1       26.826 -19.922   5.312  0.00  0.00    -0.029 A 
ATOM     13  C   LIG    1       26.209 -19.761   3.948  0.00  0.00    +0.045 C 
ATOM     14  C   LIG    1       28.169 -19.490   5.424  0.00  0.00    +0.013 A 
ATOM     15  C   LIG    1       28.848 -19.507   6.638  0.00  0.00    -0.024 A 
ATOM     16  C   LIG    1       28.177 -19.954   7.769  0.00  0.00    +0.013 A 
BRANCH  15  17
ATOM     17  C   LIG    1       30.228 -19.040   6.723  0.00  0.00    +0.019 C 
ATOM     18  C   LIG    1       31.161 -19.515   7.567  0.00  0.00    +0.089 C 
BRANCH  18  19
ATOM     19  C   LIG    1       30.956 -20.563   8.485  0.00  0.00    +0.091 C 
ATOM     20  N   LIG    1       30.811 -21.424   9.281  0.00  0.00    -0.192 NA
ENDBRANCH  18  19
ENDBRANCH  15  17
ENDBRANCH   7  11
ENDBRANCH   1   7
BRANCH   3  21
ATOM     21  N   LIG    1       25.272 -25.621   5.845  0.00  0.00    -0.284 N 
ATOM     22  H   LIG    1       25.990 -25.375   5.175  0.00  0.00    +0.155 HD
BRANCH  21  23
ATOM     23  C   LIG    1       25.190 -26.958   6.236  0.00  0.00    +0.034 A 
ATOM     24  C   LIG    1       25.765 -27.445   7.411  0.00  0.00    +0.024 A 
ATOM     25  C   LIG    1       25.577 -28.771   7.814  0.00  0.00    +0.021 A 
ATOM     26  C   LIG    1       24.787 -29.633   7.051  0.00  0.00    +0.052 A 
ATOM     27  C   LIG    1       24.196 -29.164   5.877  0.00  0.00    +0.021 A 
ATOM     28  C   LIG    1       24.399 -27.838   5.478  0.00  0.00    +0.024 A 
BRANCH  26  29
ATOM     29  C   LIG    1       24.584 -30.990   7.475  0.00  0.00    +0.099 C 
ATOM     30  N   LIG    1       24.419 -32.085   7.810  0.00  0.00    -0.191 NA
ENDBRANCH  26  29
ENDBRANCH  21  23
ENDBRANCH   3  21
TORSDOF 7
ENDMDL
MODEL 3
REMARK VINA RESULT:      -8.8      1.822      2.985
REMARK  Name = *****
REMARK                            x       y       z     vdW  Elec       q    Type
REMARK                         _______ _______ _______ _____ _____    ______ ____
ROOT
ATOM      1  C   LIG    1       24.408 -22.248   6.353  0.00  0.00    +0.128 A 
ATOM      2  N   LIG    1       25.112 -23.330   5.956  0.00  0.00    -0.199 NA
ATOM      3  C   LIG    1       24.519 -24.542   6.021  0.00  0.00    +0.221 A 
ATOM      4  N   LIG    1       23.270 -24.731   6.470  0.00  0.00    -0.223 NA
ATOM      5  C   LIG    1       22.591 -23.641   6.852  0.00  0.00    +0.118 A 
ATOM      6  C   LIG    1       23.104 -22.370   6.785  0.00  0.00    +0.063 A 
ENDROOT
BRANCH   1   7
ATOM      7  N   LIG    1       25.029 -20.981   6.259  0.00  0.00    -0.299 N 
ATOM      8  H   LIG    1       24.570 -20.462   5.511  0.00  0.00    +0.154 HD
BRANCH   7  11
ATOM      9  C   LIG    1       26.266 -19.456   4.080  0.00  0.00    +0.045 C 
ATOM     10  C   LIG    1       26.996 -19.844   5.343  0.00  0.00    -0.029 A 
ATOM     11  C   LIG    1       26.386 -20.571   6.410  0.00  0.00    +0.038 A 
ATOM     12  C   LIG    1       27.196 -20.891   7.532  0.00  0.00    -0.029 A 
ATOM     13  C   LIG    1       26.758 -21.752   8.688  0.00  0.00    +0.045 C 
ATOM     14  C   LIG    1       28.532 -20.426   7.597  0.00  0.00    +0.013 A 
ATOM     15  C   LIG    1       29.103 -19.684   6.568  0.00  0.00    -0.024 A 
ATOM     16  C   LIG    1       28.334 -19.404   5.445  0.00  0.00    +0.013 A 
BRANCH  15  17
ATOM     17  C   LIG    1       30.487 -19.232   6.658  0.00  0.00    +0.019 C 
ATOM     18  C   LIG    1       31.023 -18.561   7.693  0.00  0.00    +0.089 C 
BRANCH  18  19
ATOM     19  C   LIG    1       30.331 -18.215   8.870  0.00  0.00    +0.091 C 
ATOM     20  N   LIG    1       29.787 -17.928   9.879  0.00  0.00    -0.192 NA
ENDBRANCH  18  19
ENDBRANCH  15  17
ENDBRANCH   7  11
ENDBRANCH   1   7
BRANCH   3  21
ATOM     21  N   LIG    1       25.159 -25.728   5.663  0.00  0.00    -0.284 N 
ATOM     22  H   LIG    1       25.761 -25.547   4.870  0.00  0.00    +0.155 HD
BRANCH  21  23
ATOM     23  C   LIG    1       25.101 -27.039   6.139  0.00  0.00    +0.034 A 
ATOM     24  C   LIG    1       25.737 -27.454   7.309  0.00  0.00    +0.024 A 
ATOM     25  C   LIG    1       25.573 -28.753   7.801  0.00  0.00    +0.021 A 
ATOM     26  C   LIG    1       24.747 -29.659   7.133  0.00  0.00    +0.052 A 
ATOM     27  C   LIG    1       24.094 -29.262   5.966  0.00  0.00    +0.021 A 
ATOM     28  C   LIG    1       24.273 -27.963   5.477  0.00  0.00    +0.024 A 
BRANCH  26  29
ATOM     29  C   LIG    1       24.569 -30.988   7.648  0.00  0.00    +0.099 C 
ATOM     30  N   LIG    1       24.429 -32.060   8.059  0.00  0.00    -0.191 NA
ENDBRANCH  26  29
ENDBRANCH  21  23
ENDBRANCH   3  21
TORSDOF 7
ENDMDL
MODEL 4
REMARK VINA RESULT:      -8.7      2.542      9.958
REMARK  Name = *****
REMARK                            x       y       z     vdW  Elec       q    Type
REMARK                         _______ _______ _______ _____ _____    ______ ____
ROOT
ATOM      1  C   LIG    1       28.938 -19.821   6.779  0.00  0.00    +0.128 A 
ATOM      2  N   LIG    1       29.534 -18.678   7.184  0.00  0.00    -0.199 NA
ATOM      3  C   LIG    1       30.702 -18.765   7.856  0.00  0.00    +0.221 A 
ATOM      4  N   LIG    1       31.298 -19.929   8.154  0.00  0.00    -0.223 NA
ATOM      5  C   LIG    1       30.691 -21.047   7.736  0.00  0.00    +0.118 A 
ATOM      6  C   LIG    1       29.522 -21.047   7.016  0.00  0.00    +0.063 A 
ENDROOT
BRANCH   1   7
ATOM      7  N   LIG    1       27.728 -19.717   6.055  0.00  0.00    -0.299 N 
ATOM      8  H   LIG    1       27.630 -18.751   5.747  0.00  0.00    +0.154 HD
BRANCH   7  11
ATOM      9  C   LIG    1       25.903 -19.826   3.761  0.00  0.00    +0.045 C 
ATOM     10  C   LIG    1       25.556 -20.367   5.127  0.00  0.00    -0.029 A 
ATOM     11  C   LIG    1       26.453 -20.330   6.237  0.00  0.00    +0.038 A 
ATOM     12  C   LIG    1       25.989 -20.855   7.473  0.00  0.00    -0.029 A 
ATOM     13  C   LIG    1       26.749 -20.788   8.772  0.00  0.00    +0.045 C 
ATOM     14  C   LIG    1       24.710 -21.457   7.551  0.00  0.00    +0.013 A 
ATOM     15  C   LIG    1       23.861 -21.524   6.451  0.00  0.00    -0.024 A 
ATOM     16  C   LIG    1       24.286 -20.973   5.248  0.00  0.00    +0.013 A 
BRANCH  15  17
ATOM     17  C   LIG    1       22.542 -22.137   6.567  0.00  0.00    +0.019 C 
ATOM     18  C   LIG    1       22.299 -23.459   6.611  0.00  0.00    +0.089 C 
BRANCH  18  19
ATOM     19  C   LIG    1       23.289 -24.460   6.580  0.00  0.00    +0.091 C 
ATOM     20  N   LIG    1       24.113 -25.304   6.513  0.00  0.00    -0.192 NA
ENDBRANCH  18  19
ENDBRANCH  15  17
ENDBRANCH   7  11
ENDBRANCH   1   7
BRANCH   3  21
ATOM     21  N   LIG    1       31.391 -17.655   8.344  0.00  0.00    -0.284 N 
ATOM     22  H   LIG    1       31.710 -17.100   7.561  0.00  0.00    +0.155 HD
BRANCH  21  23
ATOM     23  C   LIG    1       31.730 -17.215   9.624  0.00  0.00    +0.034 A 
ATOM     24  C   LIG    1       32.771 -16.319   9.872  0.00  0.00    +0.024 A 
ATOM     25  C   LIG    1       33.015 -15.828  11.159  0.00  0.00    +0.021 A 
ATOM     26  C   LIG    1       32.202 -16.217  12.225  0.00  0.00    +0.052 A 
ATOM     27  C   LIG    1       31.150 -17.106  11.998  0.00  0.00    +0.021 A 
ATOM     28  C   LIG    1       30.921 -17.598  10.708  0.00  0.00    +0.024 A 
BRANCH  26  29
ATOM     29  C   LIG    1       32.446 -15.702  13.543  0.00  0.00    +0.099 C 
ATOM     30  N   LIG    1       32.638 -15.290  14.606  0.00  0.00    -0.191 NA
ENDBRANCH  26  29
ENDBRANCH  21  23
ENDBRANCH   3  21
TORSDOF 7
ENDMDL
MODEL 5
REMARK VINA RESULT:      -8.6      2.081      9.792
REMARK  Name = *****
REMARK                            x       y       z     vdW  Elec       q    Type
REMARK                         _______ _______ _______ _____ _____    ______ ____
ROOT
ATOM      1  C   LIG    1       27.746 -19.740   6.571  0.00  0.00    +0.128 A 
ATOM      2  N   LIG    1       28.568 -19.781   7.642  0.00  0.00    -0.199 NA
ATOM      3  C   LIG    1       29.825 -19.305   7.506  0.00  0.00    +0.221 A 
ATOM      4  N   LIG    1       30.306 -18.804   6.359  0.00  0.00    -0.223 NA
ATOM      5  C   LIG    1       29.469 -18.768   5.314  0.00  0.00    +0.118 A 
ATOM      6  C   LIG    1       28.166 -19.197   5.376  0.00  0.00    +0.063 A 
ENDROOT
BRANCH   1   7
ATOM      7  N   LIG    1       26.425 -20.219   6.730  0.00  0.00    -0.299 N 
ATOM      8  H   LIG    1       26.013 -19.739   7.529  0.00  0.00    +0.154 HD
BRANCH   7  11
ATOM      9  C   LIG    1       24.857 -20.729   4.303  0.00  0.00    +0.045 C 
ATOM     10  C   LIG    1       25.074 -21.758   5.386  0.00  0.00    -0.029 A 
ATOM     11  C   LIG    1       25.853 -21.514   6.557  0.00  0.00    +0.038 A 
ATOM     12  C   LIG    1       25.956 -22.564   7.508  0.00  0.00    -0.029 A 
ATOM     13  C   LIG    1       26.630 -22.443   8.850  0.00  0.00    +0.045 C 
ATOM     14  C   LIG    1       25.363 -23.821   7.241  0.00  0.00    +0.013 A 
ATOM     15  C   LIG    1       24.640 -24.060   6.076  0.00  0.00    -0.024 A 
ATOM     16  C   LIG    1       24.494 -23.026   5.160  0.00  0.00    +0.013 A 
BRANCH  15  17
ATOM     17  C   LIG    1       24.027 -25.363   5.837  0.00  0.00    +0.019 C 
ATOM     18  C   LIG    1       24.691 -26.493   5.536  0.00  0.00    +0.089 C 
BRANCH  18  19
ATOM     19  C   LIG    1       26.092 -26.599   5.434  0.00  0.00    +0.091 C 
ATOM     20  N   LIG    1       27.267 -26.709   5.385  0.00  0.00    -0.192 NA
ENDBRANCH  18  19
ENDBRANCH  15  17
ENDBRANCH   7  11
ENDBRANCH   1   7
BRANCH   3  21
ATOM     21  N   LIG    1       30.766 -19.322   8.535  0.00  0.00    -0.284 N 
ATOM     22  H   LIG    1       31.224 -20.224   8.544  0.00  0.00    +0.155 HD
BRANCH  21  23
ATOM     23  C   LIG    1       31.145 -18.400   9.512  0.00  0.00    +0.034 A 
ATOM     24  C   LIG    1       30.531 -18.317  10.762  0.00  0.00    +0.024 A 
ATOM     25  C   LIG    1       31.005 -17.445  11.747  0.00  0.00    +0.021 A 
ATOM     26  C   LIG    1       32.125 -16.648  11.500  0.00  0.00    +0.052 A 
ATOM     27  C   LIG    1       32.760 -16.721  10.260  0.00  0.00    +0.021 A 
ATOM     28  C   LIG    1       32.271 -17.591   9.278  0.00  0.00    +0.024 A 
BRANCH  26  29
ATOM     29  C   LIG    1       32.619 -15.764  12.518  0.00  0.00    +0.099 C 
ATOM     30  N   LIG    1       33.019 -15.056  13.340  0.00  0.00    -0.191 NA
ENDBRANCH  26  29
ENDBRANCH  21  23
ENDBRANCH   3  21
TORSDOF 7
ENDMDL
MODEL 6
REMARK VINA RESULT:      -8.5      1.406      1.865
REMARK  Name = *****
REMARK                            x       y       z     vdW  Elec       q    Type
REMARK                         _______ _______ _______ _____ _____    ______ ____
ROOT
ATOM      1  C   LIG    1       25.520 -21.130   6.086  0.00  0.00    +0.128 A 
ATOM      2  N   LIG    1       25.531 -22.356   5.520  0.00  0.00    -0.199 NA
ATOM      3  C   LIG    1       24.551 -23.225   5.852  0.00  0.00    +0.221 A 
ATOM      4  N   LIG    1       23.572 -22.939   6.724  0.00  0.00    -0.223 NA
ATOM      5  C   LIG    1       23.581 -21.714   7.265  0.00  0.00    +0.118 A 
ATOM      6  C   LIG    1       24.517 -20.759   6.956  0.00  0.00    +0.063 A 
ENDROOT
BRANCH   1   7
ATOM      7  N   LIG    1       26.536 -20.219   5.715  0.00  0.00    -0.299 N 
ATOM      8  H   LIG    1       26.583 -20.202   4.697  0.00  0.00    +0.154 HD
BRANCH   7  11
ATOM      9  C   LIG    1       28.135 -18.075   4.508  0.00  0.00    +0.045 C 
ATOM     10  C   LIG    1       28.592 -18.887   5.696  0.00  0.00    -0.029 A 
ATOM     11  C   LIG    1       27.804 -19.917   6.293  0.00  0.00    +0.038 A 
ATOM     12  C   LIG    1       28.366 -20.619   7.393  0.00  0.00    -0.029 A 
ATOM     13  C   LIG    1       27.733 -21.810   8.064  0.00  0.00    +0.045 C 
ATOM     14  C   LIG    1       29.629 -20.237   7.905  0.00  0.00    +0.013 A 
ATOM     15  C   LIG    1       30.370 -19.203   7.340  0.00  0.00    -0.024 A 
ATOM     16  C   LIG    1       29.850 -18.540   6.236  0.00  0.00    +0.013 A 
BRANCH  15  17
ATOM     17  C   LIG    1       31.676 -18.843   7.882  0.00  0.00    +0.019 C 
ATOM     18  C   LIG    1       31.890 -17.984   8.894  0.00  0.00    +0.089 C 
BRANCH  18  19
ATOM     19  C   LIG    1       30.877 -17.317   9.610  0.00  0.00    +0.091 C 
ATOM     20  N   LIG    1       30.013 -16.795  10.224  0.00  0.00    -0.192 NA
ENDBRANCH  18  19
ENDBRANCH  15  17
ENDBRANCH   7  11
ENDBRANCH   1   7
BRANCH   3  21
ATOM     21  N   LIG    1       24.477 -24.524   5.351  0.00  0.00    -0.284 N 
ATOM     22  H   LIG    1       24.063 -24.495   4.429  0.00  0.00    +0.155 HD
BRANCH  21  23
ATOM     23  C   LIG    1       24.812 -25.778   5.865  0.00  0.00    +0.034 A 
ATOM     24  C   LIG    1       25.779 -25.965   6.853  0.00  0.00    +0.024 A 
ATOM     25  C   LIG    1       26.014 -27.227   7.408  0.00  0.00    +0.021 A 
ATOM     26  C   LIG    1       25.266 -28.329   6.992  0.00  0.00    +0.052 A 
ATOM     27  C   LIG    1       24.288 -28.163   6.010  0.00  0.00    +0.021 A 
ATOM     28  C   LIG    1       24.067 -26.898   5.454  0.00  0.00    +0.024 A 
BRANCH  26  29
ATOM     29  C   LIG    1       25.500 -29.621   7.573  0.00  0.00    +0.099 C 
ATOM     30  N   LIG    1       25.693 -30.659   8.044  0.00  0.00    -0.191 NA
ENDBRANCH  26  29
ENDBRANCH  21  23
ENDBRANCH   3  21
TORSDOF 7
ENDMDL
MODEL 7
REMARK VINA RESULT:      -8.0      4.623      9.881
REMARK  Name = *****
REMARK                            x       y       z     vdW  Elec       q    Type
REMARK                         _______ _______ _______ _____ _____    ______ ____
ROOT
ATOM      1  C   LIG    1       24.842 -29.922   7.518  0.00  0.00    +0.128 A 
ATOM      2  N   LIG    1       24.364 -28.678   7.295  0.00  0.00    -0.199 NA
ATOM      3  C   LIG    1       24.453 -28.171   6.046  0.00  0.00    +0.221 A 
ATOM      4  N   LIG    1       25.000 -28.833   5.016  0.00  0.00    -0.223 NA
ATOM      5  C   LIG    1       25.461 -30.066   5.263  0.00  0.00    +0.118 A 
ATOM      6  C   LIG    1       25.378 -30.670   6.492  0.00  0.00    +0.063 A 
ENDROOT
BRANCH   1   7
ATOM      7  N   LIG    1       24.724 -30.453   8.824  0.00  0.00    -0.299 N 
ATOM      8  H   LIG    1       24.130 -31.280   8.772  0.00  0.00    +0.154 HD
BRANCH   7  11
ATOM      9  C   LIG    1       22.217 -30.749  10.320  0.00  0.00    +0.045 C 
ATOM     10  C   LIG    1       23.399 -29.956  10.824  0.00  0.00    -0.029 A 
ATOM     11  C   LIG    1       24.625 -29.829  10.102  0.00  0.00    +0.038 A 
ATOM     12  C   LIG    1       25.648 -29.033  10.682  0.00  0.00    -0.029 A 
ATOM     13  C   LIG    1       26.952 -28.690  10.010  0.00  0.00    +0.045 C 
ATOM     14  C   LIG    1       25.461 -28.464  11.965  0.00  0.00    +0.013 A 
ATOM     15  C   LIG    1       24.277 -28.629  12.677  0.00  0.00    -0.024 A 
ATOM     16  C   LIG    1       23.252 -29.367  12.099  0.00  0.00    +0.013 A 
BRANCH  15  17
ATOM     17  C   LIG    1       24.109 -28.017  13.991  0.00  0.00    +0.019 C 
ATOM     18  C   LIG    1       23.082 -27.230  14.359  0.00  0.00    +0.089 C 
BRANCH  18  19
ATOM     19  C   LIG    1       21.989 -26.898  13.536  0.00  0.00    +0.091 C 
ATOM     20  N   LIG    1       21.046 -26.623  12.879  0.00  0.00    -0.192 NA
ENDBRANCH  18  19
ENDBRANCH  15  17
ENDBRANCH   7  11
ENDBRANCH   1   7
BRANCH   3  21
ATOM     21  N   LIG    1       24.017 -26.890   5.706  0.00  0.00    -0.284 N 
ATOM     22  H   LIG    1       23.369 -26.962   4.932  0.00  0.00    +0.155 HD
BRANCH  21  23
ATOM     23  C   LIG    1       24.315 -25.612   6.178  0.00  0.00    +0.034 A 
ATOM     24  C   LIG    1       23.344 -24.635   6.402  0.00  0.00    +0.024 A 
ATOM     25  C   LIG    1       23.675 -23.400   6.968  0.00  0.00    +0.021 A 
ATOM     26  C   LIG    1       24.993 -23.126   7.339  0.00  0.00    +0.052 A 
ATOM     27  C   LIG    1       25.979 -24.092   7.132  0.00  0.00    +0.021 A 
ATOM     28  C   LIG    1       25.638 -25.321   6.556  0.00  0.00    +0.024 A 
BRANCH  26  29
ATOM     29  C   LIG    1       25.328 -21.862   7.932  0.00  0.00    +0.099 C 
ATOM     30  N   LIG    1       25.603 -20.844   8.407  0.00  0.00    -0.191 NA
ENDBRANCH  26  29
ENDBRANCH  21  23
ENDBRANCH   3  21
TORSDOF 7
ENDMDL
MODEL 8
REMARK VINA RESULT:      -8.0      4.937     10.141
REMARK  Name = *****
REMARK                            x       y       z     vdW  Elec       q    Type
REMARK                         _______ _______ _______ _____ _____    ______ ____
ROOT
ATOM      1  C   LIG    1       25.998 -27.139   6.773  0.00  0.00    +0.128 A 
ATOM      2  N   LIG    1       25.902 -25.903   7.308  0.00  0.00    -0.199 NA
ATOM      3  C   LIG    1       25.613 -24.869   6.487  0.00  0.00    +0.221 A 
ATOM      4  N   LIG    1       25.427 -25.003   5.166  0.00  0.00    -0.223 NA
ATOM      5  C   LIG    1       25.521 -26.241   4.662  0.00  0.00    +0.118 A 
ATOM      6  C   LIG    1       25.775 -27.350   5.429  0.00  0.00    +0.063 A 
ENDROOT
BRANCH   1   7
ATOM      7  N   LIG    1       26.278 -28.218   7.643  0.00  0.00    -0.299 N 
ATOM      8  H   LIG    1       26.978 -28.809   7.194  0.00  0.00    +0.154 HD
BRANCH   7  11
ATOM      9  C   LIG    1       26.889 -28.193  10.513  0.00  0.00    +0.045 C 
ATOM     10  C   LIG    1       25.753 -28.984   9.911  0.00  0.00    -0.029 A 
ATOM     11  C   LIG    1       25.447 -28.980   8.516  0.00  0.00    +0.038 A 
ATOM     12  C   LIG    1       24.364 -29.790   8.081  0.00  0.00    -0.029 A 
ATOM     13  C   LIG    1       23.978 -30.002   6.640  0.00  0.00    +0.045 C 
ATOM     14  C   LIG    1       23.586 -30.501   9.026  0.00  0.00    +0.013 A 
ATOM     15  C   LIG    1       23.870 -30.464  10.388  0.00  0.00    -0.024 A 
ATOM     16  C   LIG    1       24.955 -29.712  10.820  0.00  0.00    +0.013 A 
BRANCH  15  17
ATOM     17  C   LIG    1       23.059 -31.220  11.336  0.00  0.00    +0.019 C 
ATOM     18  C   LIG    1       22.218 -30.689  12.240  0.00  0.00    +0.089 C 
BRANCH  18  19
ATOM     19  C   LIG    1       21.968 -29.312  12.393  0.00  0.00    +0.091 C 
ATOM     20  N   LIG    1       21.760 -28.161  12.562  0.00  0.00    -0.192 NA
ENDBRANCH  18  19
ENDBRANCH  15  17
ENDBRANCH   7  11
ENDBRANCH   1   7
BRANCH   3  21
ATOM     21  N   LIG    1       25.516 -23.548   6.923  0.00  0.00    -0.284 N 
ATOM     22  H   LIG    1       26.051 -23.447   7.776  0.00  0.00    +0.155 HD
BRANCH  21  23
ATOM     23  C   LIG    1       24.834 -22.424   6.455  0.00  0.00    +0.034 A 
ATOM     24  C   LIG    1       25.457 -21.392   5.753  0.00  0.00    +0.024 A 
ATOM     25  C   LIG    1       24.720 -20.331   5.218  0.00  0.00    +0.021 A 
ATOM     26  C   LIG    1       23.331 -20.295   5.363  0.00  0.00    +0.052 A 
ATOM     27  C   LIG    1       22.687 -21.322   6.054  0.00  0.00    +0.021 A 
ATOM     28  C   LIG    1       23.436 -22.375   6.594  0.00  0.00    +0.024 A 
BRANCH  26  29
ATOM     29  C   LIG    1       22.575 -19.212   4.801  0.00  0.00    +0.099 C 
ATOM     30  N   LIG    1       21.969 -18.336   4.350  0.00  0.00    -0.191 NA
ENDBRANCH  26  29
ENDBRANCH  21  23
ENDBRANCH   3  21
TORSDOF 7
ENDMDL
MODEL 9
REMARK VINA RESULT:      -7.9      2.087     10.246
REMARK  Name = *****
REMARK                            x       y       z     vdW  Elec       q    Type
REMARK                         _______ _______ _______ _____ _____    ______ ____
ROOT
ATOM      1  C   LIG    1       25.221 -25.171   6.632  0.00  0.00    +0.128 A 
ATOM      2  N   LIG    1       25.938 -24.045   6.428  0.00  0.00    -0.199 NA
ATOM      3  C   LIG    1       25.274 -22.875   6.302  0.00  0.00    +0.221 A 
ATOM      4  N   LIG    1       23.938 -22.773   6.357  0.00  0.00    -0.223 NA
ATOM      5  C   LIG    1       23.251 -23.904   6.566  0.00  0.00    +0.118 A 
ATOM      6  C   LIG    1       23.848 -25.127   6.741  0.00  0.00    +0.063 A 
ENDROOT
BRANCH   1   7
ATOM      7  N   LIG    1       25.926 -26.387   6.786  0.00  0.00    -0.299 N 
ATOM      8  H   LIG    1       26.784 -26.323   6.239  0.00  0.00    +0.154 HD
BRANCH   7  11
ATOM      9  C   LIG    1       26.557 -27.866   9.241  0.00  0.00    +0.045 C 
ATOM     10  C   LIG    1       25.806 -28.466   8.077  0.00  0.00    -0.029 A 
ATOM     11  C   LIG    1       25.484 -27.739   6.891  0.00  0.00    +0.038 A 
ATOM     12  C   LIG    1       24.794 -28.434   5.862  0.00  0.00    -0.029 A 
ATOM     13  C   LIG    1       24.483 -27.865   4.503  0.00  0.00    +0.045 C 
ATOM     14  C   LIG    1       24.384 -29.774   6.065  0.00  0.00    +0.013 A 
ATOM     15  C   LIG    1       24.669 -30.460   7.242  0.00  0.00    -0.024 A 
ATOM     16  C   LIG    1       25.383 -29.804   8.237  0.00  0.00    +0.013 A 
BRANCH  15  17
ATOM     17  C   LIG    1       24.246 -31.845   7.415  0.00  0.00    +0.019 C 
ATOM     18  C   LIG    1       24.984 -32.929   7.116  0.00  0.00    +0.089 C 
BRANCH  18  19
ATOM     19  C   LIG    1       26.299 -32.892   6.615  0.00  0.00    +0.091 C 
ATOM     20  N   LIG    1       27.417 -32.857   6.234  0.00  0.00    -0.192 NA
ENDBRANCH  18  19
ENDBRANCH  15  17
ENDBRANCH   7  11
ENDBRANCH   1   7
BRANCH   3  21
ATOM     21  N   LIG    1       25.909 -21.656   6.063  0.00  0.00    -0.284 N 
ATOM     22  H   LIG    1       25.354 -21.124   5.405  0.00  0.00    +0.155 HD
BRANCH  21  23
ATOM     23  C   LIG    1       27.103 -21.086   6.505  0.00  0.00    +0.034 A 
ATOM     24  C   LIG    1       27.852 -21.606   7.561  0.00  0.00    +0.024 A 
ATOM     25  C   LIG    1       29.093 -21.060   7.908  0.00  0.00    +0.021 A 
ATOM     26  C   LIG    1       29.615 -19.986   7.185  0.00  0.00    +0.052 A 
ATOM     27  C   LIG    1       28.886 -19.456   6.120  0.00  0.00    +0.021 A 
ATOM     28  C   LIG    1       27.642 -20.004   5.787  0.00  0.00    +0.024 A 
BRANCH  26  29
ATOM     29  C   LIG    1       30.895 -19.436   7.534  0.00  0.00    +0.099 C 
ATOM     30  N   LIG    1       31.926 -18.992   7.810  0.00  0.00    -0.191 NA
ENDBRANCH  26  29
ENDBRANCH  21  23
ENDBRANCH   3  21
TORSDOF 7
ENDMDL
