MODEL 1
REMARK VINA RESULT:      -1.1      0.000      0.000
REMARK  Name = *****
REMARK                            x       y       z     vdW  Elec       q    Type
REMARK                         _______ _______ _______ _____ _____    ______ ____
ROOT
ATOM      1  C   LIG    1       23.623 -14.270   4.409  0.00  0.00    -0.043 A 
ATOM      2  C   LIG    1       24.882 -14.217   3.892  0.00  0.00    +0.021 A 
ATOM      3  C   LIG    1       25.556 -15.375   3.452  0.00  0.00    +0.057 A 
ATOM      4  I   LIG    1       27.578 -14.684   3.277  0.00  0.00    -0.040 I 
ATOM      5  C   LIG    1       24.909 -16.651   3.369  0.00  0.00    +0.154 A 
ATOM      6  C   LIG    1       23.610 -16.680   3.916  0.00  0.00    +0.057 A 
ATOM      7  I   LIG    1       22.265 -18.301   4.187  0.00  0.00    -0.040 I 
ATOM      8  C   LIG    1       23.059 -15.521   4.472  0.00  0.00    +0.021 A 
ENDROOT
BRANCH   1   9
ATOM      9  C   LIG    1       22.978 -13.033   4.968  0.00  0.00    +0.065 C 
BRANCH   9  10
ATOM     10  CA  LIG    1       23.774 -11.737   4.731  0.00  0.00    +0.165 C 
BRANCH  10  11
ATOM     11  N   LIG    1       24.880 -11.632   5.705  0.00  0.00    -0.318 NA
ATOM     12  H1  LIG    1       24.479 -11.303   6.591  0.00  0.00    +0.119 HD
ATOM     13  H2  LIG    1       25.204 -12.576   5.921  0.00  0.00    +0.119 HD
ENDBRANCH  10  11
BRANCH  10  14
ATOM     14  C   LIG    1       24.397 -11.683   3.299  0.00  0.00    +0.322 C 
ATOM     15  O   LIG    1       25.554 -11.624   3.106  0.00  0.00    -0.249 OA
BRANCH  14  16
ATOM     16  OXT LIG    1       23.508 -11.660   2.256  0.00  0.00    -0.479 OA
ATOM     17  HXT LIG    1       23.823 -11.457   1.377  0.00  0.00    +0.295 HD
ENDBRANCH  14  16
ENDBRANCH  10  14
ENDBRANCH   9  10
ENDBRANCH   1   9
BRANCH   5  18
ATOM     18  O   LIG    1       25.395 -17.871   2.898  0.00  0.00    -0.454 OA
BRANCH  18  19
ATOM     19  C   LIG    1       25.491 -18.964   3.735  0.00  0.00    +0.131 A 
ATOM     20  C   LIG    1       26.703 -19.355   4.304  0.00  0.00    +0.064 A 
ATOM     21  C   LIG    1       26.720 -20.223   5.410  0.00  0.00    +0.059 A 
ATOM     22  I   LIG    1       28.535 -20.519   6.463  0.00  0.00    -0.040 I 
ATOM     23  C   LIG    1       25.531 -20.783   5.870  0.00  0.00    +0.143 A 
ATOM     24  C   LIG    1       24.356 -20.575   5.142  0.00  0.00    +0.059 A 
ATOM     25  I   LIG    1       22.599 -21.572   5.697  0.00  0.00    -0.040 I 
ATOM     26  C   LIG    1       24.337 -19.694   4.044  0.00  0.00    +0.064 A 
BRANCH  23  27
ATOM     27  O   LIG    1       25.548 -21.539   7.012  0.00  0.00    -0.505 OA
ATOM     28  H   LIG    1       24.654 -21.894   7.157  0.00  0.00    +0.292 HD
ENDBRANCH  23  27
ENDBRANCH  18  19
ENDBRANCH   5  18
TORSDOF 8
ENDMDL
MODEL 2
REMARK VINA RESULT:       0.0      2.908      7.444
REMARK  Name = *****
REMARK                            x       y       z     vdW  Elec       q    Type
REMARK                         _______ _______ _______ _____ _____    ______ ____
ROOT
ATOM      1  C   LIG    1       25.538 -20.411   5.412  0.00  0.00    -0.043 A 
ATOM      2  C   LIG    1       24.784 -19.693   4.535  0.00  0.00    +0.021 A 
ATOM      3  C   LIG    1       25.282 -18.539   3.895  0.00  0.00    +0.057 A 
ATOM      4  I   LIG    1       23.495 -17.645   3.116  0.00  0.00    -0.040 I 
ATOM      5  C   LIG    1       26.654 -18.138   3.999  0.00  0.00    +0.154 A 
ATOM      6  C   LIG    1       27.411 -18.893   4.919  0.00  0.00    +0.057 A 
ATOM      7  I   LIG    1       29.418 -18.662   5.570  0.00  0.00    -0.040 I 
ATOM      8  C   LIG    1       26.809 -19.936   5.630  0.00  0.00    +0.021 A 
ENDROOT
BRANCH   1   9
ATOM      9  C   LIG    1       24.940 -21.572   6.157  0.00  0.00    +0.065 C 
BRANCH   9  10
ATOM     10  CA  LIG    1       23.421 -21.468   6.384  0.00  0.00    +0.165 C 
BRANCH  10  11
ATOM     11  N   LIG    1       23.092 -20.196   7.062  0.00  0.00    -0.318 NA
ATOM     12  H1  LIG    1       22.340 -20.392   7.733  0.00  0.00    +0.119 HD
ATOM     13  H2  LIG    1       23.883 -19.936   7.653  0.00  0.00    +0.119 HD
ENDBRANCH  10  11
BRANCH  10  14
ATOM     14  C   LIG    1       22.622 -21.510   5.043  0.00  0.00    +0.322 C 
ATOM     15  O   LIG    1       21.448 -21.530   4.997  0.00  0.00    -0.249 OA
BRANCH  14  16
ATOM     16  OXT LIG    1       23.371 -21.572   3.896  0.00  0.00    -0.479 OA
ATOM     17  HXT LIG    1       23.850 -20.797   3.608  0.00  0.00    +0.295 HD
ENDBRANCH  14  16
ENDBRANCH  10  14
ENDBRANCH   9  10
ENDBRANCH   1   9
BRANCH   5  18
ATOM     18  O   LIG    1       27.325 -17.080   3.387  0.00  0.00    -0.454 OA
BRANCH  18  19
ATOM     19  C   LIG    1       26.934 -15.775   3.605  0.00  0.00    +0.131 A 
ATOM     20  C   LIG    1       25.593 -15.418   3.743  0.00  0.00    +0.064 A 
ATOM     21  C   LIG    1       25.243 -14.181   4.311  0.00  0.00    +0.059 A 
ATOM     22  I   LIG    1       23.220 -13.817   4.827  0.00  0.00    -0.040 I 
ATOM     23  C   LIG    1       26.236 -13.260   4.635  0.00  0.00    +0.143 A 
ATOM     24  C   LIG    1       27.558 -13.531   4.268  0.00  0.00    +0.059 A 
ATOM     25  I   LIG    1       29.036 -12.076   4.560  0.00  0.00    -0.040 I 
ATOM     26  C   LIG    1       27.909 -14.776   3.714  0.00  0.00    +0.064 A 
BRANCH  23  27
ATOM     27  O   LIG    1       25.890 -12.107   5.287  0.00  0.00    -0.505 OA
ATOM     28  H   LIG    1       25.899 -11.378   4.643  0.00  0.00    +0.292 HD
ENDBRANCH  23  27
ENDBRANCH  18  19
ENDBRANCH   5  18
TORSDOF 8
ENDMDL
MODEL 3
REMARK VINA RESULT:       0.5      2.876      7.304
REMARK  Name = *****
REMARK                            x       y       z     vdW  Elec       q    Type
REMARK                         _______ _______ _______ _____ _____    ______ ____
ROOT
ATOM      1  C   LIG    1       25.504 -20.431   5.456  0.00  0.00    -0.043 A 
ATOM      2  C   LIG    1       24.752 -19.674   4.611  0.00  0.00    +0.021 A 
ATOM      3  C   LIG    1       25.278 -18.538   3.960  0.00  0.00    +0.057 A 
ATOM      4  I   LIG    1       23.507 -17.561   3.251  0.00  0.00    -0.040 I 
ATOM      5  C   LIG    1       26.670 -18.200   4.018  0.00  0.00    +0.154 A 
ATOM      6  C   LIG    1       27.424 -18.995   4.905  0.00  0.00    +0.057 A 
ATOM      7  I   LIG    1       29.462 -18.857   5.486  0.00  0.00    -0.040 I 
ATOM      8  C   LIG    1       26.802 -20.015   5.631  0.00  0.00    +0.021 A 
ENDROOT
BRANCH   1   9
ATOM      9  C   LIG    1       24.882 -21.570   6.215  0.00  0.00    +0.065 C 
BRANCH   9  10
ATOM     10  CA  LIG    1       23.361 -21.448   6.412  0.00  0.00    +0.165 C 
BRANCH  10  11
ATOM     11  N   LIG    1       23.032 -20.161   7.062  0.00  0.00    -0.318 NA
ATOM     12  H1  LIG    1       23.185 -19.420   6.368  0.00  0.00    +0.119 HD
ATOM     13  H2  LIG    1       22.025 -20.136   7.226  0.00  0.00    +0.119 HD
ENDBRANCH  10  11
BRANCH  10  14
ATOM     14  C   LIG    1       22.585 -21.506   5.057  0.00  0.00    +0.322 C 
ATOM     15  O   LIG    1       21.412 -21.533   4.991  0.00  0.00    -0.249 OA
BRANCH  14  16
ATOM     16  OXT LIG    1       23.355 -21.572   3.925  0.00  0.00    -0.479 OA
ATOM     17  HXT LIG    1       23.284 -20.879   3.271  0.00  0.00    +0.295 HD
ENDBRANCH  14  16
ENDBRANCH  10  14
ENDBRANCH   9  10
ENDBRANCH   1   9
BRANCH   5  18
ATOM     18  O   LIG    1       27.365 -17.168   3.389  0.00  0.00    -0.454 OA
BRANCH  18  19
ATOM     19  C   LIG    1       27.035 -15.848   3.622  0.00  0.00    +0.131 A 
ATOM     20  C   LIG    1       27.981 -14.912   4.040  0.00  0.00    +0.064 A 
ATOM     21  C   LIG    1       27.716 -13.537   3.924  0.00  0.00    +0.059 A 
ATOM     22  I   LIG    1       29.290 -12.152   4.234  0.00  0.00    -0.040 I 
ATOM     23  C   LIG    1       26.463 -13.104   3.496  0.00  0.00    +0.143 A 
ATOM     24  C   LIG    1       25.447 -14.047   3.313  0.00  0.00    +0.059 A 
ATOM     25  I   LIG    1       23.503 -13.405   2.870  0.00  0.00    -0.040 I 
ATOM     26  C   LIG    1       25.717 -15.424   3.414  0.00  0.00    +0.064 A 
BRANCH  23  27
ATOM     27  O   LIG    1       26.255 -11.768   3.284  0.00  0.00    -0.505 OA
ATOM     28  H   LIG    1       25.769 -11.410   4.047  0.00  0.00    +0.292 HD
ENDBRANCH  23  27
ENDBRANCH  18  19
ENDBRANCH   5  18
TORSDOF 8
ENDMDL
MODEL 4
REMARK VINA RESULT:       1.8      2.932      7.266
REMARK  Name = *****
REMARK                            x       y       z     vdW  Elec       q    Type
REMARK                         _______ _______ _______ _____ _____    ______ ____
ROOT
ATOM      1  C   LIG    1       25.478 -20.493   5.842  0.00  0.00    -0.043 A 
ATOM      2  C   LIG    1       26.706 -20.089   6.270  0.00  0.00    +0.021 A 
ATOM      3  C   LIG    1       27.479 -19.158   5.545  0.00  0.00    +0.057 A 
ATOM      4  I   LIG    1       29.413 -19.376   6.445  0.00  0.00    -0.040 I 
ATOM      5  C   LIG    1       26.963 -18.458   4.406  0.00  0.00    +0.154 A 
ATOM      6  C   LIG    1       25.694 -18.900   3.979  0.00  0.00    +0.057 A 
ATOM      7  I   LIG    1       24.531 -18.331   2.296  0.00  0.00    -0.040 I 
ATOM      8  C   LIG    1       25.047 -19.934   4.662  0.00  0.00    +0.021 A 
ENDROOT
BRANCH   1   9
ATOM      9  C   LIG    1       24.729 -21.566   6.581  0.00  0.00    +0.065 C 
BRANCH   9  10
ATOM     10  CA  LIG    1       23.198 -21.424   6.531  0.00  0.00    +0.165 C 
BRANCH  10  11
ATOM     11  N   LIG    1       22.790 -20.105   7.058  0.00  0.00    -0.318 NA
ATOM     12  H1  LIG    1       22.377 -20.259   7.985  0.00  0.00    +0.119 HD
ATOM     13  H2  LIG    1       23.634 -19.566   7.255  0.00  0.00    +0.119 HD
ENDBRANCH  10  11
BRANCH  10  14
ATOM     14  C   LIG    1       22.644 -21.544   5.075  0.00  0.00    +0.322 C 
ATOM     15  O   LIG    1       23.337 -21.571   4.126  0.00  0.00    -0.249 OA
BRANCH  14  16
ATOM     16  OXT LIG    1       21.279 -21.570   4.950  0.00  0.00    -0.479 OA
ATOM     17  HXT LIG    1       20.792 -22.316   5.293  0.00  0.00    +0.295 HD
ENDBRANCH  14  16
ENDBRANCH  10  14
ENDBRANCH   9  10
ENDBRANCH   1   9
BRANCH   5  18
ATOM     18  O   LIG    1       27.554 -17.467   3.623  0.00  0.00    -0.454 OA
BRANCH  18  19
ATOM     19  C   LIG    1       27.111 -16.162   3.682  0.00  0.00    +0.131 A 
ATOM     20  C   LIG    1       25.755 -15.838   3.637  0.00  0.00    +0.064 A 
ATOM     21  C   LIG    1       25.315 -14.570   4.054  0.00  0.00    +0.059 A 
ATOM     22  I   LIG    1       23.238 -14.229   4.304  0.00  0.00    -0.040 I 
ATOM     23  C   LIG    1       26.243 -13.594   4.408  0.00  0.00    +0.143 A 
ATOM     24  C   LIG    1       27.604 -13.852   4.218  0.00  0.00    +0.059 A 
ATOM     25  I   LIG    1       29.006 -12.331   4.549  0.00  0.00    -0.040 I 
ATOM     26  C   LIG    1       28.045 -15.126   3.815  0.00  0.00    +0.064 A 
BRANCH  23  27
ATOM     27  O   LIG    1       25.798 -12.403   4.915  0.00  0.00    -0.505 OA
ATOM     28  H   LIG    1       24.836 -12.355   4.785  0.00  0.00    +0.292 HD
ENDBRANCH  23  27
ENDBRANCH  18  19
ENDBRANCH   5  18
TORSDOF 8
ENDMDL
