MODEL 1
REMARK VINA RESULT:     -10.0      0.000      0.000
REMARK  Name = *****
REMARK                            x       y       z     vdW  Elec       q    Type
REMARK                         _______ _______ _______ _____ _____    ______ ____
ROOT
ATOM      1  C   UNK A  0       27.899 -20.854   7.790  0.00  0.00    +0.217 C 
ATOM      2  N   PHE A  1       28.631 -19.712   7.552  0.00  0.00    -0.302 N 
ATOM      3  H   PHE A  1       28.524 -19.244   6.664  0.00  0.00    +0.149 HD
ATOM      4  O   UNK A  0       28.162 -21.637   8.695  0.00  0.00    -0.276 OA
ENDROOT
BRANCH   1   8
ATOM      5  C   UNK A  0       24.254 -19.962   5.512  0.00  0.00    -0.008 C 
ATOM      6  C   UNK A  0       25.549 -20.223   4.715  0.00  0.00    +0.004 C 
ATOM      7  C   UNK A  0       26.818 -20.229   5.577  0.00  0.00    +0.013 C 
ATOM      8  C   UNK A  0       26.699 -21.063   6.859  0.00  0.00    +0.075 C 
ATOM      9  C   UNK A  0       25.391 -20.777   7.604  0.00  0.00    +0.013 C 
ATOM     10  C   UNK A  0       24.186 -20.948   6.688  0.00  0.00    +0.004 C 
BRANCH   5  12
ATOM     11  C   UNK A  0       22.260 -18.637   4.580  0.00  0.00    +0.007 C 
ATOM     12  C   UNK A  0       22.984 -19.991   4.608  0.00  0.00    -0.014 C 
ATOM     13  C   UNK A  0       21.979 -21.080   4.993  0.00  0.00    +0.007 C 
ENDBRANCH   5  12
ENDBRANCH   1   8
BRANCH   2  14
ATOM     14  CA  PHE A  1       29.812 -19.354   8.343  0.00  0.00    +0.186 C 
BRANCH  14  15
ATOM     15  C   PHE A  1       31.076 -20.009   7.801  0.00  0.00    +0.326 C 
ATOM     16  O   PHE A  1       31.873 -19.523   6.998  0.00  0.00    -0.249 OA
BRANCH  15  17
ATOM     17  OXT PHE A  1       31.323 -21.220   8.336  0.00  0.00    -0.479 OA
ATOM     18  HXT PHE A  1       31.682 -21.028   9.230  0.00  0.00    +0.295 HD
ENDBRANCH  15  17
ENDBRANCH  14  15
BRANCH  14  19
ATOM     19  CB  PHE A  1       29.985 -17.825   8.434  0.00  0.00    +0.069 C 
BRANCH  19  20
ATOM     20  CG  PHE A  1       30.904 -17.301   9.525  0.00  0.00    -0.045 A 
ATOM     21  CD2 PHE A  1       30.559 -17.411  10.880  0.00  0.00    +0.003 A 
ATOM     22  CE2 PHE A  1       31.420 -16.941  11.877  0.00  0.00    +0.000 A 
ATOM     23  CZ  PHE A  1       32.647 -16.378  11.533  0.00  0.00    +0.000 A 
ATOM     24  CE1 PHE A  1       33.008 -16.275  10.193  0.00  0.00    +0.000 A 
ATOM     25  CD1 PHE A  1       32.139 -16.724   9.195  0.00  0.00    +0.003 A 
ENDBRANCH  19  20
ENDBRANCH  14  19
ENDBRANCH   2  14
TORSDOF 7
ENDMDL
MODEL 2
REMARK VINA RESULT:      -9.1      1.114      1.915
REMARK  Name = *****
REMARK                            x       y       z     vdW  Elec       q    Type
REMARK                         _______ _______ _______ _____ _____    ______ ____
ROOT
ATOM      1  C   UNK A  0       28.674 -20.189   7.192  0.00  0.00    +0.217 C 
ATOM      2  N   PHE A  1       29.038 -20.261   8.518  0.00  0.00    -0.302 N 
ATOM      3  H   PHE A  1       28.330 -20.484   9.204  0.00  0.00    +0.149 HD
ATOM      4  O   UNK A  0       29.373 -19.657   6.338  0.00  0.00    -0.276 OA
ENDROOT
BRANCH   1   8
ATOM      5  C   UNK A  0       24.345 -20.732   6.713  0.00  0.00    -0.008 C 
ATOM      6  C   UNK A  0       25.200 -20.644   5.432  0.00  0.00    +0.004 C 
ATOM      7  C   UNK A  0       26.636 -20.161   5.676  0.00  0.00    +0.013 C 
ATOM      8  C   UNK A  0       27.340 -20.859   6.847  0.00  0.00    +0.075 C 
ATOM      9  C   UNK A  0       26.444 -20.933   8.088  0.00  0.00    +0.013 C 
ATOM     10  C   UNK A  0       25.098 -21.567   7.759  0.00  0.00    +0.004 C 
BRANCH   5  12
ATOM     11  C   UNK A  0       22.781 -22.769   6.632  0.00  0.00    +0.007 C 
ATOM     12  C   UNK A  0       22.902 -21.252   6.430  0.00  0.00    -0.014 C 
ATOM     13  C   UNK A  0       22.384 -20.898   5.033  0.00  0.00    +0.007 C 
ENDBRANCH   5  12
ENDBRANCH   1   8
BRANCH   2  14
ATOM     14  CA  PHE A  1       30.280 -19.672   9.028  0.00  0.00    +0.186 C 
BRANCH  14  15
ATOM     15  C   PHE A  1       31.510 -20.390   8.487  0.00  0.00    +0.326 C 
ATOM     16  O   PHE A  1       32.118 -21.319   9.021  0.00  0.00    -0.249 OA
BRANCH  15  17
ATOM     17  OXT PHE A  1       31.890 -19.956   7.270  0.00  0.00    -0.479 OA
ATOM     18  HXT PHE A  1       32.133 -20.772   6.780  0.00  0.00    +0.295 HD
ENDBRANCH  15  17
ENDBRANCH  14  15
BRANCH  14  19
ATOM     19  CB  PHE A  1       30.351 -18.162   8.726  0.00  0.00    +0.069 C 
BRANCH  19  20
ATOM     20  CG  PHE A  1       31.186 -17.312   9.668  0.00  0.00    -0.045 A 
ATOM     21  CD2 PHE A  1       32.273 -16.559   9.197  0.00  0.00    +0.003 A 
ATOM     22  CE2 PHE A  1       33.025 -15.767  10.071  0.00  0.00    +0.000 A 
ATOM     23  CZ  PHE A  1       32.684 -15.696  11.420  0.00  0.00    +0.000 A 
ATOM     24  CE1 PHE A  1       31.601 -16.427  11.898  0.00  0.00    +0.000 A 
ATOM     25  CD1 PHE A  1       30.862 -17.237  11.031  0.00  0.00    +0.003 A 
ENDBRANCH  19  20
ENDBRANCH  14  19
ENDBRANCH   2  14
TORSDOF 7
ENDMDL
MODEL 3
REMARK VINA RESULT:      -8.6      5.064      8.113
REMARK  Name = *****
REMARK                            x       y       z     vdW  Elec       q    Type
REMARK                         _______ _______ _______ _____ _____    ______ ____
ROOT
ATOM      1  C   UNK A  0       24.893 -24.152   6.507  0.00  0.00    +0.217 C 
ATOM      2  N   PHE A  1       25.937 -23.328   6.864  0.00  0.00    -0.302 N 
ATOM      3  H   PHE A  1       26.800 -23.747   7.180  0.00  0.00    +0.149 HD
ATOM      4  O   UNK A  0       23.740 -23.754   6.390  0.00  0.00    -0.276 OA
ENDROOT
BRANCH   1   8
ATOM      5  C   UNK A  0       24.961 -28.528   6.842  0.00  0.00    -0.008 C 
ATOM      6  C   UNK A  0       24.369 -27.919   5.555  0.00  0.00    +0.004 C 
ATOM      7  C   UNK A  0       24.110 -26.410   5.644  0.00  0.00    +0.013 C 
ATOM      8  C   UNK A  0       25.280 -25.609   6.229  0.00  0.00    +0.075 C 
ATOM      9  C   UNK A  0       25.840 -26.263   7.496  0.00  0.00    +0.013 C 
ATOM     10  C   UNK A  0       26.203 -27.722   7.250  0.00  0.00    +0.004 C 
BRANCH   5  12
ATOM     11  C   UNK A  0       25.513 -30.470   5.252  0.00  0.00    +0.007 C 
ATOM     12  C   UNK A  0       25.235 -30.057   6.705  0.00  0.00    -0.014 C 
ATOM     13  C   UNK A  0       24.110 -30.936   7.260  0.00  0.00    +0.007 C 
ENDBRANCH   5  12
ENDBRANCH   1   8
BRANCH   2  14
ATOM     14  CA  PHE A  1       25.750 -21.907   7.169  0.00  0.00    +0.186 C 
BRANCH  14  15
ATOM     15  C   PHE A  1       26.603 -21.464   8.351  0.00  0.00    +0.326 C 
ATOM     16  O   PHE A  1       27.833 -21.448   8.409  0.00  0.00    -0.249 OA
BRANCH  15  17
ATOM     17  OXT PHE A  1       25.880 -21.000   9.388  0.00  0.00    -0.479 OA
ATOM     18  HXT PHE A  1       26.499 -21.020  10.150  0.00  0.00    +0.295 HD
ENDBRANCH  15  17
ENDBRANCH  14  15
BRANCH  14  19
ATOM     19  CB  PHE A  1       26.027 -21.026   5.935  0.00  0.00    +0.069 C 
BRANCH  19  20
ATOM     20  CG  PHE A  1       24.834 -20.320   5.312  0.00  0.00    -0.045 A 
ATOM     21  CD2 PHE A  1       23.578 -20.331   5.935  0.00  0.00    +0.003 A 
ATOM     22  CE2 PHE A  1       22.490 -19.664   5.362  0.00  0.00    +0.000 A 
ATOM     23  CZ  PHE A  1       22.652 -18.956   4.173  0.00  0.00    +0.000 A 
ATOM     24  CE1 PHE A  1       23.896 -18.925   3.551  0.00  0.00    +0.000 A 
ATOM     25  CD1 PHE A  1       24.978 -19.610   4.111  0.00  0.00    +0.003 A 
ENDBRANCH  19  20
ENDBRANCH  14  19
ENDBRANCH   2  14
TORSDOF 7
ENDMDL
MODEL 4
REMARK VINA RESULT:      -8.2      5.044      6.839
REMARK  Name = *****
REMARK                            x       y       z     vdW  Elec       q    Type
REMARK                         _______ _______ _______ _____ _____    ______ ____
ROOT
ATOM      1  C   UNK A  0       25.542 -24.016   6.121  0.00  0.00    +0.217 C 
ATOM      2  N   PHE A  1       26.352 -23.502   7.110  0.00  0.00    -0.302 N 
ATOM      3  H   PHE A  1       26.694 -24.124   7.828  0.00  0.00    +0.149 HD
ATOM      4  O   UNK A  0       24.858 -23.312   5.388  0.00  0.00    -0.276 OA
ENDROOT
BRANCH   1   8
ATOM      5  C   UNK A  0       24.591 -28.243   6.823  0.00  0.00    -0.008 C 
ATOM      6  C   UNK A  0       24.162 -27.629   5.475  0.00  0.00    +0.004 C 
ATOM      7  C   UNK A  0       24.261 -26.098   5.431  0.00  0.00    +0.013 C 
ATOM      8  C   UNK A  0       25.582 -25.541   5.975  0.00  0.00    +0.075 C 
ATOM      9  C   UNK A  0       25.969 -26.194   7.307  0.00  0.00    +0.013 C 
ATOM     10  C   UNK A  0       25.984 -27.713   7.192  0.00  0.00    +0.004 C 
BRANCH   5  12
ATOM     11  C   UNK A  0       25.023 -30.413   8.130  0.00  0.00    +0.007 C 
ATOM     12  C   UNK A  0       24.503 -29.800   6.822  0.00  0.00    -0.014 C 
ATOM     13  C   UNK A  0       25.233 -30.456   5.646  0.00  0.00    +0.007 C 
ENDBRANCH   5  12
ENDBRANCH   1   8
BRANCH   2  14
ATOM     14  CA  PHE A  1       26.437 -22.067   7.392  0.00  0.00    +0.186 C 
BRANCH  14  15
ATOM     15  C   PHE A  1       25.393 -21.627   8.411  0.00  0.00    +0.326 C 
ATOM     16  O   PHE A  1       25.583 -21.378   9.602  0.00  0.00    -0.249 OA
BRANCH  15  17
ATOM     17  OXT PHE A  1       24.167 -21.456   7.881  0.00  0.00    -0.479 OA
ATOM     18  HXT PHE A  1       24.109 -22.130   7.169  0.00  0.00    +0.295 HD
ENDBRANCH  15  17
ENDBRANCH  14  15
BRANCH  14  19
ATOM     19  CB  PHE A  1       27.853 -21.668   7.853  0.00  0.00    +0.069 C 
BRANCH  19  20
ATOM     20  CG  PHE A  1       28.534 -20.546   7.088  0.00  0.00    -0.045 A 
ATOM     21  CD2 PHE A  1       27.903 -19.919   6.003  0.00  0.00    +0.003 A 
ATOM     22  CE2 PHE A  1       28.533 -18.876   5.315  0.00  0.00    +0.000 A 
ATOM     23  CZ  PHE A  1       29.789 -18.429   5.720  0.00  0.00    +0.000 A 
ATOM     24  CE1 PHE A  1       30.421 -19.033   6.803  0.00  0.00    +0.000 A 
ATOM     25  CD1 PHE A  1       29.803 -20.090   7.477  0.00  0.00    +0.003 A 
ENDBRANCH  19  20
ENDBRANCH  14  19
ENDBRANCH   2  14
TORSDOF 7
ENDMDL
MODEL 5
REMARK VINA RESULT:      -8.0      6.014      8.099
REMARK  Name = *****
REMARK                            x       y       z     vdW  Elec       q    Type
REMARK                         _______ _______ _______ _____ _____    ______ ____
ROOT
ATOM      1  C   UNK A  0       25.258 -25.429   5.770  0.00  0.00    +0.217 C 
ATOM      2  N   PHE A  1       25.315 -24.622   6.885  0.00  0.00    -0.302 N 
ATOM      3  H   PHE A  1       25.210 -25.046   7.795  0.00  0.00    +0.149 HD
ATOM      4  O   UNK A  0       25.089 -24.989   4.638  0.00  0.00    -0.276 OA
ENDROOT
BRANCH   1   8
ATOM      5  C   UNK A  0       24.658 -29.410   7.517  0.00  0.00    -0.008 C 
ATOM      6  C   UNK A  0       24.291 -29.220   6.031  0.00  0.00    +0.004 C 
ATOM      7  C   UNK A  0       24.246 -27.752   5.586  0.00  0.00    +0.013 C 
ATOM      8  C   UNK A  0       25.456 -26.925   6.038  0.00  0.00    +0.075 C 
ATOM      9  C   UNK A  0       25.787 -27.161   7.516  0.00  0.00    +0.013 C 
ATOM     10  C   UNK A  0       25.958 -28.645   7.812  0.00  0.00    +0.004 C 
BRANCH   5  12
ATOM     11  C   UNK A  0       26.163 -31.433   8.012  0.00  0.00    +0.007 C 
ATOM     12  C   UNK A  0       24.721 -30.914   7.925  0.00  0.00    -0.014 C 
ATOM     13  C   UNK A  0       23.920 -31.836   7.002  0.00  0.00    +0.007 C 
ENDBRANCH   5  12
ENDBRANCH   1   8
BRANCH   2  14
ATOM     14  CA  PHE A  1       25.144 -23.168   6.815  0.00  0.00    +0.186 C 
BRANCH  14  15
ATOM     15  C   PHE A  1       23.693 -22.758   7.027  0.00  0.00    +0.326 C 
ATOM     16  O   PHE A  1       23.285 -21.792   7.673  0.00  0.00    -0.249 OA
BRANCH  15  17
ATOM     17  OXT PHE A  1       22.815 -23.538   6.368  0.00  0.00    -0.479 OA
ATOM     18  HXT PHE A  1       22.892 -24.417   6.800  0.00  0.00    +0.295 HD
ENDBRANCH  15  17
ENDBRANCH  14  15
BRANCH  14  19
ATOM     19  CB  PHE A  1       26.067 -22.445   7.816  0.00  0.00    +0.069 C 
BRANCH  19  20
ATOM     20  CG  PHE A  1       27.086 -21.478   7.237  0.00  0.00    -0.045 A 
ATOM     21  CD2 PHE A  1       26.756 -20.630   6.169  0.00  0.00    +0.003 A 
ATOM     22  CE2 PHE A  1       27.696 -19.731   5.654  0.00  0.00    +0.000 A 
ATOM     23  CZ  PHE A  1       28.968 -19.650   6.217  0.00  0.00    +0.000 A 
ATOM     24  CE1 PHE A  1       29.304 -20.475   7.285  0.00  0.00    +0.000 A 
ATOM     25  CD1 PHE A  1       28.373 -21.390   7.786  0.00  0.00    +0.003 A 
ENDBRANCH  19  20
ENDBRANCH  14  19
ENDBRANCH   2  14
TORSDOF 7
ENDMDL
MODEL 6
REMARK VINA RESULT:      -7.9      5.748      8.903
REMARK  Name = *****
REMARK                            x       y       z     vdW  Elec       q    Type
REMARK                         _______ _______ _______ _____ _____    ______ ____
ROOT
ATOM      1  C   UNK A  0       25.210 -25.168   6.381  0.00  0.00    +0.217 C 
ATOM      2  N   PHE A  1       24.352 -24.218   6.888  0.00  0.00    -0.302 N 
ATOM      3  H   PHE A  1       23.406 -24.491   7.114  0.00  0.00    +0.149 HD
ATOM      4  O   UNK A  0       26.261 -24.882   5.819  0.00  0.00    -0.276 OA
ENDROOT
BRANCH   1   8
ATOM      5  C   UNK A  0       25.215 -29.548   6.113  0.00  0.00    -0.008 C 
ATOM      6  C   UNK A  0       25.537 -28.916   7.483  0.00  0.00    +0.004 C 
ATOM      7  C   UNK A  0       25.806 -27.407   7.421  0.00  0.00    +0.013 C 
ATOM      8  C   UNK A  0       24.776 -26.621   6.601  0.00  0.00    +0.075 C 
ATOM      9  C   UNK A  0       24.482 -27.298   5.258  0.00  0.00    +0.013 C 
ATOM     10  C   UNK A  0       24.078 -28.754   5.452  0.00  0.00    +0.004 C 
BRANCH   5  12
ATOM     11  C   UNK A  0       24.021 -31.413   7.417  0.00  0.00    +0.007 C 
ATOM     12  C   UNK A  0       24.920 -31.076   6.218  0.00  0.00    -0.014 C 
ATOM     13  C   UNK A  0       26.180 -31.943   6.289  0.00  0.00    +0.007 C 
ENDBRANCH   5  12
ENDBRANCH   1   8
BRANCH   2  14
ATOM     14  CA  PHE A  1       24.607 -22.780   6.766  0.00  0.00    +0.186 C 
BRANCH  14  15
ATOM     15  C   PHE A  1       25.837 -22.353   7.558  0.00  0.00    +0.326 C 
ATOM     16  O   PHE A  1       25.922 -22.231   8.780  0.00  0.00    -0.249 OA
BRANCH  15  17
ATOM     17  OXT PHE A  1       26.926 -22.159   6.790  0.00  0.00    -0.479 OA
ATOM     18  HXT PHE A  1       27.567 -21.706   7.380  0.00  0.00    +0.295 HD
ENDBRANCH  15  17
ENDBRANCH  14  15
BRANCH  14  19
ATOM     19  CB  PHE A  1       24.734 -22.355   5.290  0.00  0.00    +0.069 C 
BRANCH  19  20
ATOM     20  CG  PHE A  1       24.122 -21.018   4.905  0.00  0.00    -0.045 A 
ATOM     21  CD2 PHE A  1       24.720 -20.198   3.936  0.00  0.00    +0.003 A 
ATOM     22  CE2 PHE A  1       24.140 -18.977   3.577  0.00  0.00    +0.000 A 
ATOM     23  CZ  PHE A  1       22.942 -18.573   4.162  0.00  0.00    +0.000 A 
ATOM     24  CE1 PHE A  1       22.331 -19.382   5.115  0.00  0.00    +0.000 A 
ATOM     25  CD1 PHE A  1       22.921 -20.592   5.492  0.00  0.00    +0.003 A 
ENDBRANCH  19  20
ENDBRANCH  14  19
ENDBRANCH   2  14
TORSDOF 7
ENDMDL
MODEL 7
REMARK VINA RESULT:      -7.9      1.447      8.094
REMARK  Name = *****
REMARK                            x       y       z     vdW  Elec       q    Type
REMARK                         _______ _______ _______ _____ _____    ______ ____
ROOT
ATOM      1  C   UNK A  0       28.521 -20.225   6.932  0.00  0.00    +0.217 C 
ATOM      2  N   PHE A  1       27.233 -20.259   7.416  0.00  0.00    -0.302 N 
ATOM      3  H   PHE A  1       27.023 -19.767   8.273  0.00  0.00    +0.149 HD
ATOM      4  O   UNK A  0       28.934 -21.005   6.081  0.00  0.00    -0.276 OA
ENDROOT
BRANCH   1   8
ATOM      5  C   UNK A  0       31.465 -18.222   9.499  0.00  0.00    -0.008 C 
ATOM      6  C   UNK A  0       31.832 -18.424   8.014  0.00  0.00    +0.004 C 
ATOM      7  C   UNK A  0       30.894 -19.382   7.268  0.00  0.00    +0.013 C 
ATOM      8  C   UNK A  0       29.404 -19.112   7.509  0.00  0.00    +0.075 C 
ATOM      9  C   UNK A  0       29.095 -18.905   8.995  0.00  0.00    +0.013 C 
ATOM     10  C   UNK A  0       29.984 -17.824   9.597  0.00  0.00    +0.004 C 
BRANCH   5  12
ATOM     11  C   UNK A  0       32.019 -16.979  11.678  0.00  0.00    +0.007 C 
ATOM     12  C   UNK A  0       32.422 -17.222  10.217  0.00  0.00    -0.014 C 
ATOM     13  C   UNK A  0       32.543 -15.870   9.508  0.00  0.00    +0.007 C 
ENDBRANCH   5  12
ENDBRANCH   1   8
BRANCH   2  14
ATOM     14  CA  PHE A  1       26.252 -21.256   6.978  0.00  0.00    +0.186 C 
BRANCH  14  15
ATOM     15  C   PHE A  1       26.394 -22.565   7.746  0.00  0.00    +0.326 C 
ATOM     16  O   PHE A  1       26.303 -23.704   7.287  0.00  0.00    -0.249 OA
BRANCH  15  17
ATOM     17  OXT PHE A  1       26.706 -22.391   9.045  0.00  0.00    -0.479 OA
ATOM     18  HXT PHE A  1       26.367 -23.198   9.491  0.00  0.00    +0.295 HD
ENDBRANCH  15  17
ENDBRANCH  14  15
BRANCH  14  19
ATOM     19  CB  PHE A  1       24.813 -20.714   7.084  0.00  0.00    +0.069 C 
BRANCH  19  20
ATOM     20  CG  PHE A  1       24.188 -20.170   5.810  0.00  0.00    -0.045 A 
ATOM     21  CD2 PHE A  1       22.837 -19.794   5.767  0.00  0.00    +0.003 A 
ATOM     22  CE2 PHE A  1       22.276 -19.279   4.594  0.00  0.00    +0.000 A 
ATOM     23  CZ  PHE A  1       23.064 -19.109   3.458  0.00  0.00    +0.000 A 
ATOM     24  CE1 PHE A  1       24.409 -19.465   3.490  0.00  0.00    +0.000 A 
ATOM     25  CD1 PHE A  1       24.966 -20.001   4.655  0.00  0.00    +0.003 A 
ENDBRANCH  19  20
ENDBRANCH  14  19
ENDBRANCH   2  14
TORSDOF 7
ENDMDL
MODEL 8
REMARK VINA RESULT:      -7.8      6.993      9.723
REMARK  Name = *****
REMARK                            x       y       z     vdW  Elec       q    Type
REMARK                         _______ _______ _______ _____ _____    ______ ____
ROOT
ATOM      1  C   UNK A  0       25.171 -26.998   6.072  0.00  0.00    +0.217 C 
ATOM      2  N   PHE A  1       24.410 -27.604   7.047  0.00  0.00    -0.302 N 
ATOM      3  H   PHE A  1       24.051 -27.038   7.803  0.00  0.00    +0.149 HD
ATOM      4  O   UNK A  0       25.875 -27.627   5.291  0.00  0.00    -0.276 OA
ENDROOT
BRANCH   1   8
ATOM      5  C   UNK A  0       24.531 -22.860   7.388  0.00  0.00    -0.008 C 
ATOM      6  C   UNK A  0       25.957 -23.260   6.956  0.00  0.00    +0.004 C 
ATOM      7  C   UNK A  0       26.157 -24.773   6.801  0.00  0.00    +0.013 C 
ATOM      8  C   UNK A  0       25.047 -25.472   6.005  0.00  0.00    +0.075 C 
ATOM      9  C   UNK A  0       23.653 -25.030   6.463  0.00  0.00    +0.013 C 
ATOM     10  C   UNK A  0       23.519 -23.513   6.434  0.00  0.00    +0.004 C 
BRANCH   5  12
ATOM     11  C   UNK A  0       23.435 -20.747   6.421  0.00  0.00    +0.007 C 
ATOM     12  C   UNK A  0       24.358 -21.315   7.509  0.00  0.00    -0.014 C 
ATOM     13  C   UNK A  0       25.681 -20.544   7.484  0.00  0.00    +0.007 C 
ENDBRANCH   5  12
ENDBRANCH   1   8
BRANCH   2  14
ATOM     14  CA  PHE A  1       24.406 -29.054   7.257  0.00  0.00    +0.186 C 
BRANCH  14  15
ATOM     15  C   PHE A  1       24.223 -29.815   5.950  0.00  0.00    +0.326 C 
ATOM     16  O   PHE A  1       24.908 -30.753   5.539  0.00  0.00    -0.249 OA
BRANCH  15  17
ATOM     17  OXT PHE A  1       23.151 -29.411   5.241  0.00  0.00    -0.479 OA
ATOM     18  HXT PHE A  1       22.380 -29.653   5.799  0.00  0.00    +0.295 HD
ENDBRANCH  15  17
ENDBRANCH  14  15
BRANCH  14  19
ATOM     19  CB  PHE A  1       25.683 -29.520   7.985  0.00  0.00    +0.069 C 
BRANCH  19  20
ATOM     20  CG  PHE A  1       25.786 -29.194   9.466  0.00  0.00    -0.045 A 
ATOM     21  CD2 PHE A  1       26.772 -28.320   9.950  0.00  0.00    +0.003 A 
ATOM     22  CE2 PHE A  1       26.848 -28.014  11.313  0.00  0.00    +0.000 A 
ATOM     23  CZ  PHE A  1       25.925 -28.557  12.204  0.00  0.00    +0.000 A 
ATOM     24  CE1 PHE A  1       24.935 -29.415  11.736  0.00  0.00    +0.000 A 
ATOM     25  CD1 PHE A  1       24.871 -29.739  10.378  0.00  0.00    +0.003 A 
ENDBRANCH  19  20
ENDBRANCH  14  19
ENDBRANCH   2  14
TORSDOF 7
ENDMDL
MODEL 9
REMARK VINA RESULT:      -7.8      6.831      8.963
REMARK  Name = *****
REMARK                            x       y       z     vdW  Elec       q    Type
REMARK                         _______ _______ _______ _____ _____    ______ ____
ROOT
ATOM      1  C   UNK A  0       24.249 -24.655   6.457  0.00  0.00    +0.217 C 
ATOM      2  N   PHE A  1       25.437 -25.350   6.501  0.00  0.00    -0.302 N 
ATOM      3  H   PHE A  1       26.272 -24.904   6.147  0.00  0.00    +0.149 HD
ATOM      4  O   UNK A  0       23.157 -25.195   6.590  0.00  0.00    -0.276 OA
ENDROOT
BRANCH   1   8
ATOM      5  C   UNK A  0       23.400 -20.594   5.024  0.00  0.00    -0.008 C 
ATOM      6  C   UNK A  0       23.175 -20.885   6.523  0.00  0.00    +0.004 C 
ATOM      7  C   UNK A  0       23.205 -22.377   6.876  0.00  0.00    +0.013 C 
ATOM      8  C   UNK A  0       24.388 -23.140   6.266  0.00  0.00    +0.075 C 
ATOM      9  C   UNK A  0       24.576 -22.806   4.783  0.00  0.00    +0.013 C 
ATOM     10  C   UNK A  0       24.685 -21.302   4.566  0.00  0.00    +0.004 C 
BRANCH   5  12
ATOM     11  C   UNK A  0       21.985 -18.555   4.359  0.00  0.00    +0.007 C 
ATOM     12  C   UNK A  0       23.390 -19.067   4.707  0.00  0.00    -0.014 C 
ATOM     13  C   UNK A  0       24.353 -18.665   3.586  0.00  0.00    +0.007 C 
ENDBRANCH   5  12
ENDBRANCH   1   8
BRANCH   2  14
ATOM     14  CA  PHE A  1       25.494 -26.804   6.674  0.00  0.00    +0.186 C 
BRANCH  14  15
ATOM     15  C   PHE A  1       25.803 -27.519   5.365  0.00  0.00    +0.326 C 
ATOM     16  O   PHE A  1       25.063 -28.288   4.751  0.00  0.00    -0.249 OA
BRANCH  15  17
ATOM     17  OXT PHE A  1       27.003 -27.193   4.848  0.00  0.00    -0.479 OA
ATOM     18  HXT PHE A  1       27.275 -26.388   5.341  0.00  0.00    +0.295 HD
ENDBRANCH  15  17
ENDBRANCH  14  15
BRANCH  14  19
ATOM     19  CB  PHE A  1       26.508 -27.200   7.765  0.00  0.00    +0.069 C 
BRANCH  19  20
ATOM     20  CG  PHE A  1       26.124 -28.356   8.674  0.00  0.00    -0.045 A 
ATOM     21  CD2 PHE A  1       26.730 -28.526   9.928  0.00  0.00    +0.003 A 
ATOM     22  CE2 PHE A  1       26.357 -29.584  10.763  0.00  0.00    +0.000 A 
ATOM     23  CZ  PHE A  1       25.356 -30.469  10.368  0.00  0.00    +0.000 A 
ATOM     24  CE1 PHE A  1       24.737 -30.304   9.132  0.00  0.00    +0.000 A 
ATOM     25  CD1 PHE A  1       25.125 -29.261   8.286  0.00  0.00    +0.003 A 
ENDBRANCH  19  20
ENDBRANCH  14  19
ENDBRANCH   2  14
TORSDOF 7
ENDMDL
