MODEL 1
REMARK VINA RESULT:      -8.4      0.000      0.000
REMARK  Name = *****
REMARK                            x       y       z     vdW  Elec       q    Type
REMARK                         _______ _______ _______ _____ _____    ______ ____
ROOT
ATOM      1  C   LIG    1       24.278 -21.173   4.821  0.00  0.00    +0.104 C 
ATOM      2  C   LIG    1       22.787 -20.799   5.048  0.00  0.00    +0.158 C 
ATOM      3  O   LIG    1       21.859 -21.606   4.923  0.00  0.00    -0.295 OA
ATOM      4  C   LIG    1       22.494 -19.327   5.282  0.00  0.00    +0.076 C 
ATOM      5  C   LIG    1       22.924 -18.536   4.055  0.00  0.00    +0.008 C 
ATOM      6  C   LIG    1       24.371 -18.841   3.676  0.00  0.00    +0.003 C 
ATOM      7  C   LIG    1       24.592 -20.351   3.517  0.00  0.00    +0.035 C 
ENDROOT
BRANCH   1   8
ATOM      8  C   LIG    1       25.238 -20.848   5.992  0.00  0.00    -0.002 A 
ATOM      9  C   LIG    1       24.919 -20.971   7.363  0.00  0.00    +0.046 A 
ATOM     10 CL   LIG    1       23.395 -21.534   7.960  0.00  0.00    -0.083 Cl
ATOM     11  C   LIG    1       25.863 -20.672   8.361  0.00  0.00    +0.020 A 
ATOM     12  C   LIG    1       27.150 -20.264   8.029  0.00  0.00    +0.001 A 
ATOM     13  C   LIG    1       27.507 -20.175   6.694  0.00  0.00    +0.001 A 
ATOM     14  C   LIG    1       26.574 -20.478   5.697  0.00  0.00    +0.007 A 
ENDBRANCH   1   8
BRANCH   1  16
ATOM     15  C   LIG    1       24.801 -23.544   5.417  0.00  0.00    +0.102 C 
ATOM     16  N   LIG    1       24.414 -22.596   4.378  0.00  0.00    -0.304 NA
ATOM     17  H   LIG    1       23.491 -22.892   4.047  0.00  0.00    +0.123 HD
ENDBRANCH   1  16
TORSDOF 2
ENDMDL
MODEL 2
REMARK VINA RESULT:      -7.7      2.596      4.557
REMARK  Name = *****
REMARK                            x       y       z     vdW  Elec       q    Type
REMARK                         _______ _______ _______ _____ _____    ______ ____
ROOT
ATOM      1  C   LIG    1       25.178 -21.492   7.201  0.00  0.00    +0.104 C 
ATOM      2  C   LIG    1       26.179 -21.239   8.362  0.00  0.00    +0.158 C 
ATOM      3  O   LIG    1       25.836 -20.833   9.477  0.00  0.00    -0.295 OA
ATOM      4  C   LIG    1       27.652 -21.363   8.014  0.00  0.00    +0.076 C 
ATOM      5  C   LIG    1       27.999 -20.328   6.952  0.00  0.00    +0.008 C 
ATOM      6  C   LIG    1       27.056 -20.423   5.755  0.00  0.00    +0.003 C 
ATOM      7  C   LIG    1       25.589 -20.348   6.202  0.00  0.00    +0.035 C 
ENDROOT
BRANCH   1   8
ATOM      8  C   LIG    1       25.228 -22.903   6.565  0.00  0.00    -0.002 A 
ATOM      9  C   LIG    1       24.837 -23.213   5.243  0.00  0.00    +0.046 A 
ATOM     10 CL   LIG    1       24.257 -22.049   4.102  0.00  0.00    -0.083 Cl
ATOM     11  C   LIG    1       24.935 -24.523   4.741  0.00  0.00    +0.020 A 
ATOM     12  C   LIG    1       25.441 -25.553   5.527  0.00  0.00    +0.001 A 
ATOM     13  C   LIG    1       25.873 -25.273   6.813  0.00  0.00    +0.001 A 
ATOM     14  C   LIG    1       25.783 -23.971   7.314  0.00  0.00    +0.007 A 
ENDBRANCH   1   8
BRANCH   1  16
ATOM     15  C   LIG    1       23.046 -20.314   6.637  0.00  0.00    +0.102 C 
ATOM     16  N   LIG    1       23.784 -21.120   7.603  0.00  0.00    -0.304 NA
ATOM     17  H   LIG    1       23.264 -21.995   7.708  0.00  0.00    +0.123 HD
ENDBRANCH   1  16
TORSDOF 2
ENDMDL
MODEL 3
REMARK VINA RESULT:      -7.7      1.319      1.518
REMARK  Name = *****
REMARK                            x       y       z     vdW  Elec       q    Type
REMARK                         _______ _______ _______ _____ _____    ______ ____
ROOT
ATOM      1  C   LIG    1       24.826 -21.762   5.547  0.00  0.00    +0.104 C 
ATOM      2  C   LIG    1       23.516 -21.648   6.374  0.00  0.00    +0.158 C 
ATOM      3  O   LIG    1       22.859 -22.628   6.742  0.00  0.00    -0.295 OA
ATOM      4  C   LIG    1       22.976 -20.243   6.581  0.00  0.00    +0.076 C 
ATOM      5  C   LIG    1       22.650 -19.633   5.225  0.00  0.00    +0.008 C 
ATOM      6  C   LIG    1       23.842 -19.719   4.276  0.00  0.00    +0.003 C 
ATOM      7  C   LIG    1       24.360 -21.160   4.170  0.00  0.00    +0.035 C 
ENDROOT
BRANCH   1   8
ATOM      8  C   LIG    1       26.061 -21.040   6.140  0.00  0.00    -0.002 A 
ATOM      9  C   LIG    1       26.409 -21.018   7.510  0.00  0.00    +0.046 A 
ATOM     10 CL   LIG    1       25.515 -21.824   8.754  0.00  0.00    -0.083 Cl
ATOM     11  C   LIG    1       27.562 -20.351   7.959  0.00  0.00    +0.020 A 
ATOM     12  C   LIG    1       28.410 -19.709   7.063  0.00  0.00    +0.001 A 
ATOM     13  C   LIG    1       28.120 -19.748   5.710  0.00  0.00    +0.001 A 
ATOM     14  C   LIG    1       26.977 -20.416   5.258  0.00  0.00    +0.007 A 
ENDBRANCH   1   8
BRANCH   1  16
ATOM     15  C   LIG    1       25.648 -23.994   6.320  0.00  0.00    +0.102 C 
ATOM     16  N   LIG    1       25.131 -23.191   5.218  0.00  0.00    -0.304 NA
ATOM     17  H   LIG    1       24.248 -23.623   4.934  0.00  0.00    +0.123 HD
ENDBRANCH   1  16
TORSDOF 2
ENDMDL
MODEL 4
REMARK VINA RESULT:      -7.4      2.024      4.017
REMARK  Name = *****
REMARK                            x       y       z     vdW  Elec       q    Type
REMARK                         _______ _______ _______ _____ _____    ______ ____
ROOT
ATOM      1  C   LIG    1       24.580 -22.106   6.194  0.00  0.00    +0.104 C 
ATOM      2  C   LIG    1       25.957 -22.631   6.689  0.00  0.00    +0.158 C 
ATOM      3  O   LIG    1       26.297 -23.816   6.613  0.00  0.00    -0.295 OA
ATOM      4  C   LIG    1       26.826 -21.631   7.432  0.00  0.00    +0.076 C 
ATOM      5  C   LIG    1       26.096 -21.176   8.687  0.00  0.00    +0.008 C 
ATOM      6  C   LIG    1       24.692 -20.674   8.362  0.00  0.00    +0.003 C 
ATOM      7  C   LIG    1       23.904 -21.720   7.561  0.00  0.00    +0.035 C 
ENDROOT
BRANCH   1   8
ATOM      8  C   LIG    1       24.631 -20.930   5.187  0.00  0.00    -0.002 A 
ATOM      9  C   LIG    1       23.504 -20.318   4.595  0.00  0.00    +0.046 A 
ATOM     10 CL   LIG    1       21.866 -20.772   4.922  0.00  0.00    -0.083 Cl
ATOM     11  C   LIG    1       23.643 -19.241   3.703  0.00  0.00    +0.020 A 
ATOM     12  C   LIG    1       24.898 -18.729   3.391  0.00  0.00    +0.001 A 
ATOM     13  C   LIG    1       26.020 -19.279   3.988  0.00  0.00    +0.001 A 
ATOM     14  C   LIG    1       25.886 -20.347   4.881  0.00  0.00    +0.007 A 
ENDBRANCH   1   8
BRANCH   1  16
ATOM     15  C   LIG    1       22.822 -23.820   6.665  0.00  0.00    +0.102 C 
ATOM     16  N   LIG    1       23.728 -23.227   5.687  0.00  0.00    -0.304 NA
ATOM     17  H   LIG    1       23.140 -22.839   4.946  0.00  0.00    +0.123 HD
ENDBRANCH   1  16
TORSDOF 2
ENDMDL
MODEL 5
REMARK VINA RESULT:      -7.1      1.949      3.695
REMARK  Name = *****
REMARK                            x       y       z     vdW  Elec       q    Type
REMARK                         _______ _______ _______ _____ _____    ______ ____
ROOT
ATOM      1  C   LIG    1       25.534 -21.338   5.749  0.00  0.00    +0.104 C 
ATOM      2  C   LIG    1       24.735 -20.743   4.557  0.00  0.00    +0.158 C 
ATOM      3  O   LIG    1       25.246 -20.031   3.686  0.00  0.00    -0.295 OA
ATOM      4  C   LIG    1       23.230 -20.948   4.591  0.00  0.00    +0.076 C 
ATOM      5  C   LIG    1       22.666 -20.268   5.831  0.00  0.00    +0.008 C 
ATOM      6  C   LIG    1       23.395 -20.721   7.094  0.00  0.00    +0.003 C 
ATOM      7  C   LIG    1       24.912 -20.534   6.951  0.00  0.00    +0.035 C 
ENDROOT
BRANCH   1   8
ATOM      8  C   LIG    1       25.434 -22.873   5.927  0.00  0.00    -0.002 A 
ATOM      9  C   LIG    1       25.739 -23.575   7.115  0.00  0.00    +0.046 A 
ATOM     10 CL   LIG    1       26.255 -22.822   8.585  0.00  0.00    -0.083 Cl
ATOM     11  C   LIG    1       25.600 -24.972   7.193  0.00  0.00    +0.020 A 
ATOM     12  C   LIG    1       25.137 -25.706   6.106  0.00  0.00    +0.001 A 
ATOM     13  C   LIG    1       24.789 -25.042   4.941  0.00  0.00    +0.001 A 
ATOM     14  C   LIG    1       24.919 -23.653   4.861  0.00  0.00    +0.007 A 
ENDBRANCH   1   8
BRANCH   1  16
ATOM     15  C   LIG    1       27.415 -20.177   6.917  0.00  0.00    +0.102 C 
ATOM     16  N   LIG    1       26.959 -20.880   5.723  0.00  0.00    -0.304 NA
ATOM     17  H   LIG    1       27.538 -21.720   5.643  0.00  0.00    +0.123 HD
ENDBRANCH   1  16
TORSDOF 2
ENDMDL
MODEL 6
REMARK VINA RESULT:      -7.1      1.380      1.823
REMARK  Name = *****
REMARK                            x       y       z     vdW  Elec       q    Type
REMARK                         _______ _______ _______ _____ _____    ______ ____
ROOT
ATOM      1  C   LIG    1       24.295 -21.207   4.967  0.00  0.00    +0.104 C 
ATOM      2  C   LIG    1       22.784 -20.869   5.099  0.00  0.00    +0.158 C 
ATOM      3  O   LIG    1       21.885 -21.684   4.866  0.00  0.00    -0.295 OA
ATOM      4  C   LIG    1       22.446 -19.416   5.381  0.00  0.00    +0.076 C 
ATOM      5  C   LIG    1       22.949 -18.558   4.229  0.00  0.00    +0.008 C 
ATOM      6  C   LIG    1       24.426 -18.819   3.946  0.00  0.00    +0.003 C 
ATOM      7  C   LIG    1       24.689 -20.316   3.731  0.00  0.00    +0.035 C 
ENDROOT
BRANCH   1   8
ATOM      8  C   LIG    1       25.160 -20.925   6.220  0.00  0.00    -0.002 A 
ATOM      9  C   LIG    1       26.501 -20.480   6.200  0.00  0.00    +0.046 A 
ATOM     10 CL   LIG    1       27.394 -20.151   4.755  0.00  0.00    -0.083 Cl
ATOM     11  C   LIG    1       27.205 -20.230   7.391  0.00  0.00    +0.020 A 
ATOM     12  C   LIG    1       26.595 -20.393   8.630  0.00  0.00    +0.001 A 
ATOM     13  C   LIG    1       25.268 -20.787   8.683  0.00  0.00    +0.001 A 
ATOM     14  C   LIG    1       24.562 -21.031   7.501  0.00  0.00    +0.007 A 
ENDBRANCH   1   8
BRANCH   1  16
ATOM     15  C   LIG    1       24.865 -23.587   5.479  0.00  0.00    +0.102 C 
ATOM     16  N   LIG    1       24.492 -22.604   4.467  0.00  0.00    -0.304 NA
ATOM     17  H   LIG    1       23.594 -22.910   4.084  0.00  0.00    +0.123 HD
ENDBRANCH   1  16
TORSDOF 2
ENDMDL
MODEL 7
REMARK VINA RESULT:      -6.9      1.828      4.151
REMARK  Name = *****
REMARK                            x       y       z     vdW  Elec       q    Type
REMARK                         _______ _______ _______ _____ _____    ______ ____
ROOT
ATOM      1  C   LIG    1       24.846 -21.731   6.303  0.00  0.00    +0.104 C 
ATOM      2  C   LIG    1       24.483 -21.006   7.629  0.00  0.00    +0.158 C 
ATOM      3  O   LIG    1       23.566 -20.185   7.723  0.00  0.00    -0.295 OA
ATOM      4  C   LIG    1       25.427 -21.237   8.797  0.00  0.00    +0.076 C 
ATOM      5  C   LIG    1       26.811 -20.723   8.424  0.00  0.00    +0.008 C 
ATOM      6  C   LIG    1       27.286 -21.318   7.100  0.00  0.00    +0.003 C 
ATOM      7  C   LIG    1       26.249 -21.092   5.991  0.00  0.00    +0.035 C 
ENDROOT
BRANCH   1   8
ATOM      8  C   LIG    1       24.883 -23.278   6.371  0.00  0.00    -0.002 A 
ATOM      9  C   LIG    1       23.755 -24.112   6.536  0.00  0.00    +0.046 A 
ATOM     10 CL   LIG    1       22.128 -23.534   6.665  0.00  0.00    -0.083 Cl
ATOM     11  C   LIG    1       23.880 -25.512   6.568  0.00  0.00    +0.020 A 
ATOM     12  C   LIG    1       25.121 -26.122   6.415  0.00  0.00    +0.001 A 
ATOM     13  C   LIG    1       26.241 -25.334   6.209  0.00  0.00    +0.001 A 
ATOM     14  C   LIG    1       26.120 -23.941   6.171  0.00  0.00    +0.007 A 
ENDBRANCH   1   8
BRANCH   1  16
ATOM     15  C   LIG    1       24.688 -20.568   4.095  0.00  0.00    +0.102 C 
ATOM     16  N   LIG    1       23.985 -21.252   5.176  0.00  0.00    -0.304 NA
ATOM     17  H   LIG    1       23.553 -22.081   4.761  0.00  0.00    +0.123 HD
ENDBRANCH   1  16
TORSDOF 2
ENDMDL
MODEL 8
REMARK VINA RESULT:      -6.8      2.192      4.265
REMARK  Name = *****
REMARK                            x       y       z     vdW  Elec       q    Type
REMARK                         _______ _______ _______ _____ _____    ______ ____
ROOT
ATOM      1  C   LIG    1       24.616 -21.396   7.121  0.00  0.00    +0.104 C 
ATOM      2  C   LIG    1       23.296 -22.176   7.376  0.00  0.00    +0.158 C 
ATOM      3  O   LIG    1       22.599 -22.016   8.383  0.00  0.00    -0.295 OA
ATOM      4  C   LIG    1       22.973 -23.284   6.389  0.00  0.00    +0.076 C 
ATOM      5  C   LIG    1       24.075 -24.332   6.442  0.00  0.00    +0.008 C 
ATOM      6  C   LIG    1       25.452 -23.700   6.254  0.00  0.00    +0.003 C 
ATOM      7  C   LIG    1       25.673 -22.554   7.251  0.00  0.00    +0.035 C 
ENDROOT
BRANCH   1   8
ATOM      8  C   LIG    1       24.701 -20.643   5.770  0.00  0.00    -0.002 A 
ATOM      9  C   LIG    1       25.890 -20.148   5.189  0.00  0.00    +0.046 A 
ATOM     10 CL   LIG    1       27.463 -20.328   5.889  0.00  0.00    -0.083 Cl
ATOM     11  C   LIG    1       25.876 -19.491   3.946  0.00  0.00    +0.020 A 
ATOM     12  C   LIG    1       24.691 -19.326   3.238  0.00  0.00    +0.001 A 
ATOM     13  C   LIG    1       23.515 -19.837   3.760  0.00  0.00    +0.001 A 
ATOM     14  C   LIG    1       23.524 -20.497   4.993  0.00  0.00    +0.007 A 
ENDBRANCH   1   8
BRANCH   1  16
ATOM     15  C   LIG    1       26.238 -20.720   8.899  0.00  0.00    +0.102 C 
ATOM     16  N   LIG    1       24.940 -20.496   8.273  0.00  0.00    -0.304 NA
ATOM     17  H   LIG    1       24.956 -19.541   7.906  0.00  0.00    +0.123 HD
ENDBRANCH   1  16
TORSDOF 2
ENDMDL
MODEL 9
REMARK VINA RESULT:      -6.6      1.994      4.013
REMARK  Name = *****
REMARK                            x       y       z     vdW  Elec       q    Type
REMARK                         _______ _______ _______ _____ _____    ______ ____
ROOT
ATOM      1  C   LIG    1       24.663 -21.438   7.199  0.00  0.00    +0.104 C 
ATOM      2  C   LIG    1       23.339 -22.240   7.332  0.00  0.00    +0.158 C 
ATOM      3  O   LIG    1       22.549 -22.094   8.271  0.00  0.00    -0.295 OA
ATOM      4  C   LIG    1       23.126 -23.352   6.319  0.00  0.00    +0.076 C 
ATOM      5  C   LIG    1       24.236 -24.382   6.473  0.00  0.00    +0.008 C 
ATOM      6  C   LIG    1       25.614 -23.727   6.412  0.00  0.00    +0.003 C 
ATOM      7  C   LIG    1       25.723 -22.578   7.425  0.00  0.00    +0.035 C 
ENDROOT
BRANCH   1   8
ATOM      8  C   LIG    1       24.859 -20.681   5.862  0.00  0.00    -0.002 A 
ATOM      9  C   LIG    1       23.815 -20.223   5.026  0.00  0.00    +0.046 A 
ATOM     10 CL   LIG    1       22.132 -20.414   5.380  0.00  0.00    -0.083 Cl
ATOM     11  C   LIG    1       24.086 -19.526   3.836  0.00  0.00    +0.020 A 
ATOM     12  C   LIG    1       25.393 -19.247   3.453  0.00  0.00    +0.001 A 
ATOM     13  C   LIG    1       26.437 -19.644   4.272  0.00  0.00    +0.001 A 
ATOM     14  C   LIG    1       26.173 -20.333   5.459  0.00  0.00    +0.007 A 
ENDBRANCH   1   8
BRANCH   1  16
ATOM     15  C   LIG    1       26.219 -20.501   8.917  0.00  0.00    +0.102 C 
ATOM     16  N   LIG    1       24.865 -20.535   8.375  0.00  0.00    -0.304 NA
ATOM     17  H   LIG    1       24.656 -19.585   8.058  0.00  0.00    +0.123 HD
ENDBRANCH   1  16
TORSDOF 2
ENDMDL
