MODEL 1
REMARK VINA RESULT:      -5.7      0.000      0.000
REMARK  Name = *****
REMARK                            x       y       z     vdW  Elec       q    Type
REMARK                         _______ _______ _______ _____ _____    ______ ____
ROOT
ATOM      1  C   LIG    1       23.934 -31.395  12.417  0.00  0.00    +0.062 A 
ATOM      2  C   LIG    1       23.922 -30.228  13.255  0.00  0.00    +0.058 A 
ATOM      3  I   LIG    1       22.809 -30.379  15.120  0.00  0.00    -0.040 I 
ATOM      4  C   LIG    1       24.712 -29.101  12.926  0.00  0.00    +0.065 A 
ATOM      5  C   LIG    1       25.591 -29.266  11.836  0.00  0.00    +0.049 A 
ATOM      6  I   LIG    1       27.790 -29.210  12.625  0.00  0.00    -0.041 I 
ATOM      7  C   LIG    1       25.494 -30.337  10.931  0.00  0.00    +0.067 A 
ATOM      8  C   LIG    1       24.768 -31.464  11.287  0.00  0.00    +0.049 A 
ATOM      9  I   LIG    1       25.033 -33.285  10.224  0.00  0.00    -0.041 I 
ENDROOT
BRANCH   1  12
ATOM     10  C   LIG    1       21.139 -31.541  11.368  0.00  0.00    +0.109 C 
ATOM     11  C   LIG    1       21.776 -32.615  12.222  0.00  0.00    +0.214 C 
ATOM     12  N   LIG    1       23.075 -32.489  12.652  0.00  0.00    -0.284 N 
ATOM     13  H   LIG    1       23.496 -33.403  12.799  0.00  0.00    +0.155 HD
ATOM     14  O   LIG    1       21.175 -33.662  12.468  0.00  0.00    -0.276 OA
ENDBRANCH   1  12
BRANCH   4  15
ATOM     15  N   LIG    1       24.592 -27.781  13.498  0.00  0.00    -0.273 N 
ATOM     16  C   LIG    1       23.469 -26.947  13.345  0.00  0.00    +0.216 C 
ATOM     17  O   LIG    1       23.453 -25.778  13.742  0.00  0.00    -0.276 OA
ATOM     18  C   LIG    1       22.198 -27.512  12.753  0.00  0.00    +0.110 C 
ATOM     19  C   LIG    1       25.714 -27.202  14.223  0.00  0.00    +0.138 C 
ENDBRANCH   4  15
BRANCH   7  20
ATOM     20  C   LIG    1       25.871 -30.002   9.538  0.00  0.00    +0.247 C 
ATOM     21  N   LIG    1       24.879 -30.157   8.577  0.00  0.00    -0.299 N 
ATOM     22  H   LIG    1       23.946 -30.434   8.837  0.00  0.00    +0.150 HD
ATOM     23  O   LIG    1       26.959 -29.539   9.306  0.00  0.00    -0.270 OA
BRANCH  21  24
ATOM     24  CA  LIG    1       25.064 -29.757   7.175  0.00  0.00    +0.167 C 
BRANCH  24  25
ATOM     25  C   LIG    1       24.705 -30.964   6.314  0.00  0.00    +0.248 C 
ATOM     26  O   LIG    1       23.575 -31.452   6.269  0.00  0.00    -0.299 OA
ENDBRANCH  24  25
BRANCH  24  27
ATOM     27  C   LIG    1       24.297 -28.496   6.727  0.00  0.00    +0.173 C 
BRANCH  27  28
ATOM     28  O   LIG    1       23.696 -28.751   5.446  0.00  0.00    -0.387 OA
ATOM     29  H   LIG    1       24.348 -29.294   4.946  0.00  0.00    +0.210 HD
ENDBRANCH  27  28
BRANCH  27  30
ATOM     30  C   LIG    1       25.228 -27.254   6.633  0.00  0.00    +0.176 C 
BRANCH  30  31
ATOM     31  O   LIG    1       26.455 -27.548   7.325  0.00  0.00    -0.387 OA
ATOM     32  H   LIG    1       26.973 -28.085   6.689  0.00  0.00    +0.210 HD
ENDBRANCH  30  31
BRANCH  30  33
ATOM     33  C   LIG    1       25.577 -26.889   5.179  0.00  0.00    +0.171 C 
BRANCH  33  34
ATOM     34  O   LIG    1       26.990 -27.119   4.986  0.00  0.00    -0.387 OA
ATOM     35  H   LIG    1       27.060 -28.062   4.724  0.00  0.00    +0.210 HD
ENDBRANCH  33  34
BRANCH  33  36
ATOM     36  C   LIG    1       25.275 -25.419   4.853  0.00  0.00    +0.190 C 
BRANCH  36  37
ATOM     37  O   LIG    1       25.456 -24.654   6.048  0.00  0.00    -0.392 OA
ATOM     38  H   LIG    1       25.199 -23.737   5.842  0.00  0.00    +0.209 HD
ENDBRANCH  36  37
ENDBRANCH  33  36
ENDBRANCH  30  33
ENDBRANCH  27  30
ENDBRANCH  24  27
ENDBRANCH  21  24
ENDBRANCH   7  20
TORSDOF 13
ENDMDL
MODEL 2
REMARK VINA RESULT:      -5.5      2.304      2.916
REMARK  Name = *****
REMARK                            x       y       z     vdW  Elec       q    Type
REMARK                         _______ _______ _______ _____ _____    ______ ____
ROOT
ATOM      1  C   LIG    1       22.571 -28.802  12.469  0.00  0.00    +0.062 A 
ATOM      2  C   LIG    1       23.688 -28.131  13.073  0.00  0.00    +0.058 A 
ATOM      3  I   LIG    1       23.222 -26.612  14.561  0.00  0.00    -0.040 I 
ATOM      4  C   LIG    1       25.011 -28.550  12.797  0.00  0.00    +0.065 A 
ATOM      5  C   LIG    1       25.134 -29.727  12.031  0.00  0.00    +0.049 A 
ATOM      6  I   LIG    1       26.046 -31.409  13.374  0.00  0.00    -0.041 I 
ATOM      7  C   LIG    1       24.062 -30.290  11.318  0.00  0.00    +0.067 A 
ATOM      8  C   LIG    1       22.764 -29.920  11.637  0.00  0.00    +0.049 A 
ATOM      9  I   LIG    1       21.124 -31.109  10.993  0.00  0.00    -0.041 I 
ENDROOT
BRANCH   1  12
ATOM     10  C   LIG    1       20.793 -29.667  14.711  0.00  0.00    +0.109 C 
ATOM     11  C   LIG    1       20.369 -28.709  13.619  0.00  0.00    +0.214 C 
ATOM     12  N   LIG    1       21.248 -28.340  12.631  0.00  0.00    -0.284 N 
ATOM     13  H   LIG    1       21.017 -27.418  12.269  0.00  0.00    +0.155 HD
ATOM     14  O   LIG    1       19.260 -28.172  13.650  0.00  0.00    -0.276 OA
ENDBRANCH   1  12
BRANCH   4  15
ATOM     15  N   LIG    1       26.217 -27.813  13.096  0.00  0.00    -0.273 N 
ATOM     16  C   LIG    1       26.788 -27.708  14.377  0.00  0.00    +0.216 C 
ATOM     17  O   LIG    1       27.746 -26.967  14.616  0.00  0.00    -0.276 OA
ATOM     18  C   LIG    1       26.278 -28.589  15.493  0.00  0.00    +0.110 C 
ATOM     19  C   LIG    1       26.875 -27.048  12.046  0.00  0.00    +0.138 C 
ENDBRANCH   4  15
BRANCH   7  20
ATOM     20  C   LIG    1       24.446 -30.947  10.046  0.00  0.00    +0.247 C 
ATOM     21  N   LIG    1       24.232 -30.214   8.886  0.00  0.00    -0.299 N 
ATOM     22  H   LIG    1       23.882 -29.270   8.927  0.00  0.00    +0.150 HD
ATOM     23  O   LIG    1       24.992 -32.021  10.068  0.00  0.00    -0.270 OA
BRANCH  21  24
ATOM     24  CA  LIG    1       24.666 -30.682   7.561  0.00  0.00    +0.167 C 
BRANCH  24  25
ATOM     25  C   LIG    1       23.699 -31.780   7.134  0.00  0.00    +0.248 C 
ATOM     26  O   LIG    1       23.730 -32.317   6.026  0.00  0.00    -0.299 OA
ENDBRANCH  24  25
BRANCH  24  27
ATOM     27  C   LIG    1       24.804 -29.595   6.474  0.00  0.00    +0.173 C 
BRANCH  27  28
ATOM     28  O   LIG    1       25.910 -29.932   5.621  0.00  0.00    -0.387 OA
ATOM     29  H   LIG    1       25.683 -29.577   4.731  0.00  0.00    +0.210 HD
ENDBRANCH  27  28
BRANCH  27  30
ATOM     30  C   LIG    1       25.024 -28.184   7.090  0.00  0.00    +0.176 C 
BRANCH  30  31
ATOM     31  O   LIG    1       26.330 -28.145   7.691  0.00  0.00    -0.387 OA
ATOM     32  H   LIG    1       26.620 -27.213   7.588  0.00  0.00    +0.210 HD
ENDBRANCH  30  31
BRANCH  30  33
ATOM     33  C   LIG    1       24.951 -27.065   6.036  0.00  0.00    +0.171 C 
BRANCH  33  34
ATOM     34  O   LIG    1       24.593 -27.663   4.771  0.00  0.00    -0.387 OA
ATOM     35  H   LIG    1       24.010 -27.006   4.335  0.00  0.00    +0.210 HD
ENDBRANCH  33  34
BRANCH  33  36
ATOM     36  C   LIG    1       26.288 -26.329   5.865  0.00  0.00    +0.190 C 
BRANCH  36  37
ATOM     37  O   LIG    1       27.169 -27.178   5.123  0.00  0.00    -0.392 OA
ATOM     38  H   LIG    1       27.457 -27.887   5.725  0.00  0.00    +0.209 HD
ENDBRANCH  36  37
ENDBRANCH  33  36
ENDBRANCH  30  33
ENDBRANCH  27  30
ENDBRANCH  24  27
ENDBRANCH  21  24
ENDBRANCH   7  20
TORSDOF 13
ENDMDL
MODEL 3
REMARK VINA RESULT:      -5.1      2.335      3.840
REMARK  Name = *****
REMARK                            x       y       z     vdW  Elec       q    Type
REMARK                         _______ _______ _______ _____ _____    ______ ____
ROOT
ATOM      1  C   LIG    1       23.225 -28.879  12.912  0.00  0.00    +0.062 A 
ATOM      2  C   LIG    1       24.460 -28.705  13.626  0.00  0.00    +0.058 A 
ATOM      3  I   LIG    1       24.587 -26.978  14.944  0.00  0.00    -0.040 I 
ATOM      4  C   LIG    1       25.471 -29.693  13.560  0.00  0.00    +0.065 A 
ATOM      5  C   LIG    1       25.123 -30.882  12.888  0.00  0.00    +0.049 A 
ATOM      6  I   LIG    1       25.041 -32.629  14.439  0.00  0.00    -0.041 I 
ATOM      7  C   LIG    1       23.988 -30.992  12.067  0.00  0.00    +0.067 A 
ATOM      8  C   LIG    1       22.973 -30.054  12.181  0.00  0.00    +0.049 A 
ATOM      9  I   LIG    1       21.045 -30.464  11.386  0.00  0.00    -0.041 I 
ENDROOT
BRANCH   1  12
ATOM     10  C   LIG    1       21.004 -28.645  14.899  0.00  0.00    +0.109 C 
ATOM     11  C   LIG    1       21.187 -27.709  13.723  0.00  0.00    +0.214 C 
ATOM     12  N   LIG    1       22.245 -27.866  12.862  0.00  0.00    -0.284 N 
ATOM     13  H   LIG    1       22.499 -26.977  12.438  0.00  0.00    +0.155 HD
ATOM     14  O   LIG    1       20.445 -26.737  13.573  0.00  0.00    -0.276 OA
ENDBRANCH   1  12
BRANCH   4  15
ATOM     15  N   LIG    1       26.844 -29.534  13.980  0.00  0.00    -0.273 N 
ATOM     16  C   LIG    1       27.919 -29.293  13.106  0.00  0.00    +0.216 C 
ATOM     17  O   LIG    1       29.094 -29.290  13.487  0.00  0.00    -0.276 OA
ATOM     18  C   LIG    1       27.641 -28.941  11.663  0.00  0.00    +0.110 C 
ATOM     19  C   LIG    1       27.195 -29.706  15.382  0.00  0.00    +0.138 C 
ENDBRANCH   4  15
BRANCH   7  20
ATOM     20  C   LIG    1       24.156 -31.891  10.901  0.00  0.00    +0.247 C 
ATOM     21  N   LIG    1       24.426 -31.277   9.684  0.00  0.00    -0.299 N 
ATOM     22  H   LIG    1       24.547 -30.279   9.624  0.00  0.00    +0.150 HD
ATOM     23  O   LIG    1       24.141 -33.086  11.058  0.00  0.00    -0.270 OA
BRANCH  21  24
ATOM     24  CA  LIG    1       24.731 -32.037   8.463  0.00  0.00    +0.167 C 
BRANCH  24  25
ATOM     25  C   LIG    1       23.411 -32.588   7.937  0.00  0.00    +0.248 C 
ATOM     26  O   LIG    1       23.008 -32.400   6.788  0.00  0.00    -0.299 OA
ENDBRANCH  24  25
BRANCH  24  27
ATOM     27  C   LIG    1       25.500 -31.270   7.367  0.00  0.00    +0.173 C 
BRANCH  27  28
ATOM     28  O   LIG    1       26.900 -31.568   7.492  0.00  0.00    -0.387 OA
ATOM     29  H   LIG    1       27.376 -30.753   7.208  0.00  0.00    +0.210 HD
ENDBRANCH  27  28
BRANCH  27  30
ATOM     30  C   LIG    1       25.277 -29.735   7.468  0.00  0.00    +0.176 C 
BRANCH  30  31
ATOM     31  O   LIG    1       26.292 -29.179   8.322  0.00  0.00    -0.387 OA
ATOM     32  H   LIG    1       26.205 -28.209   8.207  0.00  0.00    +0.210 HD
ENDBRANCH  30  31
BRANCH  30  33
ATOM     33  C   LIG    1       25.370 -29.036   6.100  0.00  0.00    +0.171 C 
BRANCH  33  34
ATOM     34  O   LIG    1       26.218 -27.875   6.247  0.00  0.00    -0.387 OA
ATOM     35  H   LIG    1       26.766 -28.060   7.039  0.00  0.00    +0.210 HD
ENDBRANCH  33  34
BRANCH  33  36
ATOM     36  C   LIG    1       24.000 -28.575   5.580  0.00  0.00    +0.190 C 
BRANCH  36  37
ATOM     37  O   LIG    1       23.161 -29.728   5.462  0.00  0.00    -0.392 OA
ATOM     38  H   LIG    1       22.754 -29.695   4.577  0.00  0.00    +0.209 HD
ENDBRANCH  36  37
ENDBRANCH  33  36
ENDBRANCH  30  33
ENDBRANCH  27  30
ENDBRANCH  24  27
ENDBRANCH  21  24
ENDBRANCH   7  20
TORSDOF 13
ENDMDL
MODEL 4
REMARK VINA RESULT:      -5.0      2.713      4.900
REMARK  Name = *****
REMARK                            x       y       z     vdW  Elec       q    Type
REMARK                         _______ _______ _______ _____ _____    ______ ____
ROOT
ATOM      1  C   LIG    1       24.076 -28.931  14.816  0.00  0.00    +0.062 A 
ATOM      2  C   LIG    1       25.480 -28.764  14.566  0.00  0.00    +0.058 A 
ATOM      3  I   LIG    1       26.427 -27.019  15.459  0.00  0.00    -0.040 I 
ATOM      4  C   LIG    1       26.212 -29.767  13.886  0.00  0.00    +0.065 A 
ATOM      5  C   LIG    1       25.513 -30.961  13.619  0.00  0.00    +0.049 A 
ATOM      6  I   LIG    1       26.444 -32.683  14.896  0.00  0.00    -0.041 I 
ATOM      7  C   LIG    1       24.115 -31.067  13.722  0.00  0.00    +0.067 A 
ATOM      8  C   LIG    1       23.412 -30.113  14.442  0.00  0.00    +0.049 A 
ATOM      9  I   LIG    1       21.423 -30.508  15.080  0.00  0.00    -0.041 I 
ENDROOT
BRANCH   1  12
ATOM     10  C   LIG    1       22.698 -26.826  13.203  0.00  0.00    +0.109 C 
ATOM     11  C   LIG    1       22.652 -26.896  14.714  0.00  0.00    +0.214 C 
ATOM     12  N   LIG    1       23.294 -27.906  15.387  0.00  0.00    -0.284 N 
ATOM     13  H   LIG    1       22.835 -28.095  16.276  0.00  0.00    +0.155 HD
ATOM     14  O   LIG    1       21.962 -26.104  15.359  0.00  0.00    -0.276 OA
ENDBRANCH   1  12
BRANCH   4  15
ATOM     15  N   LIG    1       27.533 -29.621  13.323  0.00  0.00    -0.273 N 
ATOM     16  C   LIG    1       27.793 -29.316  11.974  0.00  0.00    +0.216 C 
ATOM     17  O   LIG    1       28.934 -29.325  11.502  0.00  0.00    -0.276 OA
ATOM     18  C   LIG    1       26.658 -28.878  11.078  0.00  0.00    +0.110 C 
ATOM     19  C   LIG    1       28.704 -29.876  14.150  0.00  0.00    +0.138 C 
ENDBRANCH   4  15
BRANCH   7  20
ATOM     20  C   LIG    1       23.493 -31.986  12.739  0.00  0.00    +0.247 C 
ATOM     21  N   LIG    1       23.561 -31.599  11.406  0.00  0.00    -0.299 N 
ATOM     22  H   LIG    1       24.053 -30.763  11.135  0.00  0.00    +0.150 HD
ATOM     23  O   LIG    1       23.044 -33.042  13.106  0.00  0.00    -0.270 OA
BRANCH  21  24
ATOM     24  CA  LIG    1       23.094 -32.456  10.307  0.00  0.00    +0.167 C 
BRANCH  24  25
ATOM     25  C   LIG    1       21.726 -31.934   9.882  0.00  0.00    +0.248 C 
ATOM     26  O   LIG    1       21.332 -30.792  10.123  0.00  0.00    -0.299 OA
ENDBRANCH  24  25
BRANCH  24  27
ATOM     27  C   LIG    1       24.048 -32.587   9.102  0.00  0.00    +0.173 C 
BRANCH  27  28
ATOM     28  O   LIG    1       25.392 -32.735   9.590  0.00  0.00    -0.387 OA
ATOM     29  H   LIG    1       25.495 -33.689   9.811  0.00  0.00    +0.210 HD
ENDBRANCH  27  28
BRANCH  27  30
ATOM     30  C   LIG    1       23.963 -31.353   8.160  0.00  0.00    +0.176 C 
BRANCH  30  31
ATOM     31  O   LIG    1       24.079 -30.160   8.954  0.00  0.00    -0.387 OA
ATOM     32  H   LIG    1       23.475 -29.518   8.523  0.00  0.00    +0.210 HD
ENDBRANCH  30  31
BRANCH  30  33
ATOM     33  C   LIG    1       25.089 -31.336   7.110  0.00  0.00    +0.171 C 
BRANCH  33  34
ATOM     34  O   LIG    1       26.273 -30.790   7.730  0.00  0.00    -0.387 OA
ATOM     35  H   LIG    1       26.566 -30.071   7.130  0.00  0.00    +0.210 HD
ENDBRANCH  33  34
BRANCH  33  36
ATOM     36  C   LIG    1       24.740 -30.476   5.886  0.00  0.00    +0.190 C 
BRANCH  36  37
ATOM     37  O   LIG    1       23.326 -30.258   5.887  0.00  0.00    -0.392 OA
ATOM     38  H   LIG    1       22.902 -31.134   5.841  0.00  0.00    +0.209 HD
ENDBRANCH  36  37
ENDBRANCH  33  36
ENDBRANCH  30  33
ENDBRANCH  27  30
ENDBRANCH  24  27
ENDBRANCH  21  24
ENDBRANCH   7  20
TORSDOF 13
ENDMDL
MODEL 5
REMARK VINA RESULT:      -4.8      2.660      3.934
REMARK  Name = *****
REMARK                            x       y       z     vdW  Elec       q    Type
REMARK                         _______ _______ _______ _____ _____    ______ ____
ROOT
ATOM      1  C   LIG    1       23.595 -28.983  14.465  0.00  0.00    +0.062 A 
ATOM      2  C   LIG    1       24.440 -27.836  14.289  0.00  0.00    +0.058 A 
ATOM      3  I   LIG    1       23.752 -25.974  15.183  0.00  0.00    -0.040 I 
ATOM      4  C   LIG    1       25.711 -27.968  13.681  0.00  0.00    +0.065 A 
ATOM      5  C   LIG    1       26.127 -29.287  13.410  0.00  0.00    +0.049 A 
ATOM      6  I   LIG    1       27.944 -29.805  14.785  0.00  0.00    -0.041 I 
ATOM      7  C   LIG    1       25.250 -30.386  13.437  0.00  0.00    +0.067 A 
ATOM      8  C   LIG    1       24.032 -30.266  14.088  0.00  0.00    +0.049 A 
ATOM      9  I   LIG    1       22.932 -32.005  14.625  0.00  0.00    -0.041 I 
ENDROOT
BRANCH   1  12
ATOM     10  C   LIG    1       21.220 -28.477  12.721  0.00  0.00    +0.109 C 
ATOM     11  C   LIG    1       21.147 -28.618  14.226  0.00  0.00    +0.214 C 
ATOM     12  N   LIG    1       22.279 -28.871  14.961  0.00  0.00    -0.284 N 
ATOM     13  H   LIG    1       22.049 -29.368  15.819  0.00  0.00    +0.155 HD
ATOM     14  O   LIG    1       20.060 -28.601  14.807  0.00  0.00    -0.276 OA
ENDBRANCH   1  12
BRANCH   4  15
ATOM     15  N   LIG    1       26.535 -26.889  13.189  0.00  0.00    -0.273 N 
ATOM     16  C   LIG    1       27.238 -25.988  14.008  0.00  0.00    +0.216 C 
ATOM     17  O   LIG    1       27.828 -25.002  13.554  0.00  0.00    -0.276 OA
ATOM     18  C   LIG    1       27.356 -26.264  15.489  0.00  0.00    +0.110 C 
ATOM     19  C   LIG    1       26.609 -26.632  11.757  0.00  0.00    +0.138 C 
ENDBRANCH   4  15
BRANCH   7  20
ATOM     20  C   LIG    1       25.558 -31.445  12.447  0.00  0.00    +0.247 C 
ATOM     21  N   LIG    1       25.269 -31.152  11.121  0.00  0.00    -0.299 N 
ATOM     22  H   LIG    1       24.915 -30.246  10.856  0.00  0.00    +0.150 HD
ATOM     23  O   LIG    1       26.113 -32.454  12.803  0.00  0.00    -0.270 OA
BRANCH  21  24
ATOM     24  CA  LIG    1       25.623 -32.051  10.014  0.00  0.00    +0.167 C 
BRANCH  24  25
ATOM     25  C   LIG    1       24.528 -33.108   9.927  0.00  0.00    +0.248 C 
ATOM     26  O   LIG    1       23.390 -32.942  10.368  0.00  0.00    -0.299 OA
ENDBRANCH  24  25
BRANCH  24  27
ATOM     27  C   LIG    1       25.867 -31.377   8.648  0.00  0.00    +0.173 C 
BRANCH  27  28
ATOM     28  O   LIG    1       26.450 -30.082   8.870  0.00  0.00    -0.387 OA
ATOM     29  H   LIG    1       25.694 -29.470   9.027  0.00  0.00    +0.210 HD
ENDBRANCH  27  28
BRANCH  27  30
ATOM     30  C   LIG    1       24.552 -31.230   7.831  0.00  0.00    +0.176 C 
BRANCH  30  31
ATOM     31  O   LIG    1       23.752 -30.196   8.432  0.00  0.00    -0.387 OA
ATOM     32  H   LIG    1       24.365 -29.436   8.527  0.00  0.00    +0.210 HD
ENDBRANCH  30  31
BRANCH  30  33
ATOM     33  C   LIG    1       24.811 -30.840   6.365  0.00  0.00    +0.171 C 
BRANCH  33  34
ATOM     34  O   LIG    1       26.226 -30.971   6.109  0.00  0.00    -0.387 OA
ATOM     35  H   LIG    1       26.287 -31.324   5.196  0.00  0.00    +0.210 HD
ENDBRANCH  33  34
BRANCH  33  36
ATOM     36  C   LIG    1       24.393 -29.394   6.058  0.00  0.00    +0.190 C 
BRANCH  36  37
ATOM     37  O   LIG    1       23.202 -29.437   5.266  0.00  0.00    -0.392 OA
ATOM     38  H   LIG    1       23.238 -28.678   4.655  0.00  0.00    +0.209 HD
ENDBRANCH  36  37
ENDBRANCH  33  36
ENDBRANCH  30  33
ENDBRANCH  27  30
ENDBRANCH  24  27
ENDBRANCH  21  24
ENDBRANCH   7  20
TORSDOF 13
ENDMDL
MODEL 6
REMARK VINA RESULT:      -4.7      2.605      6.684
REMARK  Name = *****
REMARK                            x       y       z     vdW  Elec       q    Type
REMARK                         _______ _______ _______ _____ _____    ______ ____
ROOT
ATOM      1  C   LIG    1       24.643 -31.550   9.682  0.00  0.00    +0.062 A 
ATOM      2  C   LIG    1       23.446 -32.273  10.012  0.00  0.00    +0.058 A 
ATOM      3  I   LIG    1       22.773 -33.754   8.565  0.00  0.00    -0.040 I 
ATOM      4  C   LIG    1       22.835 -32.109  11.278  0.00  0.00    +0.065 A 
ATOM      5  C   LIG    1       23.550 -31.325  12.206  0.00  0.00    +0.049 A 
ATOM      6  I   LIG    1       24.275 -32.697  13.953  0.00  0.00    -0.041 I 
ATOM      7  C   LIG    1       24.628 -30.500  11.840  0.00  0.00    +0.067 A 
ATOM      8  C   LIG    1       25.261 -30.709  10.624  0.00  0.00    +0.049 A 
ATOM      9  I   LIG    1       27.187 -29.883  10.267  0.00  0.00    -0.041 I 
ENDROOT
BRANCH   1  12
ATOM     10  C   LIG    1       24.206 -29.443   7.607  0.00  0.00    +0.109 C 
ATOM     11  C   LIG    1       25.040 -30.687   7.385  0.00  0.00    +0.214 C 
ATOM     12  N   LIG    1       25.213 -31.603   8.393  0.00  0.00    -0.284 N 
ATOM     13  H   LIG    1       26.094 -32.100   8.281  0.00  0.00    +0.155 HD
ATOM     14  O   LIG    1       25.653 -30.852   6.328  0.00  0.00    -0.276 OA
ENDBRANCH   1  12
BRANCH   4  15
ATOM     15  N   LIG    1       21.505 -32.537  11.643  0.00  0.00    -0.273 N 
ATOM     16  C   LIG    1       20.346 -31.757  11.482  0.00  0.00    +0.216 C 
ATOM     17  O   LIG    1       19.246 -32.107  11.922  0.00  0.00    -0.276 OA
ATOM     18  C   LIG    1       20.413 -30.483  10.672  0.00  0.00    +0.110 C 
ATOM     19  C   LIG    1       21.315 -33.824  12.297  0.00  0.00    +0.138 C 
ENDBRANCH   4  15
BRANCH   7  20
ATOM     20  C   LIG    1       24.743 -29.251  12.630  0.00  0.00    +0.247 C 
ATOM     21  N   LIG    1       25.863 -29.139  13.445  0.00  0.00    -0.299 N 
ATOM     22  H   LIG    1       26.573 -29.854  13.450  0.00  0.00    +0.150 HD
ATOM     23  O   LIG    1       23.937 -28.368  12.476  0.00  0.00    -0.270 OA
BRANCH  21  24
ATOM     24  CA  LIG    1       26.177 -27.916  14.198  0.00  0.00    +0.167 C 
BRANCH  24  25
ATOM     25  C   LIG    1       27.336 -28.249  15.130  0.00  0.00    +0.248 C 
ATOM     26  O   LIG    1       28.474 -28.502  14.731  0.00  0.00    -0.299 OA
ENDBRANCH  24  25
BRANCH  24  27
ATOM     27  C   LIG    1       26.474 -26.661  13.352  0.00  0.00    +0.173 C 
BRANCH  27  28
ATOM     28  O   LIG    1       27.500 -26.980  12.397  0.00  0.00    -0.387 OA
ATOM     29  H   LIG    1       27.294 -26.450  11.593  0.00  0.00    +0.210 HD
ENDBRANCH  27  28
BRANCH  27  30
ATOM     30  C   LIG    1       26.928 -25.463  14.233  0.00  0.00    +0.176 C 
BRANCH  30  31
ATOM     31  O   LIG    1       27.938 -24.727  13.522  0.00  0.00    -0.387 OA
ATOM     32  H   LIG    1       28.672 -24.631  14.166  0.00  0.00    +0.210 HD
ENDBRANCH  30  31
BRANCH  30  33
ATOM     33  C   LIG    1       25.773 -24.497  14.553  0.00  0.00    +0.171 C 
BRANCH  33  34
ATOM     34  O   LIG    1       25.208 -24.044  13.302  0.00  0.00    -0.387 OA
ATOM     35  H   LIG    1       25.489 -23.108  13.222  0.00  0.00    +0.210 HD
ENDBRANCH  33  34
BRANCH  33  36
ATOM     36  C   LIG    1       26.235 -23.269  15.351  0.00  0.00    +0.190 C 
BRANCH  36  37
ATOM     37  O   LIG    1       25.642 -22.109  14.761  0.00  0.00    -0.392 OA
ATOM     38  H   LIG    1       25.033 -21.732  15.422  0.00  0.00    +0.209 HD
ENDBRANCH  36  37
ENDBRANCH  33  36
ENDBRANCH  30  33
ENDBRANCH  27  30
ENDBRANCH  24  27
ENDBRANCH  21  24
ENDBRANCH   7  20
TORSDOF 13
ENDMDL
MODEL 7
REMARK VINA RESULT:      -4.6      3.425      8.037
REMARK  Name = *****
REMARK                            x       y       z     vdW  Elec       q    Type
REMARK                         _______ _______ _______ _____ _____    ______ ____
ROOT
ATOM      1  C   LIG    1       24.789 -31.449  11.325  0.00  0.00    +0.062 A 
ATOM      2  C   LIG    1       24.848 -31.729   9.917  0.00  0.00    +0.058 A 
ATOM      3  I   LIG    1       26.808 -32.213   9.103  0.00  0.00    -0.040 I 
ATOM      4  C   LIG    1       23.661 -31.812   9.151  0.00  0.00    +0.065 A 
ATOM      5  C   LIG    1       22.456 -31.750   9.880  0.00  0.00    +0.049 A 
ATOM      6  I   LIG    1       21.388 -33.825   9.749  0.00  0.00    -0.041 I 
ATOM      7  C   LIG    1       22.394 -31.326  11.219  0.00  0.00    +0.067 A 
ATOM      8  C   LIG    1       23.552 -31.306  11.980  0.00  0.00    +0.049 A 
ATOM      9  I   LIG    1       23.436 -31.207  14.101  0.00  0.00    -0.041 I 
ENDROOT
BRANCH   1  12
ATOM     10  C   LIG    1       26.113 -28.786  11.626  0.00  0.00    +0.109 C 
ATOM     11  C   LIG    1       26.627 -30.061  12.260  0.00  0.00    +0.214 C 
ATOM     12  N   LIG    1       25.953 -31.246  12.094  0.00  0.00    -0.284 N 
ATOM     13  H   LIG    1       26.119 -31.868  12.882  0.00  0.00    +0.155 HD
ATOM     14  O   LIG    1       27.605 -30.040  13.010  0.00  0.00    -0.276 OA
ENDBRANCH   1  12
BRANCH   4  15
ATOM     15  N   LIG    1       23.576 -31.803   7.710  0.00  0.00    -0.273 N 
ATOM     16  C   LIG    1       23.731 -30.655   6.911  0.00  0.00    +0.216 C 
ATOM     17  O   LIG    1       23.526 -30.663   5.694  0.00  0.00    -0.276 OA
ATOM     18  C   LIG    1       24.248 -29.379   7.535  0.00  0.00    +0.110 C 
ATOM     19  C   LIG    1       23.230 -33.025   6.998  0.00  0.00    +0.138 C 
ENDBRANCH   4  15
BRANCH   7  20
ATOM     20  C   LIG    1       21.157 -30.590  11.575  0.00  0.00    +0.247 C 
ATOM     21  N   LIG    1       20.121 -31.348  12.106  0.00  0.00    -0.299 N 
ATOM     22  H   LIG    1       20.237 -32.334  12.280  0.00  0.00    +0.150 HD
ATOM     23  O   LIG    1       21.125 -29.389  11.478  0.00  0.00    -0.270 OA
BRANCH  21  24
ATOM     24  CA  LIG    1       18.879 -30.748  12.613  0.00  0.00    +0.167 C 
BRANCH  24  25
ATOM     25  C   LIG    1       17.727 -31.611  12.110  0.00  0.00    +0.248 C 
ATOM     26  O   LIG    1       16.575 -31.194  11.980  0.00  0.00    -0.299 OA
ENDBRANCH  24  25
BRANCH  24  27
ATOM     27  C   LIG    1       18.804 -30.540  14.140  0.00  0.00    +0.173 C 
BRANCH  27  28
ATOM     28  O   LIG    1       17.612 -31.172  14.634  0.00  0.00    -0.387 OA
ATOM     29  H   LIG    1       17.916 -31.881  15.246  0.00  0.00    +0.210 HD
ENDBRANCH  27  28
BRANCH  27  30
ATOM     30  C   LIG    1       18.798 -29.033  14.520  0.00  0.00    +0.176 C 
BRANCH  30  31
ATOM     31  O   LIG    1       19.320 -28.278  13.413  0.00  0.00    -0.387 OA
ATOM     32  H   LIG    1       19.557 -27.408  13.798  0.00  0.00    +0.210 HD
ENDBRANCH  30  31
BRANCH  30  33
ATOM     33  C   LIG    1       17.384 -28.510  14.828  0.00  0.00    +0.171 C 
BRANCH  33  34
ATOM     34  O   LIG    1       16.573 -28.688  13.646  0.00  0.00    -0.387 OA
ATOM     35  H   LIG    1       16.174 -27.807  13.477  0.00  0.00    +0.210 HD
ENDBRANCH  33  34
BRANCH  33  36
ATOM     36  C   LIG    1       17.376 -27.020  15.204  0.00  0.00    +0.190 C 
BRANCH  36  37
ATOM     37  O   LIG    1       17.420 -26.259  13.994  0.00  0.00    -0.392 OA
ATOM     38  H   LIG    1       17.262 -25.328  14.236  0.00  0.00    +0.209 HD
ENDBRANCH  36  37
ENDBRANCH  33  36
ENDBRANCH  30  33
ENDBRANCH  27  30
ENDBRANCH  24  27
ENDBRANCH  21  24
ENDBRANCH   7  20
TORSDOF 13
ENDMDL
MODEL 8
REMARK VINA RESULT:      -4.5      3.353      5.696
REMARK  Name = *****
REMARK                            x       y       z     vdW  Elec       q    Type
REMARK                         _______ _______ _______ _____ _____    ______ ____
ROOT
ATOM      1  C   LIG    1       23.175 -31.773  10.954  0.00  0.00    +0.062 A 
ATOM      2  C   LIG    1       22.127 -31.149  11.712  0.00  0.00    +0.058 A 
ATOM      3  I   LIG    1       20.153 -31.113  10.796  0.00  0.00    -0.040 I 
ATOM      4  C   LIG    1       22.363 -30.711  13.037  0.00  0.00    +0.065 A 
ATOM      5  C   LIG    1       23.615 -31.060  13.583  0.00  0.00    +0.049 A 
ATOM      6  I   LIG    1       23.282 -32.596  15.313  0.00  0.00    -0.041 I 
ATOM      7  C   LIG    1       24.686 -31.528  12.803  0.00  0.00    +0.067 A 
ATOM      8  C   LIG    1       24.437 -32.012  11.528  0.00  0.00    +0.049 A 
ATOM      9  I   LIG    1       25.889 -33.208  10.537  0.00  0.00    -0.041 I 
ENDROOT
BRANCH   1  12
ATOM     10  C   LIG    1       24.081 -30.034   8.698  0.00  0.00    +0.109 C 
ATOM     11  C   LIG    1       23.379 -31.362   8.510  0.00  0.00    +0.214 C 
ATOM     12  N   LIG    1       23.009 -32.117   9.596  0.00  0.00    -0.284 N 
ATOM     13  H   LIG    1       22.981 -33.105   9.354  0.00  0.00    +0.155 HD
ATOM     14  O   LIG    1       23.211 -31.830   7.383  0.00  0.00    -0.276 OA
ENDBRANCH   1  12
BRANCH   4  15
ATOM     15  N   LIG    1       21.515 -29.832  13.806  0.00  0.00    -0.273 N 
ATOM     16  C   LIG    1       21.663 -28.434  13.863  0.00  0.00    +0.216 C 
ATOM     17  O   LIG    1       21.000 -27.729  14.630  0.00  0.00    -0.276 OA
ATOM     18  C   LIG    1       22.603 -27.745  12.901  0.00  0.00    +0.110 C 
ATOM     19  C   LIG    1       20.473 -30.391  14.655  0.00  0.00    +0.138 C 
ENDBRANCH   4  15
BRANCH   7  20
ATOM     20  C   LIG    1       26.025 -31.113  13.283  0.00  0.00    +0.247 C 
ATOM     21  N   LIG    1       26.437 -29.833  12.931  0.00  0.00    -0.299 N 
ATOM     22  H   LIG    1       25.827 -29.216  12.419  0.00  0.00    +0.150 HD
ATOM     23  O   LIG    1       26.652 -31.839  14.012  0.00  0.00    -0.270 OA
BRANCH  21  24
ATOM     24  CA  LIG    1       27.686 -29.237  13.426  0.00  0.00    +0.167 C 
BRANCH  24  25
ATOM     25  C   LIG    1       28.765 -29.533  12.391  0.00  0.00    +0.248 C 
ATOM     26  O   LIG    1       28.524 -29.731  11.199  0.00  0.00    -0.299 OA
ENDBRANCH  24  25
BRANCH  24  27
ATOM     27  C   LIG    1       27.626 -27.733  13.767  0.00  0.00    +0.173 C 
BRANCH  27  28
ATOM     28  O   LIG    1       27.987 -27.558  15.147  0.00  0.00    -0.387 OA
ATOM     29  H   LIG    1       27.528 -28.277  15.639  0.00  0.00    +0.210 HD
ENDBRANCH  27  28
BRANCH  27  30
ATOM     30  C   LIG    1       26.213 -27.137  13.512  0.00  0.00    +0.176 C 
BRANCH  30  31
ATOM     31  O   LIG    1       25.426 -27.295  14.706  0.00  0.00    -0.387 OA
ATOM     32  H   LIG    1       24.676 -26.673  14.590  0.00  0.00    +0.210 HD
ENDBRANCH  30  31
BRANCH  30  33
ATOM     33  C   LIG    1       26.260 -25.638  13.168  0.00  0.00    +0.171 C 
BRANCH  33  34
ATOM     34  O   LIG    1       27.638 -25.207  13.228  0.00  0.00    -0.387 OA
ATOM     35  H   LIG    1       28.163 -26.004  13.002  0.00  0.00    +0.210 HD
ENDBRANCH  33  34
BRANCH  33  36
ATOM     36  C   LIG    1       25.440 -24.783  14.145  0.00  0.00    +0.190 C 
BRANCH  36  37
ATOM     37  O   LIG    1       26.119 -23.536  14.319  0.00  0.00    -0.392 OA
ATOM     38  H   LIG    1       26.835 -23.688  14.963  0.00  0.00    +0.209 HD
ENDBRANCH  36  37
ENDBRANCH  33  36
ENDBRANCH  30  33
ENDBRANCH  27  30
ENDBRANCH  24  27
ENDBRANCH  21  24
ENDBRANCH   7  20
TORSDOF 13
ENDMDL
MODEL 9
REMARK VINA RESULT:      -4.5      2.404      4.729
REMARK  Name = *****
REMARK                            x       y       z     vdW  Elec       q    Type
REMARK                         _______ _______ _______ _____ _____    ______ ____
ROOT
ATOM      1  C   LIG    1       25.187 -29.393  12.794  0.00  0.00    +0.062 A 
ATOM      2  C   LIG    1       24.168 -29.951  13.639  0.00  0.00    +0.058 A 
ATOM      3  I   LIG    1       23.760 -28.893  15.498  0.00  0.00    -0.040 I 
ATOM      4  C   LIG    1       23.394 -31.051  13.200  0.00  0.00    +0.065 A 
ATOM      5  C   LIG    1       23.592 -31.443  11.861  0.00  0.00    +0.049 A 
ATOM      6  I   LIG    1       21.648 -30.990  10.646  0.00  0.00    -0.041 I 
ATOM      7  C   LIG    1       24.684 -31.007  11.090  0.00  0.00    +0.067 A 
ATOM      8  C   LIG    1       25.399 -29.891  11.496  0.00  0.00    +0.049 A 
ATOM      9  I   LIG    1       26.675 -28.884  10.125  0.00  0.00    -0.041 I 
ENDROOT
BRANCH   1  12
ATOM     10  C   LIG    1       27.767 -29.934  14.204  0.00  0.00    +0.109 C 
ATOM     11  C   LIG    1       27.238 -28.545  13.915  0.00  0.00    +0.214 C 
ATOM     12  N   LIG    1       26.053 -28.374  13.243  0.00  0.00    -0.284 N 
ATOM     13  H   LIG    1       26.047 -27.489  12.742  0.00  0.00    +0.155 HD
ATOM     14  O   LIG    1       27.906 -27.547  14.193  0.00  0.00    -0.276 OA
ENDBRANCH   1  12
BRANCH   4  15
ATOM     15  N   LIG    1       22.550 -31.881  14.026  0.00  0.00    -0.273 N 
ATOM     16  C   LIG    1       22.969 -33.072  14.646  0.00  0.00    +0.216 C 
ATOM     17  O   LIG    1       22.185 -33.820  15.240  0.00  0.00    -0.276 OA
ATOM     18  C   LIG    1       24.438 -33.422  14.669  0.00  0.00    +0.110 C 
ATOM     19  C   LIG    1       21.143 -31.544  14.192  0.00  0.00    +0.138 C 
ENDBRANCH   4  15
BRANCH   7  20
ATOM     20  C   LIG    1       25.188 -32.005  10.117  0.00  0.00    +0.247 C 
ATOM     21  N   LIG    1       24.530 -32.061   8.895  0.00  0.00    -0.299 N 
ATOM     22  H   LIG    1       23.785 -31.418   8.678  0.00  0.00    +0.150 HD
ATOM     23  O   LIG    1       26.173 -32.649  10.376  0.00  0.00    -0.270 OA
BRANCH  21  24
ATOM     24  CA  LIG    1       24.984 -32.915   7.788  0.00  0.00    +0.167 C 
BRANCH  24  25
ATOM     25  C   LIG    1       23.814 -33.816   7.408  0.00  0.00    +0.248 C 
ATOM     26  O   LIG    1       22.730 -33.800   7.992  0.00  0.00    -0.299 OA
ENDBRANCH  24  25
BRANCH  24  27
ATOM     27  C   LIG    1       25.553 -32.178   6.557  0.00  0.00    +0.173 C 
BRANCH  27  28
ATOM     28  O   LIG    1       26.827 -31.613   6.905  0.00  0.00    -0.387 OA
ATOM     29  H   LIG    1       27.487 -32.332   6.768  0.00  0.00    +0.210 HD
ENDBRANCH  27  28
BRANCH  27  30
ATOM     30  C   LIG    1       24.597 -31.056   6.061  0.00  0.00    +0.176 C 
BRANCH  30  31
ATOM     31  O   LIG    1       23.248 -31.419   6.403  0.00  0.00    -0.387 OA
ATOM     32  H   LIG    1       23.061 -32.213   5.858  0.00  0.00    +0.210 HD
ENDBRANCH  30  31
BRANCH  30  33
ATOM     33  C   LIG    1       24.902 -29.695   6.710  0.00  0.00    +0.171 C 
BRANCH  33  34
ATOM     34  O   LIG    1       23.928 -29.465   7.752  0.00  0.00    -0.387 OA
ATOM     35  H   LIG    1       23.609 -28.549   7.604  0.00  0.00    +0.210 HD
ENDBRANCH  33  34
BRANCH  33  36
ATOM     36  C   LIG    1       24.824 -28.534   5.707  0.00  0.00    +0.190 C 
BRANCH  36  37
ATOM     37  O   LIG    1       23.966 -28.934   4.634  0.00  0.00    -0.392 OA
ATOM     38  H   LIG    1       24.467 -29.568   4.089  0.00  0.00    +0.209 HD
ENDBRANCH  36  37
ENDBRANCH  33  36
ENDBRANCH  30  33
ENDBRANCH  27  30
ENDBRANCH  24  27
ENDBRANCH  21  24
ENDBRANCH   7  20
TORSDOF 13
ENDMDL
