MODEL 1
REMARK VINA RESULT:      -4.3      0.000      0.000
REMARK  Name = *****
REMARK                            x       y       z     vdW  Elec       q    Type
REMARK                         _______ _______ _______ _____ _____    ______ ____
ROOT
ATOM      1  C   LIG    1       27.715 -17.799   4.129  0.00  0.00    +0.044 C 
ATOM      2  C   LIG    1       26.430 -17.742   3.337  0.00  0.00    -0.050 C 
ATOM      3  C   LIG    1       25.674 -16.630   3.178  0.00  0.00    +0.003 C 
ENDROOT
BRANCH   3   4
ATOM      4  C   LIG    1       26.090 -15.292   3.544  0.00  0.00    +0.001 C 
ATOM      5  C   LIG    1       27.034 -14.545   2.934  0.00  0.00    +0.003 C 
BRANCH   5   6
ATOM      6  C   LIG    1       27.456 -13.216   3.381  0.00  0.00    -0.052 C 
ATOM      7  C   LIG    1       28.590 -13.020   4.086  0.00  0.00    +0.004 C 
ATOM      8  C   LIG    1       26.531 -12.097   2.963  0.00  0.00    +0.043 C 
BRANCH   7   9
ATOM      9  C   LIG    1       29.144 -11.749   4.633  0.00  0.00    +0.183 C 
BRANCH   9  10
ATOM     10  O   LIG    1       29.171 -11.853   6.053  0.00  0.00    -0.391 OA
ATOM     11  H   LIG    1       28.280 -11.639   6.375  0.00  0.00    +0.210 HD
ENDBRANCH   9  10
ENDBRANCH   7   9
ENDBRANCH   5   6
ENDBRANCH   3   4
BRANCH   2  12
ATOM     12  C   LIG    1       25.934 -19.002   2.792  0.00  0.00    +0.003 C 
ATOM     13  C   LIG    1       25.183 -19.980   3.337  0.00  0.00    +0.004 C 
BRANCH  13  14
ATOM     14  C   LIG    1       24.618 -20.198   4.676  0.00  0.00    -0.043 C 
ATOM     15  C   LIG    1       23.084 -19.962   4.803  0.00  0.00    -0.010 C 
ATOM     16  C   LIG    1       22.659 -18.588   4.244  0.00  0.00    +0.016 C 
ATOM     17  C   LIG    1       22.316 -21.063   4.029  0.00  0.00    +0.016 C 
ATOM     18  C   LIG    1       22.610 -19.989   6.283  0.00  0.00    +0.011 C 
ATOM     19  C   LIG    1       23.205 -21.151   7.055  0.00  0.00    +0.005 C 
ATOM     20  C   LIG    1       24.720 -21.033   7.061  0.00  0.00    +0.031 C 
ATOM     21  C   LIG    1       25.334 -20.721   5.706  0.00  0.00    -0.069 C 
ATOM     22  C   LIG    1       26.790 -21.111   5.648  0.00  0.00    +0.039 C 
ENDBRANCH  13  14
ENDBRANCH   2  12
TORSDOF 6
ENDMDL
MODEL 2
REMARK VINA RESULT:      -3.7      1.371      2.953
REMARK  Name = *****
REMARK                            x       y       z     vdW  Elec       q    Type
REMARK                         _______ _______ _______ _____ _____    ______ ____
ROOT
ATOM      1  C   LIG    1       22.056 -15.945   5.660  0.00  0.00    +0.044 C 
ATOM      2  C   LIG    1       22.704 -16.673   4.507  0.00  0.00    -0.050 C 
ATOM      3  C   LIG    1       23.735 -16.190   3.774  0.00  0.00    +0.003 C 
ENDROOT
BRANCH   3   4
ATOM      4  C   LIG    1       24.514 -15.019   4.122  0.00  0.00    +0.001 C 
ATOM      5  C   LIG    1       25.803 -14.782   3.800  0.00  0.00    +0.003 C 
BRANCH   5   6
ATOM      6  C   LIG    1       26.561 -13.604   4.226  0.00  0.00    -0.052 C 
ATOM      7  C   LIG    1       27.865 -13.439   3.923  0.00  0.00    +0.004 C 
ATOM      8  C   LIG    1       25.751 -12.592   5.001  0.00  0.00    +0.043 C 
BRANCH   7   9
ATOM      9  C   LIG    1       28.780 -12.323   4.298  0.00  0.00    +0.183 C 
BRANCH   9  10
ATOM     10  O   LIG    1       28.724 -12.160   5.711  0.00  0.00    -0.391 OA
ATOM     11  H   LIG    1       29.163 -11.319   5.922  0.00  0.00    +0.210 HD
ENDBRANCH   9  10
ENDBRANCH   7   9
ENDBRANCH   5   6
ENDBRANCH   3   4
BRANCH   2  12
ATOM     12  C   LIG    1       22.104 -17.942   4.106  0.00  0.00    +0.003 C 
ATOM     13  C   LIG    1       22.537 -19.213   4.219  0.00  0.00    +0.004 C 
BRANCH  13  14
ATOM     14  C   LIG    1       23.773 -19.822   4.728  0.00  0.00    -0.043 C 
ATOM     15  C   LIG    1       24.992 -19.772   3.760  0.00  0.00    -0.010 C 
ATOM     16  C   LIG    1       24.646 -20.318   2.359  0.00  0.00    +0.016 C 
ATOM     17  C   LIG    1       25.483 -18.311   3.608  0.00  0.00    +0.016 C 
ATOM     18  C   LIG    1       26.181 -20.633   4.275  0.00  0.00    +0.011 C 
ATOM     19  C   LIG    1       26.450 -20.415   5.751  0.00  0.00    +0.005 C 
ATOM     20  C   LIG    1       25.220 -20.806   6.554  0.00  0.00    +0.031 C 
ATOM     21  C   LIG    1       23.911 -20.263   6.006  0.00  0.00    -0.069 C 
ATOM     22  C   LIG    1       22.833 -20.233   7.061  0.00  0.00    +0.039 C 
ENDBRANCH  13  14
ENDBRANCH   2  12
TORSDOF 6
ENDMDL
MODEL 3
REMARK VINA RESULT:      -3.1      3.113      7.548
REMARK  Name = *****
REMARK                            x       y       z     vdW  Elec       q    Type
REMARK                         _______ _______ _______ _____ _____    ______ ____
ROOT
ATOM      1  C   LIG    1       27.837 -16.174   4.421  0.00  0.00    +0.044 C 
ATOM      2  C   LIG    1       26.833 -15.941   3.317  0.00  0.00    -0.050 C 
ATOM      3  C   LIG    1       25.839 -16.800   2.987  0.00  0.00    +0.003 C 
ENDROOT
BRANCH   3   4
ATOM      4  C   LIG    1       25.449 -17.949   3.777  0.00  0.00    +0.001 C 
ATOM      5  C   LIG    1       24.548 -18.895   3.437  0.00  0.00    +0.003 C 
BRANCH   5   6
ATOM      6  C   LIG    1       24.149 -20.008   4.300  0.00  0.00    -0.052 C 
ATOM      7  C   LIG    1       22.894 -20.134   4.779  0.00  0.00    +0.004 C 
ATOM      8  C   LIG    1       25.250 -21.004   4.578  0.00  0.00    +0.043 C 
BRANCH   7   9
ATOM      9  C   LIG    1       22.336 -21.182   5.680  0.00  0.00    +0.183 C 
BRANCH   9  10
ATOM     10  O   LIG    1       22.905 -21.003   6.973  0.00  0.00    -0.391 OA
ATOM     11  H   LIG    1       22.999 -20.047   7.117  0.00  0.00    +0.210 HD
ENDBRANCH   9  10
ENDBRANCH   7   9
ENDBRANCH   5   6
ENDBRANCH   3   4
BRANCH   2  12
ATOM     12  C   LIG    1       27.019 -14.749   2.495  0.00  0.00    +0.003 C 
ATOM     13  C   LIG    1       26.582 -13.482   2.643  0.00  0.00    +0.004 C 
BRANCH  13  14
ATOM     14  C   LIG    1       25.723 -12.814   3.629  0.00  0.00    -0.043 C 
ATOM     15  C   LIG    1       24.329 -12.361   3.105  0.00  0.00    -0.010 C 
ATOM     16  C   LIG    1       24.437 -11.524   1.812  0.00  0.00    +0.016 C 
ATOM     17  C   LIG    1       23.448 -13.601   2.812  0.00  0.00    +0.016 C 
ATOM     18  C   LIG    1       23.581 -11.466   4.134  0.00  0.00    +0.011 C 
ATOM     19  C   LIG    1       23.650 -12.029   5.540  0.00  0.00    +0.005 C 
ATOM     20  C   LIG    1       25.103 -12.118   5.979  0.00  0.00    +0.031 C 
ATOM     21  C   LIG    1       26.037 -12.727   4.948  0.00  0.00    -0.069 C 
ATOM     22  C   LIG    1       27.301 -13.254   5.581  0.00  0.00    +0.039 C 
ENDBRANCH  13  14
ENDBRANCH   2  12
TORSDOF 6
ENDMDL
