MODEL 1
REMARK VINA RESULT:      -5.3      0.000      0.000
REMARK  Name = *****
REMARK                            x       y       z     vdW  Elec       q    Type
REMARK                         _______ _______ _______ _____ _____    ______ ____
ROOT
ATOM      1  O   LIG    1       22.006 -19.838   3.702  0.00  0.00    -0.422 OA
ENDROOT
BRANCH   1   7
ATOM      2  C   LIG    1       26.099 -14.920   3.888  0.00  0.00    +0.065 A 
ATOM      3  C   LIG    1       24.751 -15.004   4.259  0.00  0.00    +0.024 A 
ATOM      4  C   LIG    1       24.040 -16.202   4.119  0.00  0.00    -0.017 A 
ATOM      5  C   LIG    1       24.692 -17.344   3.600  0.00  0.00    -0.014 A 
ATOM      6  C   LIG    1       23.978 -18.543   3.473  0.00  0.00    +0.055 A 
ATOM      7  C   LIG    1       22.635 -18.595   3.845  0.00  0.00    +0.133 A 
ATOM      8  C   LIG    1       21.994 -17.478   4.373  0.00  0.00    +0.047 A 
ATOM      9  C   LIG    1       26.038 -17.252   3.220  0.00  0.00    +0.009 A 
ATOM     10  C   LIG    1       22.693 -16.282   4.495  0.00  0.00    +0.012 A 
ATOM     11  C   LIG    1       26.734 -16.049   3.359  0.00  0.00    +0.016 A 
BRANCH   2  14
ATOM     12  N   LIG    1       26.868 -13.077   5.240  0.00  0.00    -0.099 NA
ATOM     13  H   LIG    1       27.367 -12.187   5.188  0.00  0.00    +0.363 HD
ATOM     14  C   LIG    1       26.824 -13.622   4.067  0.00  0.00    +0.308 C 
BRANCH  14  15
ATOM     15  N   LIG    1       27.447 -13.002   3.025  0.00  0.00    -0.247 N 
ATOM     16  H   LIG    1       28.077 -13.554   2.457  0.00  0.00    +0.288 HD
ATOM     17  H   LIG    1       27.821 -12.081   3.214  0.00  0.00    +0.288 HD
ENDBRANCH  14  15
ENDBRANCH   2  14
ENDBRANCH   1   7
BRANCH   1  18
ATOM     18  C   LIG    1       22.005 -20.771   4.719  0.00  0.00    +0.344 C 
ATOM     19  O   LIG    1       21.058 -21.390   5.191  0.00  0.00    -0.244 OA
BRANCH  18  20
ATOM     20  C   LIG    1       23.371 -20.889   5.239  0.00  0.00    +0.060 A 
ATOM     21  C   LIG    1       23.637 -20.434   6.534  0.00  0.00    +0.018 A 
ATOM     22  C   LIG    1       24.921 -20.560   7.061  0.00  0.00    +0.046 A 
ATOM     23  C   LIG    1       25.968 -21.093   6.297  0.00  0.00    +0.142 A 
ATOM     24  C   LIG    1       25.680 -21.568   5.012  0.00  0.00    +0.046 A 
ATOM     25  C   LIG    1       24.393 -21.477   4.482  0.00  0.00    +0.018 A 
BRANCH  23  26
ATOM     26  N   LIG    1       27.268 -21.285   6.781  0.00  0.00    -0.073 NA
ATOM     27  C   LIG    1       28.271 -20.557   6.437  0.00  0.00    +0.382 C 
BRANCH  27  28
ATOM     28  N   LIG    1       29.475 -20.778   7.014  0.00  0.00    -0.289 N 
ATOM     29  H   LIG    1       29.394 -21.358   7.841  0.00  0.00    +0.255 HD
ATOM     30  H   LIG    1       30.091 -21.222   6.339  0.00  0.00    +0.255 HD
ENDBRANCH  27  28
BRANCH  27  31
ATOM     31  N   LIG    1       28.376 -19.538   5.551  0.00  0.00    -0.289 N 
ATOM     32  H   LIG    1       27.599 -18.891   5.605  0.00  0.00    +0.255 HD
ATOM     33  H   LIG    1       29.261 -19.048   5.608  0.00  0.00    +0.255 HD
ENDBRANCH  27  31
ENDBRANCH  23  26
ENDBRANCH  18  20
ENDBRANCH   1  18
TORSDOF 8
ENDMDL
MODEL 2
REMARK VINA RESULT:      -5.3      0.542      1.566
REMARK  Name = *****
REMARK                            x       y       z     vdW  Elec       q    Type
REMARK                         _______ _______ _______ _____ _____    ______ ____
ROOT
ATOM      1  O   LIG    1       21.819 -19.358   4.057  0.00  0.00    -0.422 OA
ENDROOT
BRANCH   1   7
ATOM      2  C   LIG    1       25.970 -14.486   3.945  0.00  0.00    +0.065 A 
ATOM      3  C   LIG    1       26.124 -15.829   3.579  0.00  0.00    +0.024 A 
ATOM      4  C   LIG    1       25.063 -16.734   3.700  0.00  0.00    -0.017 A 
ATOM      5  C   LIG    1       23.816 -16.286   4.194  0.00  0.00    -0.014 A 
ATOM      6  C   LIG    1       22.754 -17.193   4.301  0.00  0.00    +0.055 A 
ATOM      7  C   LIG    1       22.940 -18.526   3.935  0.00  0.00    +0.133 A 
ATOM      8  C   LIG    1       24.160 -18.968   3.432  0.00  0.00    +0.047 A 
ATOM      9  C   LIG    1       23.669 -14.943   4.568  0.00  0.00    +0.009 A 
ATOM     10  C   LIG    1       25.221 -18.076   3.330  0.00  0.00    +0.012 A 
ATOM     11  C   LIG    1       24.739 -14.052   4.449  0.00  0.00    +0.016 A 
BRANCH   2  14
ATOM     12  N   LIG    1       27.703 -13.441   2.633  0.00  0.00    -0.099 NA
ATOM     13  H   LIG    1       28.490 -12.794   2.699  0.00  0.00    +0.363 HD
ATOM     14  C   LIG    1       27.128 -13.551   3.787  0.00  0.00    +0.308 C 
BRANCH  14  15
ATOM     15  N   LIG    1       27.589 -12.802   4.830  0.00  0.00    -0.247 N 
ATOM     16  H   LIG    1       27.753 -13.271   5.711  0.00  0.00    +0.288 HD
ATOM     17  H   LIG    1       27.147 -11.901   4.960  0.00  0.00    +0.288 HD
ENDBRANCH  14  15
ENDBRANCH   2  14
ENDBRANCH   1   7
BRANCH   1  18
ATOM     18  C   LIG    1       21.897 -20.595   4.663  0.00  0.00    +0.344 C 
ATOM     19  O   LIG    1       21.017 -21.437   4.803  0.00  0.00    -0.244 OA
BRANCH  18  20
ATOM     20  C   LIG    1       23.249 -20.759   5.206  0.00  0.00    +0.060 A 
ATOM     21  C   LIG    1       23.505 -20.319   6.508  0.00  0.00    +0.018 A 
ATOM     22  C   LIG    1       24.774 -20.488   7.058  0.00  0.00    +0.046 A 
ATOM     23  C   LIG    1       25.818 -21.050   6.310  0.00  0.00    +0.142 A 
ATOM     24  C   LIG    1       25.539 -21.509   5.018  0.00  0.00    +0.046 A 
ATOM     25  C   LIG    1       24.265 -21.375   4.464  0.00  0.00    +0.018 A 
BRANCH  23  26
ATOM     26  N   LIG    1       27.102 -21.286   6.816  0.00  0.00    -0.073 NA
ATOM     27  C   LIG    1       28.145 -20.627   6.449  0.00  0.00    +0.382 C 
BRANCH  27  28
ATOM     28  N   LIG    1       29.331 -20.882   7.049  0.00  0.00    -0.289 N 
ATOM     29  H   LIG    1       29.974 -20.106   6.955  0.00  0.00    +0.255 HD
ATOM     30  H   LIG    1       29.170 -21.080   8.033  0.00  0.00    +0.255 HD
ENDBRANCH  27  28
BRANCH  27  31
ATOM     31  N   LIG    1       28.310 -19.659   5.517  0.00  0.00    -0.289 N 
ATOM     32  H   LIG    1       28.854 -18.876   5.859  0.00  0.00    +0.255 HD
ATOM     33  H   LIG    1       28.683 -20.005   4.642  0.00  0.00    +0.255 HD
ENDBRANCH  27  31
ENDBRANCH  23  26
ENDBRANCH  18  20
ENDBRANCH   1  18
TORSDOF 8
ENDMDL
MODEL 3
REMARK VINA RESULT:      -3.2      3.292      4.584
REMARK  Name = *****
REMARK                            x       y       z     vdW  Elec       q    Type
REMARK                         _______ _______ _______ _____ _____    ______ ____
ROOT
ATOM      1  O   LIG    1       28.868 -18.736   4.898  0.00  0.00    -0.422 OA
ENDROOT
BRANCH   1   7
ATOM      2  C   LIG    1       25.626 -13.399   3.491  0.00  0.00    +0.065 A 
ATOM      3  C   LIG    1       25.360 -14.739   3.185  0.00  0.00    +0.024 A 
ATOM      4  C   LIG    1       26.230 -15.757   3.594  0.00  0.00    -0.017 A 
ATOM      5  C   LIG    1       27.391 -15.428   4.332  0.00  0.00    -0.014 A 
ATOM      6  C   LIG    1       28.251 -16.452   4.749  0.00  0.00    +0.055 A 
ATOM      7  C   LIG    1       27.964 -17.777   4.423  0.00  0.00    +0.133 A 
ATOM      8  C   LIG    1       26.813 -18.108   3.713  0.00  0.00    +0.047 A 
ATOM      9  C   LIG    1       27.658 -14.084   4.627  0.00  0.00    +0.009 A 
ATOM     10  C   LIG    1       25.958 -17.097   3.288  0.00  0.00    +0.012 A 
ATOM     11  C   LIG    1       26.785 -13.078   4.206  0.00  0.00    +0.016 A 
BRANCH   2  14
ATOM     12  N   LIG    1       24.702 -11.925   1.820  0.00  0.00    -0.099 NA
ATOM     13  H   LIG    1       24.008 -11.188   1.685  0.00  0.00    +0.363 HD
ATOM     14  C   LIG    1       24.661 -12.345   3.044  0.00  0.00    +0.308 C 
BRANCH  14  15
ATOM     15  N   LIG    1       23.732 -11.820   3.893  0.00  0.00    -0.247 N 
ATOM     16  H   LIG    1       22.760 -11.878   3.622  0.00  0.00    +0.288 HD
ATOM     17  H   LIG    1       23.957 -10.920   4.298  0.00  0.00    +0.288 HD
ENDBRANCH  14  15
ENDBRANCH   2  14
ENDBRANCH   1   7
BRANCH   1  18
ATOM     18  C   LIG    1       28.606 -19.481   6.029  0.00  0.00    +0.344 C 
ATOM     19  O   LIG    1       29.345 -19.718   6.979  0.00  0.00    -0.244 OA
BRANCH  18  20
ATOM     20  C   LIG    1       27.256 -20.039   5.913  0.00  0.00    +0.060 A 
ATOM     21  C   LIG    1       26.466 -20.127   7.062  0.00  0.00    +0.018 A 
ATOM     22  C   LIG    1       25.168 -20.628   6.973  0.00  0.00    +0.046 A 
ATOM     23  C   LIG    1       24.655 -21.095   5.754  0.00  0.00    +0.142 A 
ATOM     24  C   LIG    1       25.450 -20.976   4.608  0.00  0.00    +0.046 A 
ATOM     25  C   LIG    1       26.739 -20.448   4.676  0.00  0.00    +0.018 A 
BRANCH  23  26
ATOM     26  N   LIG    1       23.349 -21.571   5.589  0.00  0.00    -0.073 NA
ATOM     27  C   LIG    1       22.382 -20.855   5.130  0.00  0.00    +0.382 C 
BRANCH  27  28
ATOM     28  N   LIG    1       21.171 -21.428   4.941  0.00  0.00    -0.289 N 
ATOM     29  H   LIG    1       20.876 -21.374   3.974  0.00  0.00    +0.255 HD
ATOM     30  H   LIG    1       21.213 -22.400   5.235  0.00  0.00    +0.255 HD
ENDBRANCH  27  28
BRANCH  27  31
ATOM     31  N   LIG    1       22.326 -19.551   4.770  0.00  0.00    -0.289 N 
ATOM     32  H   LIG    1       22.003 -19.422   3.820  0.00  0.00    +0.255 HD
ATOM     33  H   LIG    1       21.793 -18.981   5.416  0.00  0.00    +0.255 HD
ENDBRANCH  27  31
ENDBRANCH  23  26
ENDBRANCH  18  20
ENDBRANCH   1  18
TORSDOF 8
ENDMDL
