MODEL 1
REMARK VINA RESULT:      -4.6      0.000      0.000
REMARK  Name = *****
REMARK                            x       y       z     vdW  Elec       q    Type
REMARK                         _______ _______ _______ _____ _____    ______ ____
ROOT
ATOM      1  C   LIG    1       21.504 -21.256   4.815  0.00  0.00    +0.147 C 
ATOM      2  C   LIG    1       22.942 -20.784   4.751  0.00  0.00    +0.315 C 
ATOM      3  N   LIG    1       23.753 -21.202   5.776  0.00  0.00    -0.201 N 
ATOM      4  H   LIG    1       23.363 -21.785   6.508  0.00  0.00    +0.298 HD
ATOM      5  C   LIG    1       25.097 -20.854   5.882  0.00  0.00    +0.148 A 
ATOM      6  C   LIG    1       25.714 -20.052   4.928  0.00  0.00    +0.180 A 
ATOM      7  C   LIG    1       27.062 -19.688   5.010  0.00  0.00    +0.055 A 
ATOM      8  C   LIG    1       27.813 -20.146   6.086  0.00  0.00    +0.043 A 
ATOM      9  C   LIG    1       27.223 -20.953   7.059  0.00  0.00    +0.024 A 
ATOM     10 CL   LIG    1       29.472 -19.719   6.219  0.00  0.00    -0.084 Cl
ATOM     11  S   LIG    1       24.756 -19.484   3.564  0.00  0.00    +0.182 S 
ATOM     12  O   LIG    1       24.729 -18.038   3.691  0.00  0.00    -0.125 OA
ATOM     13  O   LIG    1       25.344 -20.109   2.395  0.00  0.00    -0.125 OA
ATOM     14  C   LIG    1       25.871 -21.305   6.957  0.00  0.00    +0.052 A 
ATOM     15  N   LIG    1       23.252 -20.042   3.745  0.00  0.00    +0.090 NA
ENDROOT
TORSDOF 0
ENDMDL
MODEL 2
REMARK VINA RESULT:      -3.9      5.351      6.160
REMARK  Name = *****
REMARK                            x       y       z     vdW  Elec       q    Type
REMARK                         _______ _______ _______ _____ _____    ______ ____
ROOT
ATOM      1  C   LIG    1       23.876 -11.686   4.456  0.00  0.00    +0.147 C 
ATOM      2  C   LIG    1       24.460 -13.044   4.123  0.00  0.00    +0.315 C 
ATOM      3  N   LIG    1       23.628 -14.116   4.323  0.00  0.00    -0.201 N 
ATOM      4  H   LIG    1       22.692 -13.956   4.678  0.00  0.00    +0.298 HD
ATOM      5  C   LIG    1       24.003 -15.436   4.081  0.00  0.00    +0.148 A 
ATOM      6  C   LIG    1       25.269 -15.751   3.601  0.00  0.00    +0.180 A 
ATOM      7  C   LIG    1       25.672 -17.067   3.349  0.00  0.00    +0.055 A 
ATOM      8  C   LIG    1       24.771 -18.097   3.586  0.00  0.00    +0.043 A 
ATOM      9  C   LIG    1       23.493 -17.814   4.067  0.00  0.00    +0.024 A 
ATOM     10 CL   LIG    1       25.231 -19.725   3.287  0.00  0.00    -0.084 Cl
ATOM     11  S   LIG    1       26.401 -14.436   3.295  0.00  0.00    +0.182 S 
ATOM     12  O   LIG    1       27.502 -14.656   4.215  0.00  0.00    -0.125 OA
ATOM     13  O   LIG    1       26.625 -14.449   1.862  0.00  0.00    -0.125 OA
ATOM     14  C   LIG    1       23.111 -16.489   4.313  0.00  0.00    +0.052 A 
ATOM     15  N   LIG    1       25.672 -13.050   3.689  0.00  0.00    +0.090 NA
ENDROOT
TORSDOF 0
ENDMDL
MODEL 3
REMARK VINA RESULT:      -3.3      2.866      4.350
REMARK  Name = *****
REMARK                            x       y       z     vdW  Elec       q    Type
REMARK                         _______ _______ _______ _____ _____    ______ ____
ROOT
ATOM      1  C   LIG    1       28.776 -19.640   6.158  0.00  0.00    +0.147 C 
ATOM      2  C   LIG    1       27.376 -19.762   5.593  0.00  0.00    +0.315 C 
ATOM      3  N   LIG    1       26.474 -20.437   6.376  0.00  0.00    -0.201 N 
ATOM      4  H   LIG    1       26.778 -20.816   7.265  0.00  0.00    +0.298 HD
ATOM      5  C   LIG    1       25.148 -20.653   6.008  0.00  0.00    +0.148 A 
ATOM      6  C   LIG    1       24.645 -20.176   4.803  0.00  0.00    +0.180 A 
ATOM      7  C   LIG    1       23.318 -20.378   4.410  0.00  0.00    +0.055 A 
ATOM      8  C   LIG    1       22.471 -21.081   5.256  0.00  0.00    +0.043 A 
ATOM      9  C   LIG    1       22.944 -21.572   6.473  0.00  0.00    +0.024 A 
ATOM     10 CL   LIG    1       20.834 -21.347   4.806  0.00  0.00    -0.084 Cl
ATOM     11  S   LIG    1       25.726 -19.278   3.740  0.00  0.00    +0.182 S 
ATOM     12  O   LIG    1       25.828 -20.078   2.534  0.00  0.00    -0.125 OA
ATOM     13  O   LIG    1       25.183 -17.934   3.689  0.00  0.00    -0.125 OA
ATOM     14  C   LIG    1       24.278 -21.358   6.847  0.00  0.00    +0.052 A 
ATOM     15  N   LIG    1       27.179 -19.220   4.442  0.00  0.00    +0.090 NA
ENDROOT
TORSDOF 0
ENDMDL
MODEL 4
REMARK VINA RESULT:      -2.6      5.275      6.597
REMARK  Name = *****
REMARK                            x       y       z     vdW  Elec       q    Type
REMARK                         _______ _______ _______ _____ _____    ______ ____
ROOT
ATOM      1  C   LIG    1       28.770 -12.918   3.664  0.00  0.00    +0.147 C 
ATOM      2  C   LIG    1       27.494 -13.733   3.692  0.00  0.00    +0.315 C 
ATOM      3  N   LIG    1       27.654 -15.094   3.623  0.00  0.00    -0.201 N 
ATOM      4  H   LIG    1       28.589 -15.479   3.554  0.00  0.00    +0.298 HD
ATOM      5  C   LIG    1       26.590 -15.994   3.625  0.00  0.00    +0.148 A 
ATOM      6  C   LIG    1       25.273 -15.556   3.709  0.00  0.00    +0.180 A 
ATOM      7  C   LIG    1       24.187 -16.438   3.713  0.00  0.00    +0.055 A 
ATOM      8  C   LIG    1       24.434 -17.802   3.631  0.00  0.00    +0.043 A 
ATOM      9  C   LIG    1       25.745 -18.273   3.546  0.00  0.00    +0.024 A 
ATOM     10 CL   LIG    1       23.124 -18.914   3.634  0.00  0.00    -0.084 Cl
ATOM     11  S   LIG    1       24.971 -13.825   3.821  0.00  0.00    +0.182 S 
ATOM     12  O   LIG    1       24.231 -13.486   2.620  0.00  0.00    -0.125 OA
ATOM     13  O   LIG    1       24.380 -13.623   5.131  0.00  0.00    -0.125 OA
ATOM     14  C   LIG    1       26.817 -17.372   3.543  0.00  0.00    +0.052 A 
ATOM     15  N   LIG    1       26.395 -13.066   3.777  0.00  0.00    +0.090 NA
ENDROOT
TORSDOF 0
ENDMDL
MODEL 5
REMARK VINA RESULT:      -2.2      5.558      6.454
REMARK  Name = *****
REMARK                            x       y       z     vdW  Elec       q    Type
REMARK                         _______ _______ _______ _____ _____    ______ ____
ROOT
ATOM      1  C   LIG    1       24.616 -12.283   1.947  0.00  0.00    +0.147 C 
ATOM      2  C   LIG    1       25.622 -13.175   2.645  0.00  0.00    +0.315 C 
ATOM      3  N   LIG    1       25.351 -14.520   2.611  0.00  0.00    -0.201 N 
ATOM      4  H   LIG    1       24.514 -14.843   2.140  0.00  0.00    +0.298 HD
ATOM      5  C   LIG    1       26.161 -15.482   3.211  0.00  0.00    +0.148 A 
ATOM      6  C   LIG    1       27.325 -15.130   3.885  0.00  0.00    +0.180 A 
ATOM      7  C   LIG    1       28.156 -16.075   4.495  0.00  0.00    +0.055 A 
ATOM      8  C   LIG    1       27.805 -17.417   4.423  0.00  0.00    +0.043 A 
ATOM      9  C   LIG    1       26.644 -17.803   3.753  0.00  0.00    +0.024 A 
ATOM     10 CL   LIG    1       28.803 -18.606   5.160  0.00  0.00    -0.084 Cl
ATOM     11  S   LIG    1       27.765 -13.426   3.963  0.00  0.00    +0.182 S 
ATOM     12  O   LIG    1       27.722 -13.083   5.373  0.00  0.00    -0.125 OA
ATOM     13  O   LIG    1       29.003 -13.315   3.216  0.00  0.00    -0.125 OA
ATOM     14  C   LIG    1       25.826 -16.839   3.150  0.00  0.00    +0.052 A 
ATOM     15  N   LIG    1       26.623 -12.581   3.195  0.00  0.00    +0.090 NA
ENDROOT
TORSDOF 0
ENDMDL
MODEL 6
REMARK VINA RESULT:      -2.0      3.427      4.130
REMARK  Name = *****
REMARK                            x       y       z     vdW  Elec       q    Type
REMARK                         _______ _______ _______ _____ _____    ______ ____
ROOT
ATOM      1  C   LIG    1       21.664 -20.486   4.869  0.00  0.00    +0.147 C 
ATOM      2  C   LIG    1       22.849 -19.636   4.458  0.00  0.00    +0.315 C 
ATOM      3  N   LIG    1       22.653 -18.279   4.502  0.00  0.00    -0.201 N 
ATOM      4  H   LIG    1       21.752 -17.919   4.793  0.00  0.00    +0.298 HD
ATOM      5  C   LIG    1       23.630 -17.350   4.148  0.00  0.00    +0.148 A 
ATOM      6  C   LIG    1       24.893 -17.753   3.730  0.00  0.00    +0.180 A 
ATOM      7  C   LIG    1       25.891 -16.842   3.369  0.00  0.00    +0.055 A 
ATOM      8  C   LIG    1       25.609 -15.484   3.432  0.00  0.00    +0.043 A 
ATOM      9  C   LIG    1       24.351 -15.047   3.849  0.00  0.00    +0.024 A 
ATOM     10 CL   LIG    1       26.812 -14.336   2.997  0.00  0.00    -0.084 Cl
ATOM     11  S   LIG    1       25.242 -19.478   3.661  0.00  0.00    +0.182 S 
ATOM     12  O   LIG    1       25.497 -19.762   2.260  0.00  0.00    -0.125 OA
ATOM     13  O   LIG    1       26.274 -19.700   4.656  0.00  0.00    -0.125 OA
ATOM     14  C   LIG    1       23.366 -15.977   4.205  0.00  0.00    +0.052 A 
ATOM     15  N   LIG    1       23.913 -20.274   4.112  0.00  0.00    +0.090 NA
ENDROOT
TORSDOF 0
ENDMDL
