MODEL 1
REMARK VINA RESULT:      -3.1      0.000      0.000
REMARK  Name = *****
REMARK                            x       y       z     vdW  Elec       q    Type
REMARK                         _______ _______ _______ _____ _____    ______ ____
ROOT
ATOM      1  C   LIG    1       31.082 -19.334   7.121  0.00  0.00    +0.037 C 
ATOM      2  C   LIG    1       31.576 -18.602   8.359  0.00  0.00    +0.108 C 
ATOM      3  C   LIG    1       30.462 -17.814   9.029  0.00  0.00    +0.037 C 
ENDROOT
BRANCH   2   4
ATOM      4  O   LIG    1       32.104 -19.548   9.284  0.00  0.00    -0.392 OA
ATOM      5  H   LIG    1       32.083 -19.145  10.170  0.00  0.00    +0.210 HD
ENDBRANCH   2   4
TORSDOF 1
ENDMDL
MODEL 2
REMARK VINA RESULT:      -3.0      9.293      9.553
REMARK  Name = *****
REMARK                            x       y       z     vdW  Elec       q    Type
REMARK                         _______ _______ _______ _____ _____    ______ ____
ROOT
ATOM      1  C   LIG    1       22.420 -19.171   4.858  0.00  0.00    +0.037 C 
ATOM      2  C   LIG    1       22.855 -20.587   5.202  0.00  0.00    +0.108 C 
ATOM      3  C   LIG    1       23.270 -20.710   6.660  0.00  0.00    +0.037 C 
ENDROOT
BRANCH   2   4
ATOM      4  O   LIG    1       21.780 -21.485   4.943  0.00  0.00    -0.392 OA
ATOM      5  H   LIG    1       22.058 -22.375   5.222  0.00  0.00    +0.210 HD
ENDBRANCH   2   4
TORSDOF 1
ENDMDL
MODEL 3
REMARK VINA RESULT:      -3.0      9.062      9.349
REMARK  Name = *****
REMARK                            x       y       z     vdW  Elec       q    Type
REMARK                         _______ _______ _______ _____ _____    ______ ____
ROOT
ATOM      1  C   LIG    1       23.268 -20.690   6.613  0.00  0.00    +0.037 C 
ATOM      2  C   LIG    1       22.534 -20.606   5.285  0.00  0.00    +0.108 C 
ATOM      3  C   LIG    1       22.433 -19.173   4.786  0.00  0.00    +0.037 C 
ENDROOT
BRANCH   2   4
ATOM      4  O   LIG    1       23.223 -21.393   4.317  0.00  0.00    -0.392 OA
ATOM      5  H   LIG    1       22.679 -21.420   3.510  0.00  0.00    +0.210 HD
ENDBRANCH   2   4
TORSDOF 1
ENDMDL
MODEL 4
REMARK VINA RESULT:      -2.9      2.129      2.921
REMARK  Name = *****
REMARK                            x       y       z     vdW  Elec       q    Type
REMARK                         _______ _______ _______ _____ _____    ______ ____
ROOT
ATOM      1  C   LIG    1       30.808 -16.765  10.206  0.00  0.00    +0.037 C 
ATOM      2  C   LIG    1       32.057 -17.220   9.469  0.00  0.00    +0.108 C 
ATOM      3  C   LIG    1       31.755 -18.339   8.484  0.00  0.00    +0.037 C 
ENDROOT
BRANCH   2   4
ATOM      4  O   LIG    1       32.617 -16.114   8.767  0.00  0.00    -0.392 OA
ATOM      5  H   LIG    1       31.906 -15.469   8.608  0.00  0.00    +0.210 HD
ENDBRANCH   2   4
TORSDOF 1
ENDMDL
MODEL 5
REMARK VINA RESULT:      -2.9      0.537      1.858
REMARK  Name = *****
REMARK                            x       y       z     vdW  Elec       q    Type
REMARK                         _______ _______ _______ _____ _____    ______ ____
ROOT
ATOM      1  C   LIG    1       30.328 -17.973   9.076  0.00  0.00    +0.037 C 
ATOM      2  C   LIG    1       30.854 -19.322   8.614  0.00  0.00    +0.108 C 
ATOM      3  C   LIG    1       31.047 -19.366   7.106  0.00  0.00    +0.037 C 
ENDROOT
BRANCH   2   4
ATOM      4  O   LIG    1       32.099 -19.586   9.254  0.00  0.00    -0.392 OA
ATOM      5  H   LIG    1       31.989 -19.411  10.206  0.00  0.00    +0.210 HD
ENDBRANCH   2   4
TORSDOF 1
ENDMDL
MODEL 6
REMARK VINA RESULT:      -2.9      8.370      8.539
REMARK  Name = *****
REMARK                            x       y       z     vdW  Elec       q    Type
REMARK                         _______ _______ _______ _____ _____    ______ ____
ROOT
ATOM      1  C   LIG    1       27.744 -14.134   3.979  0.00  0.00    +0.037 C 
ATOM      2  C   LIG    1       26.608 -14.784   3.206  0.00  0.00    +0.108 C 
ATOM      3  C   LIG    1       25.256 -14.487   3.835  0.00  0.00    +0.037 C 
ENDROOT
BRANCH   2   4
ATOM      4  O   LIG    1       26.618 -14.305   1.865  0.00  0.00    -0.392 OA
ATOM      5  H   LIG    1       27.473 -14.544   1.467  0.00  0.00    +0.210 HD
ENDBRANCH   2   4
TORSDOF 1
ENDMDL
MODEL 7
REMARK VINA RESULT:      -2.9      9.306      9.867
REMARK  Name = *****
REMARK                            x       y       z     vdW  Elec       q    Type
REMARK                         _______ _______ _______ _____ _____    ______ ____
ROOT
ATOM      1  C   LIG    1       25.356 -24.234   6.887  0.00  0.00    +0.037 C 
ATOM      2  C   LIG    1       24.243 -24.864   6.065  0.00  0.00    +0.108 C 
ATOM      3  C   LIG    1       24.309 -26.383   6.096  0.00  0.00    +0.037 C 
ENDROOT
BRANCH   2   4
ATOM      4  O   LIG    1       22.983 -24.438   6.576  0.00  0.00    -0.392 OA
ATOM      5  H   LIG    1       22.424 -25.227   6.691  0.00  0.00    +0.210 HD
ENDBRANCH   2   4
TORSDOF 1
ENDMDL
MODEL 8
REMARK VINA RESULT:      -2.9      5.663      5.892
REMARK  Name = *****
REMARK                            x       y       z     vdW  Elec       q    Type
REMARK                         _______ _______ _______ _____ _____    ______ ____
ROOT
ATOM      1  C   LIG    1       24.723 -20.948   7.478  0.00  0.00    +0.037 C 
ATOM      2  C   LIG    1       26.047 -21.070   8.216  0.00  0.00    +0.108 C 
ATOM      3  C   LIG    1       27.181 -20.402   7.454  0.00  0.00    +0.037 C 
ENDROOT
BRANCH   2   4
ATOM      4  O   LIG    1       25.926 -20.468   9.501  0.00  0.00    -0.392 OA
ATOM      5  H   LIG    1       25.136 -19.898   9.492  0.00  0.00    +0.210 HD
ENDBRANCH   2   4
TORSDOF 1
ENDMDL
MODEL 9
REMARK VINA RESULT:      -2.8      9.313      9.781
REMARK  Name = *****
REMARK                            x       y       z     vdW  Elec       q    Type
REMARK                         _______ _______ _______ _____ _____    ______ ____
ROOT
ATOM      1  C   LIG    1       24.177 -26.076   5.816  0.00  0.00    +0.037 C 
ATOM      2  C   LIG    1       24.133 -24.720   6.502  0.00  0.00    +0.108 C 
ATOM      3  C   LIG    1       24.996 -23.695   5.782  0.00  0.00    +0.037 C 
ENDROOT
BRANCH   2   4
ATOM      4  O   LIG    1       22.786 -24.256   6.540  0.00  0.00    -0.392 OA
ATOM      5  H   LIG    1       22.529 -24.009   5.634  0.00  0.00    +0.210 HD
ENDBRANCH   2   4
TORSDOF 1
ENDMDL
