MODEL 1
REMARK VINA RESULT:      -9.3      0.000      0.000
REMARK  Name = *****
REMARK                            x       y       z     vdW  Elec       q    Type
REMARK                         _______ _______ _______ _____ _____    ______ ____
ROOT
ATOM      1  C   LIG    1       25.325 -21.428   6.015  0.00  0.00    +0.221 A 
ATOM      2  N   LIG    1       25.511 -22.728   5.749  0.00  0.00    -0.211 NA
ATOM      3  C   LIG    1       24.572 -23.627   6.147  0.00  0.00    +0.111 A 
ATOM      4  C   LIG    1       23.461 -23.216   6.845  0.00  0.00    +0.167 A 
ATOM      5  F   LIG    1       22.527 -24.069   7.302  0.00  0.00    -0.202 F 
ATOM      6  C   LIG    1       23.344 -21.875   7.082  0.00  0.00    +0.155 A 
ATOM      7  N   LIG    1       24.250 -20.959   6.663  0.00  0.00    -0.220 NA
ENDROOT
BRANCH   3   8
ATOM      8  C   LIG    1       24.858 -25.029   5.774  0.00  0.00    +0.008 A 
ATOM      9  C   LIG    1       25.228 -25.384   4.462  0.00  0.00    +0.050 A 
ATOM     10  C   LIG    1       25.512 -26.708   4.124  0.00  0.00    +0.151 A 
ATOM     11  F   LIG    1       25.865 -26.985   2.859  0.00  0.00    -0.203 F 
ATOM     12  C   LIG    1       25.430 -27.718   5.091  0.00  0.00    +0.124 A 
ATOM     13  N   LIG    1       25.661 -29.060   4.987  0.00  0.00    -0.230 NA
ATOM     14  C   LIG    1       25.462 -29.568   6.186  0.00  0.00    +0.108 A 
ATOM     15  N   LIG    1       25.099 -28.578   7.090  0.00  0.00    -0.325 N 
ATOM     16  C   LIG    1       25.632 -31.016   6.473  0.00  0.00    +0.086 C 
ATOM     17  C   LIG    1       25.069 -27.382   6.390  0.00  0.00    +0.072 A 
ATOM     18  C   LIG    1       24.781 -26.053   6.744  0.00  0.00    +0.038 A 
BRANCH  15  19
ATOM     19  C   LIG    1       24.855 -28.741   8.526  0.00  0.00    +0.083 C 
ATOM     20  C   LIG    1       26.135 -28.906   9.355  0.00  0.00    +0.030 C 
ATOM     21  C   LIG    1       23.896 -29.899   8.831  0.00  0.00    +0.030 C 
ENDBRANCH  15  19
ENDBRANCH   3   8
BRANCH   1  22
ATOM     22  N   LIG    1       26.269 -20.488   5.599  0.00  0.00    -0.269 N 
ATOM     23  H   LIG    1       26.281 -20.387   4.597  0.00  0.00    +0.156 HD
BRANCH  22  27
ATOM     24  C   LIG    1       29.732 -19.240   7.558  0.00  0.00    -0.015 A 
ATOM     25  C   LIG    1       28.782 -20.087   8.113  0.00  0.00    +0.117 A 
ATOM     26  N   LIG    1       27.670 -20.524   7.469  0.00  0.00    -0.240 NA
ATOM     27  C   LIG    1       27.458 -20.100   6.200  0.00  0.00    +0.125 A 
ATOM     28  C   LIG    1       28.409 -19.325   5.548  0.00  0.00    +0.044 A 
ATOM     29  C   LIG    1       29.537 -18.881   6.228  0.00  0.00    +0.010 A 
BRANCH  24  30
ATOM     30  C   LIG    1       30.915 -18.705   8.327  0.00  0.00    +0.121 C 
BRANCH  30  34
ATOM     31  N   LIG    1       32.019 -17.319  11.644  0.00  0.00    -0.300 NA
ATOM     32  C   LIG    1       30.773 -18.054  11.344  0.00  0.00    +0.100 C 
ATOM     33  C   LIG    1       29.960 -17.435  10.180  0.00  0.00    +0.100 C 
ATOM     34  N   LIG    1       30.707 -17.360   8.899  0.00  0.00    -0.296 NA
ATOM     35  C   LIG    1       31.988 -16.660   9.164  0.00  0.00    +0.100 C 
ATOM     36  C   LIG    1       32.793 -17.184  10.385  0.00  0.00    +0.100 C 
BRANCH  31  38
ATOM     37  C   LIG    1       32.331 -15.839  13.657  0.00  0.00    +0.020 C 
ATOM     38  C   LIG    1       31.776 -15.992  12.243  0.00  0.00    +0.081 C 
ENDBRANCH  31  38
ENDBRANCH  30  34
ENDBRANCH  24  30
ENDBRANCH  22  27
ENDBRANCH   1  22
TORSDOF 7
ENDMDL
MODEL 2
REMARK VINA RESULT:      -8.8      5.065      8.412
REMARK  Name = *****
REMARK                            x       y       z     vdW  Elec       q    Type
REMARK                         _______ _______ _______ _____ _____    ______ ____
ROOT
ATOM      1  C   LIG    1       25.277 -29.598   6.168  0.00  0.00    +0.221 A 
ATOM      2  N   LIG    1       24.802 -29.502   7.417  0.00  0.00    -0.211 NA
ATOM      3  C   LIG    1       24.535 -30.638   8.114  0.00  0.00    +0.111 A 
ATOM      4  C   LIG    1       24.715 -31.872   7.537  0.00  0.00    +0.167 A 
ATOM      5  F   LIG    1       24.422 -33.024   8.165  0.00  0.00    -0.202 F 
ATOM      6  C   LIG    1       25.198 -31.888   6.258  0.00  0.00    +0.155 A 
ATOM      7  N   LIG    1       25.505 -30.769   5.559  0.00  0.00    -0.220 NA
ENDROOT
BRANCH   3   8
ATOM      8  C   LIG    1       24.048 -30.419   9.493  0.00  0.00    +0.008 A 
ATOM      9  C   LIG    1       22.759 -30.819   9.894  0.00  0.00    +0.050 A 
ATOM     10  C   LIG    1       22.315 -30.622  11.202  0.00  0.00    +0.151 A 
ATOM     11  F   LIG    1       21.078 -31.030  11.528  0.00  0.00    -0.203 F 
ATOM     12  C   LIG    1       23.149 -30.015  12.150  0.00  0.00    +0.124 A 
ATOM     13  N   LIG    1       22.928 -29.729  13.467  0.00  0.00    -0.230 NA
ATOM     14  C   LIG    1       24.033 -29.173  13.919  0.00  0.00    +0.108 A 
ATOM     15  N   LIG    1       24.990 -29.083  12.917  0.00  0.00    -0.325 N 
ATOM     16  C   LIG    1       24.179 -28.730  15.330  0.00  0.00    +0.086 C 
ATOM     17  C   LIG    1       24.426 -29.618  11.769  0.00  0.00    +0.072 A 
ATOM     18  C   LIG    1       24.886 -29.811  10.455  0.00  0.00    +0.038 A 
BRANCH  15  19
ATOM     19  C   LIG    1       26.361 -28.581  13.047  0.00  0.00    +0.083 C 
ATOM     20  C   LIG    1       26.685 -27.419  12.098  0.00  0.00    +0.030 C 
ATOM     21  C   LIG    1       27.410 -29.687  12.877  0.00  0.00    +0.030 C 
ENDBRANCH  15  19
ENDBRANCH   3   8
BRANCH   1  22
ATOM     22  N   LIG    1       25.574 -28.443   5.442  0.00  0.00    -0.269 N 
ATOM     23  H   LIG    1       26.356 -28.581   4.823  0.00  0.00    +0.156 HD
BRANCH  22  27
ATOM     24  C   LIG    1       25.052 -24.476   6.614  0.00  0.00    -0.015 A 
ATOM     25  C   LIG    1       26.286 -25.101   6.502  0.00  0.00    +0.117 A 
ATOM     26  N   LIG    1       26.465 -26.382   6.089  0.00  0.00    -0.240 NA
ATOM     27  C   LIG    1       25.369 -27.111   5.773  0.00  0.00    +0.125 A 
ATOM     28  C   LIG    1       24.108 -26.526   5.774  0.00  0.00    +0.044 A 
ATOM     29  C   LIG    1       23.945 -25.216   6.207  0.00  0.00    +0.010 A 
BRANCH  24  30
ATOM     30  C   LIG    1       24.878 -23.077   7.155  0.00  0.00    +0.121 C 
BRANCH  30  34
ATOM     31  N   LIG    1       22.772 -20.414   5.538  0.00  0.00    -0.300 NA
ATOM     32  C   LIG    1       23.022 -21.786   5.049  0.00  0.00    +0.100 C 
ATOM     33  C   LIG    1       24.528 -22.130   4.932  0.00  0.00    +0.100 C 
ATOM     34  N   LIG    1       25.272 -22.012   6.211  0.00  0.00    -0.296 NA
ATOM     35  C   LIG    1       25.015 -20.657   6.759  0.00  0.00    +0.100 C 
ATOM     36  C   LIG    1       23.522 -20.228   6.804  0.00  0.00    +0.100 C 
BRANCH  31  38
ATOM     37  C   LIG    1       22.136 -18.237   4.446  0.00  0.00    +0.020 C 
ATOM     38  C   LIG    1       23.148 -19.374   4.560  0.00  0.00    +0.081 C 
ENDBRANCH  31  38
ENDBRANCH  30  34
ENDBRANCH  24  30
ENDBRANCH  22  27
ENDBRANCH   1  22
TORSDOF 7
ENDMDL
MODEL 3
REMARK VINA RESULT:      -8.7      5.587      9.058
REMARK  Name = *****
REMARK                            x       y       z     vdW  Elec       q    Type
REMARK                         _______ _______ _______ _____ _____    ______ ____
ROOT
ATOM      1  C   LIG    1       24.837 -30.511   7.299  0.00  0.00    +0.221 A 
ATOM      2  N   LIG    1       23.979 -30.150   8.262  0.00  0.00    -0.211 NA
ATOM      3  C   LIG    1       23.624 -31.059   9.209  0.00  0.00    +0.111 A 
ATOM      4  C   LIG    1       24.110 -32.344   9.162  0.00  0.00    +0.167 A 
ATOM      5  F   LIG    1       23.754 -33.293  10.046  0.00  0.00    -0.202 F 
ATOM      6  C   LIG    1       24.977 -32.637   8.148  0.00  0.00    +0.155 A 
ATOM      7  N   LIG    1       25.371 -31.737   7.215  0.00  0.00    -0.220 NA
ENDROOT
BRANCH   3   8
ATOM      8  C   LIG    1       22.699 -30.547  10.243  0.00  0.00    +0.008 A 
ATOM      9  C   LIG    1       21.354 -30.960  10.303  0.00  0.00    +0.050 A 
ATOM     10  C   LIG    1       20.494 -30.484  11.293  0.00  0.00    +0.151 A 
ATOM     11  F   LIG    1       19.224 -30.918  11.303  0.00  0.00    -0.203 F 
ATOM     12  C   LIG    1       20.956 -29.575  12.254  0.00  0.00    +0.124 A 
ATOM     13  N   LIG    1       20.302 -28.988  13.299  0.00  0.00    -0.230 NA
ATOM     14  C   LIG    1       21.185 -28.227  13.912  0.00  0.00    +0.108 A 
ATOM     15  N   LIG    1       22.423 -28.298  13.286  0.00  0.00    -0.325 N 
ATOM     16  C   LIG    1       20.844 -27.429  15.119  0.00  0.00    +0.086 C 
ATOM     17  C   LIG    1       22.282 -29.161  12.210  0.00  0.00    +0.072 A 
ATOM     18  C   LIG    1       23.159 -29.634  11.218  0.00  0.00    +0.038 A 
BRANCH  15  19
ATOM     19  C   LIG    1       23.665 -27.644  13.707  0.00  0.00    +0.083 C 
ATOM     20  C   LIG    1       24.159 -28.091  15.089  0.00  0.00    +0.030 C 
ATOM     21  C   LIG    1       23.564 -26.114  13.670  0.00  0.00    +0.030 C 
ENDBRANCH  15  19
ENDBRANCH   3   8
BRANCH   1  22
ATOM     22  N   LIG    1       25.227 -29.587   6.328  0.00  0.00    -0.269 N 
ATOM     23  H   LIG    1       25.951 -29.954   5.731  0.00  0.00    +0.156 HD
BRANCH  22  27
ATOM     24  C   LIG    1       25.186 -25.419   6.229  0.00  0.00    -0.015 A 
ATOM     25  C   LIG    1       24.355 -26.227   5.465  0.00  0.00    +0.117 A 
ATOM     26  N   LIG    1       24.339 -27.583   5.517  0.00  0.00    -0.240 NA
ATOM     27  C   LIG    1       25.200 -28.201   6.362  0.00  0.00    +0.125 A 
ATOM     28  C   LIG    1       25.998 -27.457   7.223  0.00  0.00    +0.044 A 
ATOM     29  C   LIG    1       26.004 -26.069   7.148  0.00  0.00    +0.010 A 
BRANCH  24  30
ATOM     30  C   LIG    1       25.238 -23.917   6.090  0.00  0.00    +0.121 C 
BRANCH  30  34
ATOM     31  N   LIG    1       23.909 -20.406   6.320  0.00  0.00    -0.300 NA
ATOM     32  C   LIG    1       23.635 -21.536   7.232  0.00  0.00    +0.100 C 
ATOM     33  C   LIG    1       23.108 -22.798   6.506  0.00  0.00    +0.100 C 
ATOM     34  N   LIG    1       24.034 -23.326   5.472  0.00  0.00    -0.296 NA
ATOM     35  C   LIG    1       24.368 -22.210   4.553  0.00  0.00    +0.100 C 
ATOM     36  C   LIG    1       24.808 -20.888   5.242  0.00  0.00    +0.100 C 
BRANCH  31  38
ATOM     37  C   LIG    1       22.918 -19.047   4.448  0.00  0.00    +0.020 C 
ATOM     38  C   LIG    1       22.684 -19.819   5.744  0.00  0.00    +0.081 C 
ENDBRANCH  31  38
ENDBRANCH  30  34
ENDBRANCH  24  30
ENDBRANCH  22  27
ENDBRANCH   1  22
TORSDOF 7
ENDMDL
MODEL 4
REMARK VINA RESULT:      -8.7      2.171      3.745
REMARK  Name = *****
REMARK                            x       y       z     vdW  Elec       q    Type
REMARK                         _______ _______ _______ _____ _____    ______ ____
ROOT
ATOM      1  C   LIG    1       25.307 -24.340   6.340  0.00  0.00    +0.221 A 
ATOM      2  N   LIG    1       25.496 -25.419   7.112  0.00  0.00    -0.211 NA
ATOM      3  C   LIG    1       25.499 -26.652   6.539  0.00  0.00    +0.111 A 
ATOM      4  C   LIG    1       25.276 -26.797   5.191  0.00  0.00    +0.167 A 
ATOM      5  F   LIG    1       25.222 -27.996   4.583  0.00  0.00    -0.202 F 
ATOM      6  C   LIG    1       25.086 -25.651   4.471  0.00  0.00    +0.155 A 
ATOM      7  N   LIG    1       25.115 -24.411   5.016  0.00  0.00    -0.220 NA
ENDROOT
BRANCH   3   8
ATOM      8  C   LIG    1       25.751 -27.769   7.474  0.00  0.00    +0.008 A 
ATOM      9  C   LIG    1       26.502 -27.593   8.652  0.00  0.00    +0.050 A 
ATOM     10  C   LIG    1       26.720 -28.650   9.536  0.00  0.00    +0.151 A 
ATOM     11  F   LIG    1       27.439 -28.421  10.646  0.00  0.00    -0.203 F 
ATOM     12  C   LIG    1       26.194 -29.920   9.265  0.00  0.00    +0.124 A 
ATOM     13  N   LIG    1       26.278 -31.081   9.978  0.00  0.00    -0.230 NA
ATOM     14  C   LIG    1       25.599 -31.985   9.302  0.00  0.00    +0.108 A 
ATOM     15  N   LIG    1       25.062 -31.439   8.143  0.00  0.00    -0.325 N 
ATOM     16  C   LIG    1       25.452 -33.386   9.776  0.00  0.00    +0.086 C 
ATOM     17  C   LIG    1       25.447 -30.108   8.107  0.00  0.00    +0.072 A 
ATOM     18  C   LIG    1       25.220 -29.051   7.209  0.00  0.00    +0.038 A 
BRANCH  15  19
ATOM     19  C   LIG    1       24.199 -32.111   7.168  0.00  0.00    +0.083 C 
ATOM     20  C   LIG    1       23.024 -32.867   7.802  0.00  0.00    +0.030 C 
ATOM     21  C   LIG    1       24.979 -33.058   6.247  0.00  0.00    +0.030 C 
ENDBRANCH  15  19
ENDBRANCH   3   8
BRANCH   1  22
ATOM     22  N   LIG    1       25.318 -23.064   6.907  0.00  0.00    -0.269 N 
ATOM     23  H   LIG    1       24.402 -22.646   6.906  0.00  0.00    +0.156 HD
BRANCH  22  27
ATOM     24  C   LIG    1       28.360 -20.239   7.294  0.00  0.00    -0.015 A 
ATOM     25  C   LIG    1       28.314 -21.438   7.992  0.00  0.00    +0.117 A 
ATOM     26  N   LIG    1       27.344 -22.377   7.846  0.00  0.00    -0.240 NA
ATOM     27  C   LIG    1       26.342 -22.131   6.968  0.00  0.00    +0.125 A 
ATOM     28  C   LIG    1       26.370 -20.995   6.168  0.00  0.00    +0.044 A 
ATOM     29  C   LIG    1       27.367 -20.042   6.339  0.00  0.00    +0.010 A 
BRANCH  24  30
ATOM     30  C   LIG    1       29.406 -19.179   7.537  0.00  0.00    +0.121 C 
BRANCH  30  34
ATOM     31  N   LIG    1       31.919 -16.870   9.118  0.00  0.00    -0.300 NA
ATOM     32  C   LIG    1       32.186 -18.035   8.249  0.00  0.00    +0.100 C 
ATOM     33  C   LIG    1       31.519 -19.340   8.749  0.00  0.00    +0.100 C 
ATOM     34  N   LIG    1       30.042 -19.252   8.868  0.00  0.00    -0.296 NA
ATOM     35  C   LIG    1       29.726 -18.068   9.705  0.00  0.00    +0.100 C 
ATOM     36  C   LIG    1       30.451 -16.754   9.300  0.00  0.00    +0.100 C 
BRANCH  31  38
ATOM     37  C   LIG    1       31.699 -16.604  11.612  0.00  0.00    +0.020 C 
ATOM     38  C   LIG    1       32.594 -16.961  10.428  0.00  0.00    +0.081 C 
ENDBRANCH  31  38
ENDBRANCH  30  34
ENDBRANCH  24  30
ENDBRANCH  22  27
ENDBRANCH   1  22
TORSDOF 7
ENDMDL
MODEL 5
REMARK VINA RESULT:      -8.5      4.990      8.507
REMARK  Name = *****
REMARK                            x       y       z     vdW  Elec       q    Type
REMARK                         _______ _______ _______ _____ _____    ______ ____
ROOT
ATOM      1  C   LIG    1       25.246 -29.666   6.096  0.00  0.00    +0.221 A 
ATOM      2  N   LIG    1       24.770 -29.584   7.346  0.00  0.00    -0.211 NA
ATOM      3  C   LIG    1       24.554 -30.727   8.049  0.00  0.00    +0.111 A 
ATOM      4  C   LIG    1       24.786 -31.955   7.477  0.00  0.00    +0.167 A 
ATOM      5  F   LIG    1       24.544 -33.116   8.112  0.00  0.00    -0.202 F 
ATOM      6  C   LIG    1       25.266 -31.957   6.197  0.00  0.00    +0.155 A 
ATOM      7  N   LIG    1       25.522 -30.829   5.492  0.00  0.00    -0.220 NA
ENDROOT
BRANCH   3   8
ATOM      8  C   LIG    1       24.062 -30.523   9.428  0.00  0.00    +0.008 A 
ATOM      9  C   LIG    1       24.802 -29.792  10.377  0.00  0.00    +0.050 A 
ATOM     10  C   LIG    1       24.320 -29.591  11.672  0.00  0.00    +0.151 A 
ATOM     11  F   LIG    1       25.067 -28.881  12.531  0.00  0.00    -0.203 F 
ATOM     12  C   LIG    1       23.082 -30.120  12.056  0.00  0.00    +0.124 A 
ATOM     13  N   LIG    1       22.423 -30.048  13.251  0.00  0.00    -0.230 NA
ATOM     14  C   LIG    1       21.288 -30.696  13.091  0.00  0.00    +0.108 A 
ATOM     15  N   LIG    1       21.182 -31.203  11.802  0.00  0.00    -0.325 N 
ATOM     16  C   LIG    1       20.287 -30.825  14.182  0.00  0.00    +0.086 C 
ATOM     17  C   LIG    1       22.338 -30.842  11.129  0.00  0.00    +0.072 A 
ATOM     18  C   LIG    1       22.812 -31.050   9.822  0.00  0.00    +0.038 A 
BRANCH  15  19
ATOM     19  C   LIG    1       20.044 -31.926  11.228  0.00  0.00    +0.083 C 
ATOM     20  C   LIG    1       20.425 -33.268  10.589  0.00  0.00    +0.030 C 
ATOM     21  C   LIG    1       19.261 -31.081  10.214  0.00  0.00    +0.030 C 
ENDBRANCH  15  19
ENDBRANCH   3   8
BRANCH   1  22
ATOM     22  N   LIG    1       25.491 -28.503   5.364  0.00  0.00    -0.269 N 
ATOM     23  H   LIG    1       26.215 -28.638   4.677  0.00  0.00    +0.156 HD
BRANCH  22  27
ATOM     24  C   LIG    1       25.111 -24.550   6.636  0.00  0.00    -0.015 A 
ATOM     25  C   LIG    1       26.325 -25.190   6.425  0.00  0.00    +0.117 A 
ATOM     26  N   LIG    1       26.456 -26.465   5.980  0.00  0.00    -0.240 NA
ATOM     27  C   LIG    1       25.329 -27.174   5.730  0.00  0.00    +0.125 A 
ATOM     28  C   LIG    1       24.081 -26.572   5.831  0.00  0.00    +0.044 A 
ATOM     29  C   LIG    1       23.968 -25.267   6.297  0.00  0.00    +0.010 A 
BRANCH  24  30
ATOM     30  C   LIG    1       24.997 -23.159   7.211  0.00  0.00    +0.121 C 
BRANCH  30  34
ATOM     31  N   LIG    1       22.851 -20.452   5.724  0.00  0.00    -0.300 NA
ATOM     32  C   LIG    1       23.067 -21.818   5.205  0.00  0.00    +0.100 C 
ATOM     33  C   LIG    1       24.562 -22.175   5.019  0.00  0.00    +0.100 C 
ATOM     34  N   LIG    1       25.361 -22.084   6.267  0.00  0.00    -0.296 NA
ATOM     35  C   LIG    1       25.142 -20.734   6.845  0.00  0.00    +0.100 C 
ATOM     36  C   LIG    1       23.657 -20.292   6.959  0.00  0.00    +0.100 C 
BRANCH  31  38
ATOM     37  C   LIG    1       22.033 -18.476   4.395  0.00  0.00    +0.020 C 
ATOM     38  C   LIG    1       23.196 -19.402   4.746  0.00  0.00    +0.081 C 
ENDBRANCH  31  38
ENDBRANCH  30  34
ENDBRANCH  24  30
ENDBRANCH  22  27
ENDBRANCH   1  22
TORSDOF 7
ENDMDL
MODEL 6
REMARK VINA RESULT:      -8.5      2.480      4.940
REMARK  Name = *****
REMARK                            x       y       z     vdW  Elec       q    Type
REMARK                         _______ _______ _______ _____ _____    ______ ____
ROOT
ATOM      1  C   LIG    1       24.800 -25.824   5.862  0.00  0.00    +0.221 A 
ATOM      2  N   LIG    1       24.635 -26.780   6.786  0.00  0.00    -0.211 NA
ATOM      3  C   LIG    1       25.068 -28.041   6.519  0.00  0.00    +0.111 A 
ATOM      4  C   LIG    1       25.637 -28.344   5.305  0.00  0.00    +0.167 A 
ATOM      5  F   LIG    1       26.038 -29.583   4.973  0.00  0.00    -0.202 F 
ATOM      6  C   LIG    1       25.766 -27.316   4.413  0.00  0.00    +0.155 A 
ATOM      7  N   LIG    1       25.374 -26.046   4.672  0.00  0.00    -0.220 NA
ENDROOT
BRANCH   3   8
ATOM      8  C   LIG    1       24.869 -29.010   7.618  0.00  0.00    +0.008 A 
ATOM      9  C   LIG    1       24.002 -30.112   7.484  0.00  0.00    +0.050 A 
ATOM     10  C   LIG    1       23.834 -31.030   8.522  0.00  0.00    +0.151 A 
ATOM     11  F   LIG    1       22.998 -32.063   8.334  0.00  0.00    -0.203 F 
ATOM     12  C   LIG    1       24.527 -30.870   9.728  0.00  0.00    +0.124 A 
ATOM     13  N   LIG    1       24.518 -31.634  10.860  0.00  0.00    -0.230 NA
ATOM     14  C   LIG    1       25.355 -31.065  11.702  0.00  0.00    +0.108 A 
ATOM     15  N   LIG    1       25.923 -29.927  11.145  0.00  0.00    -0.325 N 
ATOM     16  C   LIG    1       25.624 -31.623  13.053  0.00  0.00    +0.086 C 
ATOM     17  C   LIG    1       25.389 -29.789   9.873  0.00  0.00    +0.072 A 
ATOM     18  C   LIG    1       25.569 -28.857   8.836  0.00  0.00    +0.038 A 
BRANCH  15  19
ATOM     19  C   LIG    1       26.942 -29.062  11.748  0.00  0.00    +0.083 C 
ATOM     20  C   LIG    1       26.704 -27.566  11.503  0.00  0.00    +0.030 C 
ATOM     21  C   LIG    1       28.363 -29.432  11.305  0.00  0.00    +0.030 C 
ENDBRANCH  15  19
ENDBRANCH   3   8
BRANCH   1  22
ATOM     22  N   LIG    1       24.378 -24.519   6.124  0.00  0.00    -0.269 N 
ATOM     23  H   LIG    1       23.526 -24.296   5.636  0.00  0.00    +0.156 HD
BRANCH  22  27
ATOM     24  C   LIG    1       26.703 -21.157   6.950  0.00  0.00    -0.015 A 
ATOM     25  C   LIG    1       25.805 -21.247   5.894  0.00  0.00    +0.117 A 
ATOM     26  N   LIG    1       25.021 -22.325   5.639  0.00  0.00    -0.240 NA
ATOM     27  C   LIG    1       25.123 -23.398   6.461  0.00  0.00    +0.125 A 
ATOM     28  C   LIG    1       25.932 -23.347   7.590  0.00  0.00    +0.044 A 
ATOM     29  C   LIG    1       26.733 -22.236   7.828  0.00  0.00    +0.010 A 
BRANCH  24  30
ATOM     30  C   LIG    1       27.620 -19.977   7.159  0.00  0.00    +0.121 C 
BRANCH  30  34
ATOM     31  N   LIG    1       30.854 -18.094   7.533  0.00  0.00    -0.300 NA
ATOM     32  C   LIG    1       30.543 -19.170   6.569  0.00  0.00    +0.100 C 
ATOM     33  C   LIG    1       30.012 -20.461   7.240  0.00  0.00    +0.100 C 
ATOM     34  N   LIG    1       28.775 -20.258   8.036  0.00  0.00    -0.296 NA
ATOM     35  C   LIG    1       29.031 -19.155   8.995  0.00  0.00    +0.100 C 
ATOM     36  C   LIG    1       29.657 -17.872   8.382  0.00  0.00    +0.100 C 
BRANCH  31  38
ATOM     37  C   LIG    1       32.289 -17.361   9.467  0.00  0.00    +0.020 C 
ATOM     38  C   LIG    1       32.031 -18.392   8.372  0.00  0.00    +0.081 C 
ENDBRANCH  31  38
ENDBRANCH  30  34
ENDBRANCH  24  30
ENDBRANCH  22  27
ENDBRANCH   1  22
TORSDOF 7
ENDMDL
MODEL 7
REMARK VINA RESULT:      -8.3      2.658     10.834
REMARK  Name = *****
REMARK                            x       y       z     vdW  Elec       q    Type
REMARK                         _______ _______ _______ _____ _____    ______ ____
ROOT
ATOM      1  C   LIG    1       24.531 -23.910   5.973  0.00  0.00    +0.221 A 
ATOM      2  N   LIG    1       25.534 -23.027   5.880  0.00  0.00    -0.211 NA
ATOM      3  C   LIG    1       25.416 -21.821   6.495  0.00  0.00    +0.111 A 
ATOM      4  C   LIG    1       24.268 -21.492   7.176  0.00  0.00    +0.167 A 
ATOM      5  F   LIG    1       24.081 -20.297   7.762  0.00  0.00    -0.202 F 
ATOM      6  C   LIG    1       23.287 -22.443   7.223  0.00  0.00    +0.155 A 
ATOM      7  N   LIG    1       23.400 -23.664   6.647  0.00  0.00    -0.220 NA
ENDROOT
BRANCH   3   8
ATOM      8  C   LIG    1       26.593 -20.936   6.358  0.00  0.00    +0.008 A 
ATOM      9  C   LIG    1       26.677 -19.971   5.337  0.00  0.00    +0.050 A 
ATOM     10  C   LIG    1       27.785 -19.130   5.226  0.00  0.00    +0.151 A 
ATOM     11  F   LIG    1       27.807 -18.225   4.235  0.00  0.00    -0.203 F 
ATOM     12  C   LIG    1       28.846 -19.233   6.135  0.00  0.00    +0.124 A 
ATOM     13  N   LIG    1       30.010 -18.524   6.218  0.00  0.00    -0.230 NA
ATOM     14  C   LIG    1       30.662 -18.996   7.260  0.00  0.00    +0.108 A 
ATOM     15  N   LIG    1       29.945 -20.014   7.875  0.00  0.00    -0.325 N 
ATOM     16  C   LIG    1       31.983 -18.459   7.681  0.00  0.00    +0.086 C 
ATOM     17  C   LIG    1       28.774 -20.179   7.151  0.00  0.00    +0.072 A 
ATOM     18  C   LIG    1       27.664 -21.032   7.274  0.00  0.00    +0.038 A 
BRANCH  15  19
ATOM     19  C   LIG    1       30.312 -20.742   9.093  0.00  0.00    +0.083 C 
ATOM     20  C   LIG    1       30.879 -19.843  10.201  0.00  0.00    +0.030 C 
ATOM     21  C   LIG    1       31.289 -21.892   8.819  0.00  0.00    +0.030 C 
ENDBRANCH  15  19
ENDBRANCH   3   8
BRANCH   1  22
ATOM     22  N   LIG    1       24.641 -25.160   5.363  0.00  0.00    -0.269 N 
ATOM     23  H   LIG    1       24.138 -25.197   4.491  0.00  0.00    +0.156 HD
BRANCH  22  27
ATOM     24  C   LIG    1       25.031 -28.922   7.118  0.00  0.00    -0.015 A 
ATOM     25  C   LIG    1       24.196 -28.644   6.044  0.00  0.00    +0.117 A 
ATOM     26  N   LIG    1       24.090 -27.429   5.447  0.00  0.00    -0.240 NA
ATOM     27  C   LIG    1       24.838 -26.410   5.932  0.00  0.00    +0.125 A 
ATOM     28  C   LIG    1       25.762 -26.635   6.945  0.00  0.00    +0.044 A 
ATOM     29  C   LIG    1       25.850 -27.883   7.549  0.00  0.00    +0.010 A 
BRANCH  24  30
ATOM     30  C   LIG    1       25.067 -30.261   7.813  0.00  0.00    +0.121 C 
BRANCH  30  34
ATOM     31  N   LIG    1       24.128 -32.631  10.579  0.00  0.00    -0.300 NA
ATOM     32  C   LIG    1       24.542 -32.971   9.201  0.00  0.00    +0.100 C 
ATOM     33  C   LIG    1       23.698 -32.261   8.114  0.00  0.00    +0.100 C 
ATOM     34  N   LIG    1       23.738 -30.779   8.197  0.00  0.00    -0.296 NA
ATOM     35  C   LIG    1       23.365 -30.394   9.581  0.00  0.00    +0.100 C 
ATOM     36  C   LIG    1       24.118 -31.153  10.708  0.00  0.00    +0.100 C 
BRANCH  31  38
ATOM     37  C   LIG    1       22.315 -32.763  12.319  0.00  0.00    +0.020 C 
ATOM     38  C   LIG    1       22.810 -33.189  10.940  0.00  0.00    +0.081 C 
ENDBRANCH  31  38
ENDBRANCH  30  34
ENDBRANCH  24  30
ENDBRANCH  22  27
ENDBRANCH   1  22
TORSDOF 7
ENDMDL
MODEL 8
REMARK VINA RESULT:      -8.1      5.498      8.807
REMARK  Name = *****
REMARK                            x       y       z     vdW  Elec       q    Type
REMARK                         _______ _______ _______ _____ _____    ______ ____
ROOT
ATOM      1  C   LIG    1       25.405 -30.240   6.705  0.00  0.00    +0.221 A 
ATOM      2  N   LIG    1       25.308 -29.935   8.006  0.00  0.00    -0.211 NA
ATOM      3  C   LIG    1       25.107 -30.932   8.908  0.00  0.00    +0.111 A 
ATOM      4  C   LIG    1       24.969 -32.234   8.491  0.00  0.00    +0.167 A 
ATOM      5  F   LIG    1       24.722 -33.251   9.336  0.00  0.00    -0.202 F 
ATOM      6  C   LIG    1       25.075 -32.466   7.148  0.00  0.00    +0.155 A 
ATOM      7  N   LIG    1       25.311 -31.492   6.237  0.00  0.00    -0.220 NA
ENDROOT
BRANCH   3   8
ATOM      8  C   LIG    1       25.049 -30.490  10.317  0.00  0.00    +0.008 A 
ATOM      9  C   LIG    1       26.177 -30.553  11.159  0.00  0.00    +0.050 A 
ATOM     10  C   LIG    1       26.116 -30.119  12.484  0.00  0.00    +0.151 A 
ATOM     11  F   LIG    1       27.225 -30.198  13.236  0.00  0.00    -0.203 F 
ATOM     12  C   LIG    1       24.921 -29.611  13.008  0.00  0.00    +0.124 A 
ATOM     13  N   LIG    1       24.636 -29.134  14.256  0.00  0.00    -0.230 NA
ATOM     14  C   LIG    1       23.374 -28.761  14.234  0.00  0.00    +0.108 A 
ATOM     15  N   LIG    1       22.811 -28.984  12.984  0.00  0.00    -0.325 N 
ATOM     16  C   LIG    1       22.699 -28.173  15.421  0.00  0.00    +0.086 C 
ATOM     17  C   LIG    1       23.800 -29.539  12.188  0.00  0.00    +0.072 A 
ATOM     18  C   LIG    1       23.848 -29.973  10.852  0.00  0.00    +0.038 A 
BRANCH  15  19
ATOM     19  C   LIG    1       21.452 -28.645  12.554  0.00  0.00    +0.083 C 
ATOM     20  C   LIG    1       21.048 -27.199  12.871  0.00  0.00    +0.030 C 
ATOM     21  C   LIG    1       20.399 -29.605  13.122  0.00  0.00    +0.030 C 
ENDBRANCH  15  19
ENDBRANCH   3   8
BRANCH   1  22
ATOM     22  N   LIG    1       25.629 -29.232   5.765  0.00  0.00    -0.269 N 
ATOM     23  H   LIG    1       26.354 -29.483   5.112  0.00  0.00    +0.156 HD
BRANCH  22  27
ATOM     24  C   LIG    1       25.172 -25.120   6.279  0.00  0.00    -0.015 A 
ATOM     25  C   LIG    1       26.395 -25.775   6.278  0.00  0.00    +0.117 A 
ATOM     26  N   LIG    1       26.554 -27.109   6.079  0.00  0.00    -0.240 NA
ATOM     27  C   LIG    1       25.446 -27.861   5.875  0.00  0.00    +0.125 A 
ATOM     28  C   LIG    1       24.196 -27.262   5.772  0.00  0.00    +0.044 A 
ATOM     29  C   LIG    1       24.054 -25.896   5.988  0.00  0.00    +0.010 A 
BRANCH  24  30
ATOM     30  C   LIG    1       25.020 -23.650   6.586  0.00  0.00    +0.121 C 
BRANCH  30  34
ATOM     31  N   LIG    1       24.071 -20.078   5.892  0.00  0.00    -0.300 NA
ATOM     32  C   LIG    1       24.073 -20.773   7.195  0.00  0.00    +0.100 C 
ATOM     33  C   LIG    1       23.248 -22.084   7.194  0.00  0.00    +0.100 C 
ATOM     34  N   LIG    1       23.712 -23.084   6.199  0.00  0.00    -0.296 NA
ATOM     35  C   LIG    1       23.762 -22.414   4.876  0.00  0.00    +0.100 C 
ATOM     36  C   LIG    1       24.496 -21.044   4.850  0.00  0.00    +0.100 C 
BRANCH  31  38
ATOM     37  C   LIG    1       22.727 -18.789   4.197  0.00  0.00    +0.020 C 
ATOM     38  C   LIG    1       22.758 -19.497   5.549  0.00  0.00    +0.081 C 
ENDBRANCH  31  38
ENDBRANCH  30  34
ENDBRANCH  24  30
ENDBRANCH  22  27
ENDBRANCH   1  22
TORSDOF 7
ENDMDL
MODEL 9
REMARK VINA RESULT:      -8.0      3.216      6.954
REMARK  Name = *****
REMARK                            x       y       z     vdW  Elec       q    Type
REMARK                         _______ _______ _______ _____ _____    ______ ____
ROOT
ATOM      1  C   LIG    1       24.388 -28.610   5.968  0.00  0.00    +0.221 A 
ATOM      2  N   LIG    1       24.306 -29.050   7.231  0.00  0.00    -0.211 NA
ATOM      3  C   LIG    1       24.737 -30.305   7.526  0.00  0.00    +0.111 A 
ATOM      4  C   LIG    1       25.219 -31.129   6.538  0.00  0.00    +0.167 A 
ATOM      5  F   LIG    1       25.614 -32.394   6.767  0.00  0.00    -0.202 F 
ATOM      6  C   LIG    1       25.268 -30.612   5.274  0.00  0.00    +0.155 A 
ATOM      7  N   LIG    1       24.877 -29.352   4.965  0.00  0.00    -0.220 NA
ENDROOT
BRANCH   3   8
ATOM      8  C   LIG    1       24.633 -30.677   8.953  0.00  0.00    +0.008 A 
ATOM      9  C   LIG    1       23.763 -31.693   9.392  0.00  0.00    +0.050 A 
ATOM     10  C   LIG    1       23.684 -32.048  10.739  0.00  0.00    +0.151 A 
ATOM     11  F   LIG    1       22.840 -33.028  11.096  0.00  0.00    -0.203 F 
ATOM     12  C   LIG    1       24.475 -31.391  11.691  0.00  0.00    +0.124 A 
ATOM     13  N   LIG    1       24.563 -31.571  13.042  0.00  0.00    -0.230 NA
ATOM     14  C   LIG    1       25.465 -30.715  13.475  0.00  0.00    +0.108 A 
ATOM     15  N   LIG    1       25.980 -29.963  12.427  0.00  0.00    -0.325 N 
ATOM     16  C   LIG    1       25.846 -30.622  14.909  0.00  0.00    +0.086 C 
ATOM     17  C   LIG    1       25.342 -30.388  11.272  0.00  0.00    +0.072 A 
ATOM     18  C   LIG    1       25.431 -30.022   9.918  0.00  0.00    +0.038 A 
BRANCH  15  19
ATOM     19  C   LIG    1       27.041 -28.955  12.502  0.00  0.00    +0.083 C 
ATOM     20  C   LIG    1       26.614 -27.571  11.995  0.00  0.00    +0.030 C 
ATOM     21  C   LIG    1       28.319 -29.393  11.775  0.00  0.00    +0.030 C 
ENDBRANCH  15  19
ENDBRANCH   3   8
BRANCH   1  22
ATOM     22  N   LIG    1       23.967 -27.319   5.649  0.00  0.00    -0.269 N 
ATOM     23  H   LIG    1       23.542 -27.278   4.737  0.00  0.00    +0.156 HD
BRANCH  22  27
ATOM     24  C   LIG    1       25.550 -23.737   7.081  0.00  0.00    -0.015 A 
ATOM     25  C   LIG    1       26.314 -24.830   6.697  0.00  0.00    +0.117 A 
ATOM     26  N   LIG    1       25.807 -25.987   6.198  0.00  0.00    -0.240 NA
ATOM     27  C   LIG    1       24.463 -26.094   6.074  0.00  0.00    +0.125 A 
ATOM     28  C   LIG    1       23.640 -25.009   6.352  0.00  0.00    +0.044 A 
ATOM     29  C   LIG    1       24.178 -23.837   6.869  0.00  0.00    +0.010 A 
BRANCH  24  30
ATOM     30  C   LIG    1       26.137 -22.496   7.709  0.00  0.00    +0.121 C 
BRANCH  30  34
ATOM     31  N   LIG    1       28.906 -20.025   8.317  0.00  0.00    -0.300 NA
ATOM     32  C   LIG    1       27.450 -19.793   8.425  0.00  0.00    +0.100 C 
ATOM     33  C   LIG    1       26.670 -20.181   7.145  0.00  0.00    +0.100 C 
ATOM     34  N   LIG    1       26.827 -21.605   6.754  0.00  0.00    -0.296 NA
ATOM     35  C   LIG    1       28.281 -21.893   6.672  0.00  0.00    +0.100 C 
ATOM     36  C   LIG    1       29.121 -21.431   7.895  0.00  0.00    +0.100 C 
BRANCH  31  38
ATOM     37  C   LIG    1       31.058 -19.378   7.183  0.00  0.00    +0.020 C 
ATOM     38  C   LIG    1       29.570 -19.099   7.379  0.00  0.00    +0.081 C 
ENDBRANCH  31  38
ENDBRANCH  30  34
ENDBRANCH  24  30
ENDBRANCH  22  27
ENDBRANCH   1  22
TORSDOF 7
ENDMDL
